MODEL 1
REMARK VINA RESULT:     -12.1      0.000      0.000
REMARK  Name = 54689025
REMARK  9 active torsions:
REMARK  status: ('A' for Active; 'I' for Inactive)
REMARK    1  A    between atoms: C_1  and  C_21
REMARK    2  A    between atoms: C_4  and  N_8
REMARK    3  A    between atoms: C_9  and  C_11
REMARK    4  A    between atoms: C_11  and  N_13
REMARK    5  A    between atoms: C_14  and  O_16
REMARK    6  A    between atoms: O_16  and  C_17
REMARK    7  A    between atoms: C_21  and  C_24
REMARK    8  A    between atoms: C_21  and  C_35
REMARK    9  A    between atoms: C_25  and  O_33
REMARK                            x       y       z     vdW  Elec       q    Type
REMARK                         _______ _______ _______ _____ _____    ______ ____
ROOT
ATOM      1  C   UNL     1      34.838 -16.725 -22.346  0.00  0.00    -0.017 C 
ATOM      2  C   UNL     1      34.509 -15.734 -23.270  0.00  0.00    +0.011 C 
ATOM      3  C   UNL     1      34.808 -16.443 -20.980  0.00  0.00    -0.004 C 
ATOM      4  C   UNL     1      34.149 -14.460 -22.829  0.00  0.00    +0.050 C 
ATOM      5  C   UNL     1      34.449 -15.170 -20.538  0.00  0.00    +0.001 C 
ATOM      6  C   UNL     1      34.119 -14.179 -21.463  0.00  0.00    +0.015 C 
ENDROOT
BRANCH   4   8
ATOM      7  O   UNL     1      33.089 -14.683 -25.631  0.00  0.00    -0.273 OA
ATOM      8  N   UNL     1      33.820 -13.468 -23.753  0.00  0.00    -0.283 N 
ATOM      9  C   UNL     1      33.326 -13.625 -25.058  0.00  0.00    +0.246 C 
ATOM     10  H   UNL     1      33.950 -12.540 -23.451  0.00  0.00    +0.155 HD
BRANCH   9  11
ATOM     11  C   UNL     1      33.101 -12.277 -25.719  0.00  0.00    +0.179 C 
BRANCH  11  13
ATOM     12  O   UNL     1      32.719  -9.428 -26.140  0.00  0.00    -0.226 OA
ATOM     13  N   UNL     1      32.892 -11.263 -24.727  0.00  0.00    -0.262 N 
ATOM     14  C   UNL     1      32.717  -9.919 -25.015  0.00  0.00    +0.402 C 
ATOM     15  H   UNL     1      32.870 -11.539 -23.782  0.00  0.00    +0.153 HD
BRANCH  14  16
ATOM     16  O   UNL     1      32.540  -9.211 -23.860  0.00  0.00    -0.442 OA
BRANCH  16  17
ATOM     17  C   UNL     1      33.474  -8.150 -23.631  0.00  0.00    +0.138 C 
ATOM     18  C   UNL     1      34.875  -8.650 -23.976  0.00  0.00    +0.044 C 
ATOM     19  C   UNL     1      33.386  -7.773 -22.152  0.00  0.00    +0.044 C 
ATOM     20  C   UNL     1      33.086  -6.963 -24.512  0.00  0.00    +0.044 C 
ENDBRANCH  16  17
ENDBRANCH  14  16
ENDBRANCH  11  13
ENDBRANCH   9  11
ENDBRANCH   4   8
BRANCH   1  21
ATOM     21  C   UNL     1      35.229 -18.111 -22.826  0.00  0.00    +0.054 C 
BRANCH  21  24
ATOM     22  O   UNL     1      36.417 -20.371 -20.031  0.00  0.00    -0.421 OA
ATOM     23  O   UNL     1      37.482 -18.918 -21.420  0.00  0.00    -0.245 OA
ATOM     24  C   UNL     1      35.127 -19.116 -21.711  0.00  0.00    +0.091 A 
ATOM     25  C   UNL     1      33.992 -19.706 -21.289  0.00  0.00    +0.139 A 
ATOM     26  C   UNL     1      36.431 -19.443 -21.064  0.00  0.00    +0.345 A 
ATOM     27  C   UNL     1      34.012 -20.681 -20.196  0.00  0.00    +0.068 A 
ATOM     28  C   UNL     1      35.230 -20.986 -19.598  0.00  0.00    +0.152 A 
ATOM     29  C   UNL     1      32.866 -21.329 -19.716  0.00  0.00    +0.006 C 
ATOM     30  C   UNL     1      35.337 -21.905 -18.552  0.00  0.00    +0.038 C 
ATOM     31  C   UNL     1      32.955 -22.252 -18.668  0.00  0.00    +0.000 C 
ATOM     32  C   UNL     1      34.190 -22.540 -18.088  0.00  0.00    +0.003 C 
BRANCH  25  33
ATOM     33  O   UNL     1      32.741 -19.464 -21.816  0.00  0.00    -0.506 OA
ATOM     34  H   UNL     1      32.562 -18.650 -22.243  0.00  0.00    +0.292 HD
ENDBRANCH  25  33
ENDBRANCH  21  24
BRANCH  21  35
ATOM     35  C   UNL     1      34.418 -18.596 -24.045  0.00  0.00    +0.009 C 
ATOM     36  C   UNL     1      34.907 -19.934 -24.590  0.00  0.00    +0.001 C 
ENDBRANCH  21  35
ENDBRANCH   1  21
TORSDOF 9
ENDMDL
MODEL 2
REMARK VINA RESULT:     -11.3      4.454     11.538
REMARK  Name = 54689025
REMARK  9 active torsions:
REMARK  status: ('A' for Active; 'I' for Inactive)
REMARK    1  A    between atoms: C_1  and  C_21
REMARK    2  A    between atoms: C_4  and  N_8
REMARK    3  A    between atoms: C_9  and  C_11
REMARK    4  A    between atoms: C_11  and  N_13
REMARK    5  A    between atoms: C_14  and  O_16
REMARK    6  A    between atoms: O_16  and  C_17
REMARK    7  A    between atoms: C_21  and  C_24
REMARK    8  A    between atoms: C_21  and  C_35
REMARK    9  A    between atoms: C_25  and  O_33
REMARK                            x       y       z     vdW  Elec       q    Type
REMARK                         _______ _______ _______ _____ _____    ______ ____
ROOT
ATOM      1  C   UNL     1      34.320 -20.110 -20.987  0.00  0.00    -0.017 C 
ATOM      2  C   UNL     1      34.654 -20.964 -19.936  0.00  0.00    +0.011 C 
ATOM      3  C   UNL     1      32.983 -19.802 -21.237  0.00  0.00    -0.004 C 
ATOM      4  C   UNL     1      33.651 -21.509 -19.135  0.00  0.00    +0.050 C 
ATOM      5  C   UNL     1      31.980 -20.348 -20.437  0.00  0.00    +0.001 C 
ATOM      6  C   UNL     1      32.314 -21.201 -19.385  0.00  0.00    +0.015 C 
ENDROOT
BRANCH   4   8
ATOM      7  O   UNL     1      36.122 -21.627 -17.429  0.00  0.00    -0.273 OA
ATOM      8  N   UNL     1      33.984 -22.365 -18.083  0.00  0.00    -0.283 N 
ATOM      9  C   UNL     1      35.159 -22.379 -17.314  0.00  0.00    +0.246 C 
ATOM     10  H   UNL     1      33.310 -23.043 -17.851  0.00  0.00    +0.155 HD
BRANCH   9  11
ATOM     11  C   UNL     1      35.109 -23.478 -16.268  0.00  0.00    +0.179 C 
BRANCH  11  13
ATOM     12  O   UNL     1      36.227 -23.260 -13.596  0.00  0.00    -0.226 OA
ATOM     13  N   UNL     1      36.434 -23.820 -15.839  0.00  0.00    -0.262 N 
ATOM     14  C   UNL     1      36.889 -23.684 -14.538  0.00  0.00    +0.402 C 
ATOM     15  H   UNL     1      37.061 -24.173 -16.512  0.00  0.00    +0.153 HD
BRANCH  14  16
ATOM     16  O   UNL     1      38.190 -24.093 -14.451  0.00  0.00    -0.442 OA
BRANCH  16  17
ATOM     17  C   UNL     1      38.391 -25.452 -14.048  0.00  0.00    +0.138 C 
ATOM     18  C   UNL     1      37.992 -25.588 -12.579  0.00  0.00    +0.044 C 
ATOM     19  C   UNL     1      39.873 -25.773 -14.235  0.00  0.00    +0.044 C 
ATOM     20  C   UNL     1      37.530 -26.353 -14.931  0.00  0.00    +0.044 C 
ENDBRANCH  16  17
ENDBRANCH  14  16
ENDBRANCH  11  13
ENDBRANCH   9  11
ENDBRANCH   4   8
BRANCH   1  21
ATOM     21  C   UNL     1      35.412 -19.516 -21.858  0.00  0.00    +0.054 C 
BRANCH  21  24
ATOM     22  O   UNL     1      34.193 -17.248 -24.634  0.00  0.00    -0.421 OA
ATOM     23  O   UNL     1      34.723 -19.458 -24.546  0.00  0.00    -0.245 OA
ATOM     24  C   UNL     1      34.946 -18.243 -22.511  0.00  0.00    +0.091 A 
ATOM     25  C   UNL     1      34.815 -17.050 -21.899  0.00  0.00    +0.139 A 
ATOM     26  C   UNL     1      34.621 -18.385 -23.960  0.00  0.00    +0.345 A 
ATOM     27  C   UNL     1      34.361 -15.871 -22.639  0.00  0.00    +0.068 A 
ATOM     28  C   UNL     1      34.063 -16.005 -23.990  0.00  0.00    +0.152 A 
ATOM     29  C   UNL     1      34.209 -14.604 -22.058  0.00  0.00    +0.006 C 
ATOM     30  C   UNL     1      33.625 -14.932 -24.768  0.00  0.00    +0.038 C 
ATOM     31  C   UNL     1      33.771 -13.517 -22.823  0.00  0.00    +0.000 C 
ATOM     32  C   UNL     1      33.480 -13.681 -24.176  0.00  0.00    +0.003 C 
BRANCH  25  33
ATOM     33  O   UNL     1      35.083 -16.821 -20.566  0.00  0.00    -0.506 OA
ATOM     34  H   UNL     1      34.681 -17.355 -19.909  0.00  0.00    +0.292 HD
ENDBRANCH  25  33
ENDBRANCH  21  24
BRANCH  21  35
ATOM     35  C   UNL     1      36.737 -19.267 -21.108  0.00  0.00    +0.009 C 
ATOM     36  C   UNL     1      37.881 -18.876 -22.037  0.00  0.00    +0.001 C 
ENDBRANCH  21  35
ENDBRANCH   1  21
TORSDOF 9
ENDMDL
MODEL 3
REMARK VINA RESULT:     -10.8      4.465     11.477
REMARK  Name = 54689025
REMARK  9 active torsions:
REMARK  status: ('A' for Active; 'I' for Inactive)
REMARK    1  A    between atoms: C_1  and  C_21
REMARK    2  A    between atoms: C_4  and  N_8
REMARK    3  A    between atoms: C_9  and  C_11
REMARK    4  A    between atoms: C_11  and  N_13
REMARK    5  A    between atoms: C_14  and  O_16
REMARK    6  A    between atoms: O_16  and  C_17
REMARK    7  A    between atoms: C_21  and  C_24
REMARK    8  A    between atoms: C_21  and  C_35
REMARK    9  A    between atoms: C_25  and  O_33
REMARK                            x       y       z     vdW  Elec       q    Type
REMARK                         _______ _______ _______ _____ _____    ______ ____
ROOT
ATOM      1  C   UNL     1      34.316 -20.054 -21.039  0.00  0.00    -0.017 C 
ATOM      2  C   UNL     1      34.663 -20.913 -19.997  0.00  0.00    +0.011 C 
ATOM      3  C   UNL     1      32.975 -19.763 -21.288  0.00  0.00    -0.004 C 
ATOM      4  C   UNL     1      33.668 -21.481 -19.201  0.00  0.00    +0.050 C 
ATOM      5  C   UNL     1      31.980 -20.332 -20.492  0.00  0.00    +0.001 C 
ATOM      6  C   UNL     1      32.326 -21.190 -19.449  0.00  0.00    +0.015 C 
ENDROOT
BRANCH   4   8
ATOM      7  O   UNL     1      36.012 -21.420 -17.323  0.00  0.00    -0.273 OA
ATOM      8  N   UNL     1      34.013 -22.341 -18.158  0.00  0.00    -0.283 N 
ATOM      9  C   UNL     1      35.127 -22.269 -17.305  0.00  0.00    +0.246 C 
ATOM     10  H   UNL     1      33.398 -23.092 -17.999  0.00  0.00    +0.155 HD
BRANCH   9  11
ATOM     11  C   UNL     1      35.118 -23.409 -16.304  0.00  0.00    +0.179 C 
BRANCH  11  13
ATOM     12  O   UNL     1      36.333 -23.193 -13.674  0.00  0.00    -0.226 OA
ATOM     13  N   UNL     1      36.458 -23.751 -15.924  0.00  0.00    -0.262 N 
ATOM     14  C   UNL     1      36.960 -23.616 -14.640  0.00  0.00    +0.402 C 
ATOM     15  H   UNL     1      37.059 -24.104 -16.620  0.00  0.00    +0.153 HD
BRANCH  14  16
ATOM     16  O   UNL     1      38.264 -24.025 -14.601  0.00  0.00    -0.442 OA
BRANCH  16  17
ATOM     17  C   UNL     1      38.485 -25.358 -14.126  0.00  0.00    +0.138 C 
ATOM     18  C   UNL     1      37.589 -26.311 -14.916  0.00  0.00    +0.044 C 
ATOM     19  C   UNL     1      38.120 -25.383 -12.642  0.00  0.00    +0.044 C 
ATOM     20  C   UNL     1      39.959 -25.706 -14.324  0.00  0.00    +0.044 C 
ENDBRANCH  16  17
ENDBRANCH  14  16
ENDBRANCH  11  13
ENDBRANCH   9  11
ENDBRANCH   4   8
BRANCH   1  21
ATOM     21  C   UNL     1      35.399 -19.436 -21.905  0.00  0.00    +0.054 C 
BRANCH  21  24
ATOM     22  O   UNL     1      34.575 -15.741 -21.888  0.00  0.00    -0.421 OA
ATOM     23  O   UNL     1      35.345 -17.174 -20.298  0.00  0.00    -0.245 OA
ATOM     24  C   UNL     1      34.956 -18.107 -22.454  0.00  0.00    +0.091 A 
ATOM     25  C   UNL     1      34.557 -17.874 -23.719  0.00  0.00    +0.139 A 
ATOM     26  C   UNL     1      34.981 -16.997 -21.457  0.00  0.00    +0.345 A 
ATOM     27  C   UNL     1      34.135 -16.537 -24.141  0.00  0.00    +0.068 A 
ATOM     28  C   UNL     1      34.156 -15.506 -23.209  0.00  0.00    +0.152 A 
ATOM     29  C   UNL     1      33.707 -16.235 -25.442  0.00  0.00    +0.006 C 
ATOM     30  C   UNL     1      33.770 -14.203 -23.529  0.00  0.00    +0.038 C 
ATOM     31  C   UNL     1      33.317 -14.935 -25.780  0.00  0.00    +0.000 C 
ATOM     32  C   UNL     1      33.347 -13.921 -24.824  0.00  0.00    +0.003 C 
BRANCH  25  33
ATOM     33  O   UNL     1      34.507 -18.830 -24.711  0.00  0.00    -0.506 OA
ATOM     34  H   UNL     1      33.722 -19.324 -24.847  0.00  0.00    +0.292 HD
ENDBRANCH  25  33
ENDBRANCH  21  24
BRANCH  21  35
ATOM     35  C   UNL     1      36.755 -19.280 -21.184  0.00  0.00    +0.009 C 
ATOM     36  C   UNL     1      37.880 -18.852 -22.121  0.00  0.00    +0.001 C 
ENDBRANCH  21  35
ENDBRANCH   1  21
TORSDOF 9
ENDMDL
MODEL 4
REMARK VINA RESULT:     -10.2      2.513      9.347
REMARK  Name = 54689025
REMARK  9 active torsions:
REMARK  status: ('A' for Active; 'I' for Inactive)
REMARK    1  A    between atoms: C_1  and  C_21
REMARK    2  A    between atoms: C_4  and  N_8
REMARK    3  A    between atoms: C_9  and  C_11
REMARK    4  A    between atoms: C_11  and  N_13
REMARK    5  A    between atoms: C_14  and  O_16
REMARK    6  A    between atoms: O_16  and  C_17
REMARK    7  A    between atoms: C_21  and  C_24
REMARK    8  A    between atoms: C_21  and  C_35
REMARK    9  A    between atoms: C_25  and  O_33
REMARK                            x       y       z     vdW  Elec       q    Type
REMARK                         _______ _______ _______ _____ _____    ______ ____
ROOT
ATOM      1  C   UNL     1      32.887 -12.171 -26.380  0.00  0.00    -0.017 C 
ATOM      2  C   UNL     1      33.427 -13.427 -26.105  0.00  0.00    +0.011 C 
ATOM      3  C   UNL     1      31.795 -12.054 -27.241  0.00  0.00    -0.004 C 
ATOM      4  C   UNL     1      32.876 -14.567 -26.691  0.00  0.00    +0.050 C 
ATOM      5  C   UNL     1      31.245 -13.193 -27.828  0.00  0.00    +0.001 C 
ATOM      6  C   UNL     1      31.785 -14.449 -27.553  0.00  0.00    +0.015 C 
ENDROOT
BRANCH   4   8
ATOM      7  O   UNL     1      31.536 -17.122 -25.853  0.00  0.00    -0.273 OA
ATOM      8  N   UNL     1      33.416 -15.824 -26.418  0.00  0.00    -0.283 N 
ATOM      9  C   UNL     1      32.743 -16.993 -26.027  0.00  0.00    +0.246 C 
ATOM     10  H   UNL     1      34.393 -15.901 -26.512  0.00  0.00    +0.155 HD
BRANCH   9  11
ATOM     11  C   UNL     1      33.717 -18.141 -25.834  0.00  0.00    +0.179 C 
BRANCH  11  13
ATOM     12  O   UNL     1      34.929 -20.154 -24.126  0.00  0.00    -0.226 OA
ATOM     13  N   UNL     1      34.508 -17.933 -24.657  0.00  0.00    -0.262 N 
ATOM     14  C   UNL     1      35.052 -18.955 -23.896  0.00  0.00    +0.402 C 
ATOM     15  H   UNL     1      34.675 -17.006 -24.371  0.00  0.00    +0.153 HD
BRANCH  14  16
ATOM     16  O   UNL     1      35.750 -18.435 -22.842  0.00  0.00    -0.442 OA
BRANCH  16  17
ATOM     17  C   UNL     1      35.163 -18.625 -21.550  0.00  0.00    +0.138 C 
ATOM     18  C   UNL     1      33.832 -19.355 -21.723  0.00  0.00    +0.044 C 
ATOM     19  C   UNL     1      34.942 -17.242 -20.939  0.00  0.00    +0.044 C 
ATOM     20  C   UNL     1      36.127 -19.444 -20.694  0.00  0.00    +0.044 C 
ENDBRANCH  16  17
ENDBRANCH  14  16
ENDBRANCH  11  13
ENDBRANCH   9  11
ENDBRANCH   4   8
BRANCH   1  21
ATOM     21  C   UNL     1      33.486 -10.931 -25.741  0.00  0.00    +0.054 C 
BRANCH  21  24
ATOM     22  O   UNL     1      31.608  -8.888 -23.166  0.00  0.00    -0.421 OA
ATOM     23  O   UNL     1      32.305  -8.461 -25.289  0.00  0.00    -0.245 OA
ATOM     24  C   UNL     1      32.814 -10.623 -24.431  0.00  0.00    +0.091 A 
ATOM     25  C   UNL     1      32.713 -11.464 -23.384  0.00  0.00    +0.139 A 
ATOM     26  C   UNL     1      32.236  -9.250 -24.351  0.00  0.00    +0.345 A 
ATOM     27  C   UNL     1      32.043 -11.052 -22.149  0.00  0.00    +0.068 A 
ATOM     28  C   UNL     1      31.508  -9.770 -22.077  0.00  0.00    +0.152 A 
ATOM     29  C   UNL     1      31.910 -11.881 -21.027  0.00  0.00    +0.006 C 
ATOM     30  C   UNL     1      30.855  -9.298 -20.937  0.00  0.00    +0.038 C 
ATOM     31  C   UNL     1      31.257 -11.424 -19.876  0.00  0.00    +0.000 C 
ATOM     32  C   UNL     1      30.732 -10.134 -19.831  0.00  0.00    +0.003 C 
BRANCH  25  33
ATOM     33  O   UNL     1      33.207 -12.752 -23.365  0.00  0.00    -0.506 OA
ATOM     34  H   UNL     1      33.134 -13.270 -22.588  0.00  0.00    +0.292 HD
ENDBRANCH  25  33
ENDBRANCH  21  24
BRANCH  21  35
ATOM     35  C   UNL     1      35.014 -11.014 -25.541  0.00  0.00    +0.009 C 
ATOM     36  C   UNL     1      35.664  -9.647 -25.357  0.00  0.00    +0.001 C 
ENDBRANCH  21  35
ENDBRANCH   1  21
TORSDOF 9
ENDMDL
MODEL 5
REMARK VINA RESULT:     -10.1      3.864     11.224
REMARK  Name = 54689025
REMARK  9 active torsions:
REMARK  status: ('A' for Active; 'I' for Inactive)
REMARK    1  A    between atoms: C_1  and  C_21
REMARK    2  A    between atoms: C_4  and  N_8
REMARK    3  A    between atoms: C_9  and  C_11
REMARK    4  A    between atoms: C_11  and  N_13
REMARK    5  A    between atoms: C_14  and  O_16
REMARK    6  A    between atoms: O_16  and  C_17
REMARK    7  A    between atoms: C_21  and  C_24
REMARK    8  A    between atoms: C_21  and  C_35
REMARK    9  A    between atoms: C_25  and  O_33
REMARK                            x       y       z     vdW  Elec       q    Type
REMARK                         _______ _______ _______ _____ _____    ______ ____
ROOT
ATOM      1  C   UNL     1      33.437  -9.683 -23.598  0.00  0.00    -0.017 C 
ATOM      2  C   UNL     1      33.055 -10.828 -24.296  0.00  0.00    +0.011 C 
ATOM      3  C   UNL     1      34.596  -8.998 -23.962  0.00  0.00    -0.004 C 
ATOM      4  C   UNL     1      33.831 -11.288 -25.360  0.00  0.00    +0.050 C 
ATOM      5  C   UNL     1      35.373  -9.458 -25.025  0.00  0.00    +0.001 C 
ATOM      6  C   UNL     1      34.990 -10.603 -25.724  0.00  0.00    +0.015 C 
ENDROOT
BRANCH   4   8
ATOM      7  O   UNL     1      31.750 -11.666 -27.493  0.00  0.00    -0.273 OA
ATOM      8  N   UNL     1      33.450 -12.434 -26.058  0.00  0.00    -0.283 N 
ATOM      9  C   UNL     1      32.465 -12.559 -27.051  0.00  0.00    +0.246 C 
ATOM     10  H   UNL     1      33.934 -13.260 -25.826  0.00  0.00    +0.155 HD
BRANCH   9  11
ATOM     11  C   UNL     1      32.376 -13.990 -27.550  0.00  0.00    +0.179 C 
BRANCH  11  13
ATOM     12  O   UNL     1      32.057 -16.877 -27.612  0.00  0.00    -0.226 OA
ATOM     13  N   UNL     1      32.471 -14.909 -26.453  0.00  0.00    -0.262 N 
ATOM     14  C   UNL     1      32.304 -16.279 -26.570  0.00  0.00    +0.402 C 
ATOM     15  H   UNL     1      32.668 -14.542 -25.560  0.00  0.00    +0.153 HD
BRANCH  14  16
ATOM     16  O   UNL     1      32.456 -16.875 -25.350  0.00  0.00    -0.442 OA
BRANCH  16  17
ATOM     17  C   UNL     1      33.707 -17.536 -25.130  0.00  0.00    +0.138 C 
ATOM     18  C   UNL     1      33.609 -18.960 -25.675  0.00  0.00    +0.044 C 
ATOM     19  C   UNL     1      33.959 -17.553 -23.623  0.00  0.00    +0.044 C 
ATOM     20  C   UNL     1      34.804 -16.751 -25.850  0.00  0.00    +0.044 C 
ENDBRANCH  16  17
ENDBRANCH  14  16
ENDBRANCH  11  13
ENDBRANCH   9  11
ENDBRANCH   4   8
BRANCH   1  21
ATOM     21  C   UNL     1      32.591  -9.181 -22.441  0.00  0.00    +0.054 C 
BRANCH  21  24
ATOM     22  O   UNL     1      32.134  -5.499 -21.690  0.00  0.00    -0.421 OA
ATOM     23  O   UNL     1      33.111  -7.213 -20.556  0.00  0.00    -0.245 OA
ATOM     24  C   UNL     1      32.158  -7.758 -22.668  0.00  0.00    +0.091 A 
ATOM     25  C   UNL     1      31.506  -7.301 -23.754  0.00  0.00    +0.139 A 
ATOM     26  C   UNL     1      32.511  -6.829 -21.556  0.00  0.00    +0.345 A 
ATOM     27  C   UNL     1      31.123  -5.892 -23.864  0.00  0.00    +0.068 A 
ATOM     28  C   UNL     1      31.450  -5.029 -22.823  0.00  0.00    +0.152 A 
ATOM     29  C   UNL     1      30.441  -5.358 -24.966  0.00  0.00    +0.006 C 
ATOM     30  C   UNL     1      31.122  -3.672 -22.849  0.00  0.00    +0.038 C 
ATOM     31  C   UNL     1      30.105  -4.000 -25.008  0.00  0.00    +0.000 C 
ATOM     32  C   UNL     1      30.444  -3.159 -23.950  0.00  0.00    +0.003 C 
BRANCH  25  33
ATOM     33  O   UNL     1      31.144  -8.077 -24.835  0.00  0.00    -0.506 OA
ATOM     34  H   UNL     1      30.961  -8.989 -24.717  0.00  0.00    +0.292 HD
ENDBRANCH  25  33
ENDBRANCH  21  24
BRANCH  21  35
ATOM     35  C   UNL     1      31.360 -10.063 -22.146  0.00  0.00    +0.009 C 
ATOM     36  C   UNL     1      31.115 -10.262 -20.654  0.00  0.00    +0.001 C 
ENDBRANCH  21  35
ENDBRANCH   1  21
TORSDOF 9
ENDMDL
MODEL 6
REMARK VINA RESULT:     -10.1      2.920     11.635
REMARK  Name = 54689025
REMARK  9 active torsions:
REMARK  status: ('A' for Active; 'I' for Inactive)
REMARK    1  A    between atoms: C_1  and  C_21
REMARK    2  A    between atoms: C_4  and  N_8
REMARK    3  A    between atoms: C_9  and  C_11
REMARK    4  A    between atoms: C_11  and  N_13
REMARK    5  A    between atoms: C_14  and  O_16
REMARK    6  A    between atoms: O_16  and  C_17
REMARK    7  A    between atoms: C_21  and  C_24
REMARK    8  A    between atoms: C_21  and  C_35
REMARK    9  A    between atoms: C_25  and  O_33
REMARK                            x       y       z     vdW  Elec       q    Type
REMARK                         _______ _______ _______ _____ _____    ______ ____
ROOT
ATOM      1  C   UNL     1      33.353  -9.213 -23.197  0.00  0.00    -0.017 C 
ATOM      2  C   UNL     1      33.019 -10.449 -23.749  0.00  0.00    +0.011 C 
ATOM      3  C   UNL     1      34.483  -8.531 -23.647  0.00  0.00    -0.004 C 
ATOM      4  C   UNL     1      33.814 -11.003 -24.752  0.00  0.00    +0.050 C 
ATOM      5  C   UNL     1      35.279  -9.085 -24.649  0.00  0.00    +0.001 C 
ATOM      6  C   UNL     1      34.944 -10.321 -25.202  0.00  0.00    +0.015 C 
ENDROOT
BRANCH   4   8
ATOM      7  O   UNL     1      33.855 -13.752 -23.539  0.00  0.00    -0.273 OA
ATOM      8  N   UNL     1      33.480 -12.241 -25.304  0.00  0.00    -0.283 N 
ATOM      9  C   UNL     1      33.517 -13.504 -24.692  0.00  0.00    +0.246 C 
ATOM     10  H   UNL     1      33.179 -12.226 -26.242  0.00  0.00    +0.155 HD
BRANCH   9  11
ATOM     11  C   UNL     1      33.069 -14.587 -25.656  0.00  0.00    +0.179 C 
BRANCH  11  13
ATOM     12  O   UNL     1      34.183 -17.178 -26.357  0.00  0.00    -0.226 OA
ATOM     13  N   UNL     1      32.901 -15.832 -24.965  0.00  0.00    -0.262 N 
ATOM     14  C   UNL     1      33.470 -17.029 -25.369  0.00  0.00    +0.402 C 
ATOM     15  H   UNL     1      32.345 -15.837 -24.152  0.00  0.00    +0.153 HD
BRANCH  14  16
ATOM     16  O   UNL     1      33.123 -18.029 -24.504  0.00  0.00    -0.442 OA
BRANCH  16  17
ATOM     17  C   UNL     1      34.178 -18.531 -23.677  0.00  0.00    +0.138 C 
ATOM     18  C   UNL     1      34.924 -19.620 -24.446  0.00  0.00    +0.044 C 
ATOM     19  C   UNL     1      33.538 -19.107 -22.415  0.00  0.00    +0.044 C 
ATOM     20  C   UNL     1      35.113 -17.375 -23.325  0.00  0.00    +0.044 C 
ENDBRANCH  16  17
ENDBRANCH  14  16
ENDBRANCH  11  13
ENDBRANCH   9  11
ENDBRANCH   4   8
BRANCH   1  21
ATOM     21  C   UNL     1      32.487  -8.610 -22.106  0.00  0.00    +0.054 C 
BRANCH  21  24
ATOM     22  O   UNL     1      31.698  -4.921 -21.778  0.00  0.00    -0.421 OA
ATOM     23  O   UNL     1      32.690  -6.432 -20.397  0.00  0.00    -0.245 OA
ATOM     24  C   UNL     1      31.974  -7.255 -22.513  0.00  0.00    +0.091 A 
ATOM     25  C   UNL     1      31.390  -6.959 -23.690  0.00  0.00    +0.139 A 
ATOM     26  C   UNL     1      32.156  -6.197 -21.477  0.00  0.00    +0.345 A 
ATOM     27  C   UNL     1      30.918  -5.603 -23.976  0.00  0.00    +0.068 A 
ATOM     28  C   UNL     1      31.087  -4.620 -23.007  0.00  0.00    +0.152 A 
ATOM     29  C   UNL     1      30.301  -5.236 -25.180  0.00  0.00    +0.006 C 
ATOM     30  C   UNL     1      30.664  -3.303 -23.199  0.00  0.00    +0.038 C 
ATOM     31  C   UNL     1      29.872  -3.920 -25.390  0.00  0.00    +0.000 C 
ATOM     32  C   UNL     1      30.053  -2.956 -24.400  0.00  0.00    +0.003 C 
BRANCH  25  33
ATOM     33  O   UNL     1      31.185  -7.863 -24.711  0.00  0.00    -0.506 OA
ATOM     34  H   UNL     1      31.476  -8.749 -24.619  0.00  0.00    +0.292 HD
ENDBRANCH  25  33
ENDBRANCH  21  24
BRANCH  21  35
ATOM     35  C   UNL     1      31.309  -9.511 -21.681  0.00  0.00    +0.009 C 
ATOM     36  C   UNL     1      31.185  -9.653 -20.167  0.00  0.00    +0.001 C 
ENDBRANCH  21  35
ENDBRANCH   1  21
TORSDOF 9
ENDMDL
MODEL 7
REMARK VINA RESULT:      -9.9      2.286     11.258
REMARK  Name = 54689025
REMARK  9 active torsions:
REMARK  status: ('A' for Active; 'I' for Inactive)
REMARK    1  A    between atoms: C_1  and  C_21
REMARK    2  A    between atoms: C_4  and  N_8
REMARK    3  A    between atoms: C_9  and  C_11
REMARK    4  A    between atoms: C_11  and  N_13
REMARK    5  A    between atoms: C_14  and  O_16
REMARK    6  A    between atoms: O_16  and  C_17
REMARK    7  A    between atoms: C_21  and  C_24
REMARK    8  A    between atoms: C_21  and  C_35
REMARK    9  A    between atoms: C_25  and  O_33
REMARK                            x       y       z     vdW  Elec       q    Type
REMARK                         _______ _______ _______ _____ _____    ______ ____
ROOT
ATOM      1  C   UNL     1      33.029 -10.570 -24.020  0.00  0.00    -0.017 C 
ATOM      2  C   UNL     1      33.371 -11.842 -24.480  0.00  0.00    +0.011 C 
ATOM      3  C   UNL     1      32.194 -10.430 -22.911  0.00  0.00    -0.004 C 
ATOM      4  C   UNL     1      32.880 -12.974 -23.829  0.00  0.00    +0.050 C 
ATOM      5  C   UNL     1      31.703 -11.562 -22.261  0.00  0.00    +0.001 C 
ATOM      6  C   UNL     1      32.046 -12.834 -22.720  0.00  0.00    +0.015 C 
ENDROOT
BRANCH   4   8
ATOM      7  O   UNL     1      34.952 -14.911 -22.839  0.00  0.00    -0.273 OA
ATOM      8  N   UNL     1      33.221 -14.246 -24.289  0.00  0.00    -0.283 N 
ATOM      9  C   UNL     1      34.203 -15.116 -23.789  0.00  0.00    +0.246 C 
ATOM     10  H   UNL     1      32.707 -14.577 -25.061  0.00  0.00    +0.155 HD
BRANCH   9  11
ATOM     11  C   UNL     1      34.242 -16.407 -24.587  0.00  0.00    +0.179 C 
BRANCH  11  13
ATOM     12  O   UNL     1      33.067 -18.822 -23.481  0.00  0.00    -0.226 OA
ATOM     13  N   UNL     1      34.897 -17.439 -23.837  0.00  0.00    -0.262 N 
ATOM     14  C   UNL     1      34.258 -18.564 -23.343  0.00  0.00    +0.402 C 
ATOM     15  H   UNL     1      35.861 -17.341 -23.661  0.00  0.00    +0.153 HD
BRANCH  14  16
ATOM     16  O   UNL     1      35.151 -19.354 -22.674  0.00  0.00    -0.442 OA
BRANCH  16  17
ATOM     17  C   UNL     1      35.163 -19.213 -21.249  0.00  0.00    +0.138 C 
ATOM     18  C   UNL     1      34.911 -17.747 -20.903  0.00  0.00    +0.044 C 
ATOM     19  C   UNL     1      36.541 -19.653 -20.756  0.00  0.00    +0.044 C 
ATOM     20  C   UNL     1      34.072 -20.107 -20.663  0.00  0.00    +0.044 C 
ENDBRANCH  16  17
ENDBRANCH  14  16
ENDBRANCH  11  13
ENDBRANCH   9  11
ENDBRANCH   4   8
BRANCH   1  21
ATOM     21  C   UNL     1      33.564  -9.338 -24.727  0.00  0.00    +0.054 C 
BRANCH  21  24
ATOM     22  O   UNL     1      31.049  -6.569 -25.309  0.00  0.00    -0.421 OA
ATOM     23  O   UNL     1      31.812  -8.278 -26.601  0.00  0.00    -0.245 OA
ATOM     24  C   UNL     1      32.727  -8.129 -24.408  0.00  0.00    +0.091 A 
ATOM     25  C   UNL     1      32.730  -7.459 -23.240  0.00  0.00    +0.139 A 
ATOM     26  C   UNL     1      31.844  -7.686 -25.526  0.00  0.00    +0.345 A 
ATOM     27  C   UNL     1      31.879  -6.284 -23.043  0.00  0.00    +0.068 A 
ATOM     28  C   UNL     1      31.059  -5.872 -24.089  0.00  0.00    +0.152 A 
ATOM     29  C   UNL     1      31.842  -5.545 -21.852  0.00  0.00    +0.006 C 
ATOM     30  C   UNL     1      30.219  -4.763 -23.984  0.00  0.00    +0.038 C 
ATOM     31  C   UNL     1      31.004  -4.431 -21.731  0.00  0.00    +0.000 C 
ATOM     32  C   UNL     1      30.195  -4.040 -22.796  0.00  0.00    +0.003 C 
BRANCH  25  33
ATOM     33  O   UNL     1      33.503  -7.794 -22.148  0.00  0.00    -0.506 OA
ATOM     34  H   UNL     1      33.826  -7.124 -21.578  0.00  0.00    +0.292 HD
ENDBRANCH  25  33
ENDBRANCH  21  24
BRANCH  21  35
ATOM     35  C   UNL     1      35.047  -9.045 -24.423  0.00  0.00    +0.009 C 
ATOM     36  C   UNL     1      36.000  -9.721 -25.404  0.00  0.00    +0.001 C 
ENDBRANCH  21  35
ENDBRANCH   1  21
TORSDOF 9
ENDMDL
MODEL 8
REMARK VINA RESULT:      -9.8      1.031      2.146
REMARK  Name = 54689025
REMARK  9 active torsions:
REMARK  status: ('A' for Active; 'I' for Inactive)
REMARK    1  A    between atoms: C_1  and  C_21
REMARK    2  A    between atoms: C_4  and  N_8
REMARK    3  A    between atoms: C_9  and  C_11
REMARK    4  A    between atoms: C_11  and  N_13
REMARK    5  A    between atoms: C_14  and  O_16
REMARK    6  A    between atoms: O_16  and  C_17
REMARK    7  A    between atoms: C_21  and  C_24
REMARK    8  A    between atoms: C_21  and  C_35
REMARK    9  A    between atoms: C_25  and  O_33
REMARK                            x       y       z     vdW  Elec       q    Type
REMARK                         _______ _______ _______ _____ _____    ______ ____
ROOT
ATOM      1  C   UNL     1      34.715 -17.323 -22.298  0.00  0.00    -0.017 C 
ATOM      2  C   UNL     1      34.257 -16.459 -23.291  0.00  0.00    +0.011 C 
ATOM      3  C   UNL     1      34.887 -16.859 -20.994  0.00  0.00    -0.004 C 
ATOM      4  C   UNL     1      33.970 -15.129 -22.981  0.00  0.00    +0.050 C 
ATOM      5  C   UNL     1      34.601 -15.529 -20.684  0.00  0.00    +0.001 C 
ATOM      6  C   UNL     1      34.142 -14.665 -21.677  0.00  0.00    +0.015 C 
ENDROOT
BRANCH   4   8
ATOM      7  O   UNL     1      33.286 -15.656 -25.859  0.00  0.00    -0.273 OA
ATOM      8  N   UNL     1      33.513 -14.263 -23.975  0.00  0.00    -0.283 N 
ATOM      9  C   UNL     1      33.207 -14.560 -25.313  0.00  0.00    +0.246 C 
ATOM     10  H   UNL     1      33.387 -13.325 -23.703  0.00  0.00    +0.155 HD
BRANCH   9  11
ATOM     11  C   UNL     1      32.739 -13.319 -26.051  0.00  0.00    +0.179 C 
BRANCH  11  13
ATOM     12  O   UNL     1      33.659 -10.705 -26.923  0.00  0.00    -0.226 OA
ATOM     13  N   UNL     1      32.952 -12.150 -25.249  0.00  0.00    -0.262 N 
ATOM     14  C   UNL     1      33.395 -10.936 -25.747  0.00  0.00    +0.402 C 
ATOM     15  H   UNL     1      32.773 -12.215 -24.283  0.00  0.00    +0.153 HD
BRANCH  14  16
ATOM     16  O   UNL     1      33.497 -10.023 -24.735  0.00  0.00    -0.442 OA
BRANCH  16  17
ATOM     17  C   UNL     1      34.557  -9.069 -24.861  0.00  0.00    +0.138 C 
ATOM     18  C   UNL     1      34.748  -8.372 -23.515  0.00  0.00    +0.044 C 
ATOM     19  C   UNL     1      34.144  -8.062 -25.934  0.00  0.00    +0.044 C 
ATOM     20  C   UNL     1      35.829  -9.807 -25.278  0.00  0.00    +0.044 C 
ENDBRANCH  16  17
ENDBRANCH  14  16
ENDBRANCH  11  13
ENDBRANCH   9  11
ENDBRANCH   4   8
BRANCH   1  21
ATOM     21  C   UNL     1      35.026 -18.770 -22.635  0.00  0.00    +0.054 C 
BRANCH  21  24
ATOM     22  O   UNL     1      32.644 -20.798 -20.502  0.00  0.00    -0.421 OA
ATOM     23  O   UNL     1      32.361 -19.486 -22.339  0.00  0.00    -0.245 OA
ATOM     24  C   UNL     1      34.589 -19.688 -21.525  0.00  0.00    +0.091 A 
ATOM     25  C   UNL     1      35.398 -20.237 -20.599  0.00  0.00    +0.139 A 
ATOM     26  C   UNL     1      33.124 -19.966 -21.506  0.00  0.00    +0.345 A 
ATOM     27  C   UNL     1      34.860 -21.111 -19.554  0.00  0.00    +0.068 A 
ATOM     28  C   UNL     1      33.492 -21.366 -19.536  0.00  0.00    +0.152 A 
ATOM     29  C   UNL     1      35.649 -21.708 -18.561  0.00  0.00    +0.006 C 
ATOM     30  C   UNL     1      32.899 -22.185 -18.575  0.00  0.00    +0.038 C 
ATOM     31  C   UNL     1      35.071 -22.534 -17.590  0.00  0.00    +0.000 C 
ATOM     32  C   UNL     1      33.697 -22.770 -17.597  0.00  0.00    +0.003 C 
BRANCH  25  33
ATOM     33  O   UNL     1      36.762 -20.047 -20.538  0.00  0.00    -0.506 OA
ATOM     34  H   UNL     1      37.330 -20.543 -21.094  0.00  0.00    +0.292 HD
ENDBRANCH  25  33
ENDBRANCH  21  24
BRANCH  21  35
ATOM     35  C   UNL     1      34.418 -19.239 -23.973  0.00  0.00    +0.009 C 
ATOM     36  C   UNL     1      35.204 -20.376 -24.618  0.00  0.00    +0.001 C 
ENDBRANCH  21  35
ENDBRANCH   1  21
TORSDOF 9
ENDMDL
MODEL 9
REMARK VINA RESULT:      -9.7      2.495     10.719
REMARK  Name = 54689025
REMARK  9 active torsions:
REMARK  status: ('A' for Active; 'I' for Inactive)
REMARK    1  A    between atoms: C_1  and  C_21
REMARK    2  A    between atoms: C_4  and  N_8
REMARK    3  A    between atoms: C_9  and  C_11
REMARK    4  A    between atoms: C_11  and  N_13
REMARK    5  A    between atoms: C_14  and  O_16
REMARK    6  A    between atoms: O_16  and  C_17
REMARK    7  A    between atoms: C_21  and  C_24
REMARK    8  A    between atoms: C_21  and  C_35
REMARK    9  A    between atoms: C_25  and  O_33
REMARK                            x       y       z     vdW  Elec       q    Type
REMARK                         _______ _______ _______ _____ _____    ______ ____
ROOT
ATOM      1  C   UNL     1      33.256 -10.568 -26.025  0.00  0.00    -0.017 C 
ATOM      2  C   UNL     1      33.718 -11.324 -24.948  0.00  0.00    +0.011 C 
ATOM      3  C   UNL     1      32.506 -11.175 -27.033  0.00  0.00    -0.004 C 
ATOM      4  C   UNL     1      33.430 -12.686 -24.877  0.00  0.00    +0.050 C 
ATOM      5  C   UNL     1      32.219 -12.539 -26.962  0.00  0.00    +0.001 C 
ATOM      6  C   UNL     1      32.680 -13.294 -25.884  0.00  0.00    +0.015 C 
ENDROOT
BRANCH   4   8
ATOM      7  O   UNL     1      32.314 -13.016 -22.107  0.00  0.00    -0.273 OA
ATOM      8  N   UNL     1      33.892 -13.443 -23.800  0.00  0.00    -0.283 N 
ATOM      9  C   UNL     1      33.332 -13.563 -22.518  0.00  0.00    +0.246 C 
ATOM     10  H   UNL     1      34.716 -13.959 -23.959  0.00  0.00    +0.155 HD
BRANCH   9  11
ATOM     11  C   UNL     1      34.158 -14.494 -21.649  0.00  0.00    +0.179 C 
BRANCH  11  13
ATOM     12  O   UNL     1      34.983 -17.107 -20.685  0.00  0.00    -0.226 OA
ATOM     13  N   UNL     1      34.637 -15.604 -22.420  0.00  0.00    -0.262 N 
ATOM     14  C   UNL     1      35.012 -16.822 -21.878  0.00  0.00    +0.402 C 
ATOM     15  H   UNL     1      34.704 -15.493 -23.396  0.00  0.00    +0.153 HD
BRANCH  14  16
ATOM     16  O   UNL     1      35.422 -17.670 -22.869  0.00  0.00    -0.442 OA
BRANCH  16  17
ATOM     17  C   UNL     1      34.425 -18.566 -23.374  0.00  0.00    +0.138 C 
ATOM     18  C   UNL     1      33.593 -19.080 -22.200  0.00  0.00    +0.044 C 
ATOM     19  C   UNL     1      35.152 -19.720 -24.063  0.00  0.00    +0.044 C 
ATOM     20  C   UNL     1      33.551 -17.809 -24.372  0.00  0.00    +0.044 C 
ENDBRANCH  16  17
ENDBRANCH  14  16
ENDBRANCH  11  13
ENDBRANCH   9  11
ENDBRANCH   4   8
BRANCH   1  21
ATOM     21  C   UNL     1      33.569  -9.085 -26.102  0.00  0.00    +0.054 C 
BRANCH  21  24
ATOM     22  O   UNL     1      31.027  -6.931 -24.305  0.00  0.00    -0.421 OA
ATOM     23  O   UNL     1      31.188  -7.699 -26.440  0.00  0.00    -0.245 OA
ATOM     24  C   UNL     1      32.936  -8.341 -24.957  0.00  0.00    +0.091 A 
ATOM     25  C   UNL     1      33.425  -8.268 -23.704  0.00  0.00    +0.139 A 
ATOM     26  C   UNL     1      31.664  -7.647 -25.310  0.00  0.00    +0.345 A 
ATOM     27  C   UNL     1      32.728  -7.504 -22.667  0.00  0.00    +0.068 A 
ATOM     28  C   UNL     1      31.544  -6.855 -23.001  0.00  0.00    +0.152 A 
ATOM     29  C   UNL     1      33.189  -7.389 -21.349  0.00  0.00    +0.006 C 
ATOM     30  C   UNL     1      30.818  -6.106 -22.073  0.00  0.00    +0.038 C 
ATOM     31  C   UNL     1      32.473  -6.642 -20.406  0.00  0.00    +0.000 C 
ATOM     32  C   UNL     1      31.290  -6.001 -20.768  0.00  0.00    +0.003 C 
BRANCH  25  33
ATOM     33  O   UNL     1      34.586  -8.880 -23.280  0.00  0.00    -0.506 OA
ATOM     34  H   UNL     1      35.382  -8.757 -23.758  0.00  0.00    +0.292 HD
ENDBRANCH  25  33
ENDBRANCH  21  24
BRANCH  21  35
ATOM     35  C   UNL     1      35.079  -8.772 -26.160  0.00  0.00    +0.009 C 
ATOM     36  C   UNL     1      35.402  -7.564 -27.032  0.00  0.00    +0.001 C 
ENDBRANCH  21  35
ENDBRANCH   1  21
TORSDOF 9
ENDMDL
