MODEL 1
REMARK VINA RESULT:     -12.1      0.000      0.000
REMARK  Name = 448841
REMARK  3 active torsions:
REMARK  status: ('A' for Active; 'I' for Inactive)
REMARK    1  A    between atoms: C_1  and  C_17
REMARK    2  A    between atoms: C_9  and  C_13
REMARK    3  A    between atoms: C_18  and  C_20
REMARK                            x       y       z     vdW  Elec       q    Type
REMARK                         _______ _______ _______ _____ _____    ______ ____
ROOT
ATOM      1  C   UNL     1      34.654 -16.525 -22.326  0.00  0.00    -0.022 C 
ATOM      2  C   UNL     1      34.321 -16.734 -23.664  0.00  0.00    -0.004 C 
ATOM      3  C   UNL     1      34.542 -15.253 -21.770  0.00  0.00    -0.004 C 
ATOM      4  C   UNL     1      33.871 -15.673 -24.466  0.00  0.00    -0.000 C 
ATOM      5  C   UNL     1      34.097 -14.186 -22.553  0.00  0.00    -0.000 C 
ATOM      6  C   UNL     1      33.757 -14.379 -23.902  0.00  0.00    +0.000 C 
ATOM      7  C   UNL     1      33.532 -15.865 -25.815  0.00  0.00    +0.000 C 
ATOM      8  C   UNL     1      33.308 -13.318 -24.703  0.00  0.00    +0.003 C 
ATOM      9  C   UNL     1      32.974 -13.527 -26.042  0.00  0.00    +0.031 C 
ATOM     10  C   UNL     1      33.086 -14.799 -26.596  0.00  0.00    +0.003 C 
ENDROOT
BRANCH   9  13
ATOM     11  N   UNL     1      32.636 -11.097 -26.427  0.00  0.00    -0.343 N 
ATOM     12  N   UNL     1      31.951 -12.652 -28.032  0.00  0.00    -0.285 NA
ATOM     13  C   UNL     1      32.510 -12.417 -26.858  0.00  0.00    +0.117 C 
ATOM     14  H   UNL     1      32.314 -10.361 -26.996  0.00  0.00    +0.144 HD
ATOM     15  H   UNL     1      33.046 -10.902 -25.554  0.00  0.00    +0.144 HD
ATOM     16  H   UNL     1      31.637 -11.901 -28.586  0.00  0.00    +0.188 HD
ENDBRANCH   9  13
BRANCH   1  17
ATOM     17  C   UNL     1      35.129 -17.662 -21.490  0.00  0.00    +0.027 C 
ATOM     18  C   UNL     1      34.828 -19.064 -21.920  0.00  0.00    +0.027 C 
ATOM     19  C   UNL     1      36.231 -18.536 -22.004  0.00  0.00    +0.009 C 
BRANCH  18  20
ATOM     20  C   UNL     1      34.494 -20.083 -20.894  0.00  0.00    -0.022 C 
ATOM     21  C   UNL     1      35.509 -20.833 -20.291  0.00  0.00    -0.004 C 
ATOM     22  C   UNL     1      33.164 -20.301 -20.525  0.00  0.00    -0.004 C 
ATOM     23  C   UNL     1      35.195 -21.792 -19.328  0.00  0.00    -0.000 C 
ATOM     24  C   UNL     1      32.850 -21.260 -19.563  0.00  0.00    -0.000 C 
ATOM     25  C   UNL     1      33.866 -22.006 -18.965  0.00  0.00    -0.000 C 
ENDBRANCH  18  20
ENDBRANCH   1  17
TORSDOF 3
ENDMDL
MODEL 2
REMARK VINA RESULT:     -12.0      6.129     10.428
REMARK  Name = 448841
REMARK  3 active torsions:
REMARK  status: ('A' for Active; 'I' for Inactive)
REMARK    1  A    between atoms: C_1  and  C_17
REMARK    2  A    between atoms: C_9  and  C_13
REMARK    3  A    between atoms: C_18  and  C_20
REMARK                            x       y       z     vdW  Elec       q    Type
REMARK                         _______ _______ _______ _____ _____    ______ ____
ROOT
ATOM      1  C   UNL     1      34.877 -21.334 -19.601  0.00  0.00    -0.022 C 
ATOM      2  C   UNL     1      35.735 -21.598 -18.533  0.00  0.00    -0.004 C 
ATOM      3  C   UNL     1      33.556 -21.773 -19.558  0.00  0.00    -0.004 C 
ATOM      4  C   UNL     1      35.283 -22.305 -17.407  0.00  0.00    -0.000 C 
ATOM      5  C   UNL     1      33.090 -22.477 -18.447  0.00  0.00    -0.000 C 
ATOM      6  C   UNL     1      33.940 -22.751 -17.363  0.00  0.00    +0.000 C 
ATOM      7  C   UNL     1      36.133 -22.579 -16.324  0.00  0.00    +0.000 C 
ATOM      8  C   UNL     1      33.487 -23.458 -16.238  0.00  0.00    +0.003 C 
ATOM      9  C   UNL     1      34.346 -23.721 -15.170  0.00  0.00    +0.031 C 
ATOM     10  C   UNL     1      35.666 -23.282 -15.213  0.00  0.00    +0.003 C 
ENDROOT
BRANCH   9  13
ATOM     11  N   UNL     1      32.561 -24.955 -13.961  0.00  0.00    -0.343 N 
ATOM     12  N   UNL     1      34.659 -24.652 -12.977  0.00  0.00    -0.285 NA
ATOM     13  C   UNL     1      33.862 -24.454 -14.011  0.00  0.00    +0.117 C 
ATOM     14  H   UNL     1      32.254 -25.448 -13.166  0.00  0.00    +0.144 HD
ATOM     15  H   UNL     1      31.951 -24.814 -14.720  0.00  0.00    +0.144 HD
ATOM     16  H   UNL     1      34.333 -25.149 -12.192  0.00  0.00    +0.188 HD
ENDBRANCH   9  13
BRANCH   1  17
ATOM     17  C   UNL     1      35.373 -20.584 -20.788  0.00  0.00    +0.027 C 
ATOM     18  C   UNL     1      35.160 -19.104 -20.859  0.00  0.00    +0.027 C 
ATOM     19  C   UNL     1      36.537 -19.655 -20.630  0.00  0.00    +0.009 C 
BRANCH  18  20
ATOM     20  C   UNL     1      34.835 -18.479 -22.166  0.00  0.00    -0.022 C 
ATOM     21  C   UNL     1      34.390 -19.268 -23.231  0.00  0.00    -0.004 C 
ATOM     22  C   UNL     1      34.973 -17.099 -22.341  0.00  0.00    -0.004 C 
ATOM     23  C   UNL     1      34.086 -18.682 -24.461  0.00  0.00    -0.000 C 
ATOM     24  C   UNL     1      34.669 -16.513 -23.570  0.00  0.00    -0.000 C 
ATOM     25  C   UNL     1      34.226 -17.305 -24.629  0.00  0.00    -0.000 C 
ENDBRANCH  18  20
ENDBRANCH   1  17
TORSDOF 3
ENDMDL
MODEL 3
REMARK VINA RESULT:     -11.8      4.536      7.972
REMARK  Name = 448841
REMARK  3 active torsions:
REMARK  status: ('A' for Active; 'I' for Inactive)
REMARK    1  A    between atoms: C_1  and  C_17
REMARK    2  A    between atoms: C_9  and  C_13
REMARK    3  A    between atoms: C_18  and  C_20
REMARK                            x       y       z     vdW  Elec       q    Type
REMARK                         _______ _______ _______ _____ _____    ______ ____
ROOT
ATOM      1  C   UNL     1      34.231 -22.727 -17.598  0.00  0.00    -0.022 C 
ATOM      2  C   UNL     1      35.334 -22.078 -18.153  0.00  0.00    -0.004 C 
ATOM      3  C   UNL     1      32.965 -22.539 -18.145  0.00  0.00    -0.004 C 
ATOM      4  C   UNL     1      35.185 -21.231 -19.263  0.00  0.00    -0.000 C 
ATOM      5  C   UNL     1      32.798 -21.701 -19.248  0.00  0.00    -0.000 C 
ATOM      6  C   UNL     1      33.897 -21.039 -19.819  0.00  0.00    +0.000 C 
ATOM      7  C   UNL     1      36.284 -20.569 -19.833  0.00  0.00    +0.000 C 
ATOM      8  C   UNL     1      33.747 -20.193 -20.929  0.00  0.00    +0.003 C 
ATOM      9  C   UNL     1      34.851 -19.544 -21.484  0.00  0.00    +0.031 C 
ATOM     10  C   UNL     1      36.117 -19.732 -20.937  0.00  0.00    +0.003 C 
ENDROOT
BRANCH   9  13
ATOM     11  N   UNL     1      35.697 -17.817 -23.055  0.00  0.00    -0.343 N 
ATOM     12  N   UNL     1      33.537 -18.675 -23.299  0.00  0.00    -0.285 NA
ATOM     13  C   UNL     1      34.679 -18.671 -22.634  0.00  0.00    +0.117 C 
ATOM     14  H   UNL     1      35.559 -17.234 -23.836  0.00  0.00    +0.144 HD
ATOM     15  H   UNL     1      36.554 -17.796 -22.571  0.00  0.00    +0.144 HD
ATOM     16  H   UNL     1      33.419 -18.084 -24.078  0.00  0.00    +0.188 HD
ENDBRANCH   9  13
BRANCH   1  17
ATOM     17  C   UNL     1      34.408 -23.621 -16.420  0.00  0.00    +0.027 C 
ATOM     18  C   UNL     1      35.174 -23.126 -15.233  0.00  0.00    +0.027 C 
ATOM     19  C   UNL     1      33.686 -23.304 -15.147  0.00  0.00    +0.009 C 
BRANCH  18  20
ATOM     20  C   UNL     1      36.062 -24.062 -14.500  0.00  0.00    -0.022 C 
ATOM     21  C   UNL     1      36.232 -25.373 -14.955  0.00  0.00    -0.004 C 
ATOM     22  C   UNL     1      36.734 -23.640 -13.349  0.00  0.00    -0.004 C 
ATOM     23  C   UNL     1      37.064 -26.254 -14.265  0.00  0.00    -0.000 C 
ATOM     24  C   UNL     1      37.566 -24.520 -12.658  0.00  0.00    -0.000 C 
ATOM     25  C   UNL     1      37.731 -25.828 -13.116  0.00  0.00    -0.000 C 
ENDBRANCH  18  20
ENDBRANCH   1  17
TORSDOF 3
ENDMDL
MODEL 4
REMARK VINA RESULT:     -11.7      5.798     10.000
REMARK  Name = 448841
REMARK  3 active torsions:
REMARK  status: ('A' for Active; 'I' for Inactive)
REMARK    1  A    between atoms: C_1  and  C_17
REMARK    2  A    between atoms: C_9  and  C_13
REMARK    3  A    between atoms: C_18  and  C_20
REMARK                            x       y       z     vdW  Elec       q    Type
REMARK                         _______ _______ _______ _____ _____    ______ ____
ROOT
ATOM      1  C   UNL     1      34.842 -20.700 -20.261  0.00  0.00    -0.022 C 
ATOM      2  C   UNL     1      35.791 -21.008 -19.287  0.00  0.00    -0.004 C 
ATOM      3  C   UNL     1      33.540 -21.178 -20.140  0.00  0.00    -0.004 C 
ATOM      4  C   UNL     1      35.451 -21.798 -18.177  0.00  0.00    -0.000 C 
ATOM      5  C   UNL     1      33.184 -21.964 -19.043  0.00  0.00    -0.000 C 
ATOM      6  C   UNL     1      34.127 -22.284 -18.053  0.00  0.00    +0.000 C 
ATOM      7  C   UNL     1      36.394 -22.118 -17.187  0.00  0.00    +0.000 C 
ATOM      8  C   UNL     1      33.785 -23.073 -16.944  0.00  0.00    +0.003 C 
ATOM      9  C   UNL     1      34.736 -23.381 -15.969  0.00  0.00    +0.031 C 
ATOM     10  C   UNL     1      36.037 -22.904 -16.091  0.00  0.00    +0.003 C 
ENDROOT
BRANCH   9  13
ATOM     11  N   UNL     1      34.939 -25.453 -14.616  0.00  0.00    -0.343 N 
ATOM     12  N   UNL     1      33.467 -23.760 -13.964  0.00  0.00    -0.285 NA
ATOM     13  C   UNL     1      34.366 -24.200 -14.826  0.00  0.00    +0.117 C 
ATOM     14  H   UNL     1      34.674 -25.991 -13.835  0.00  0.00    +0.144 HD
ATOM     15  H   UNL     1      35.609 -25.800 -15.249  0.00  0.00    +0.144 HD
ATOM     16  H   UNL     1      33.216 -24.313 -13.189  0.00  0.00    +0.188 HD
ENDBRANCH   9  13
BRANCH   1  17
ATOM     17  C   UNL     1      35.221 -19.862 -21.432  0.00  0.00    +0.027 C 
ATOM     18  C   UNL     1      35.074 -18.374 -21.345  0.00  0.00    +0.027 C 
ATOM     19  C   UNL     1      36.440 -18.996 -21.347  0.00  0.00    +0.009 C 
BRANCH  18  20
ATOM     20  C   UNL     1      34.617 -17.619 -22.538  0.00  0.00    -0.022 C 
ATOM     21  C   UNL     1      34.751 -16.228 -22.584  0.00  0.00    -0.004 C 
ATOM     22  C   UNL     1      34.049 -18.292 -23.623  0.00  0.00    -0.004 C 
ATOM     23  C   UNL     1      34.320 -15.517 -23.704  0.00  0.00    -0.000 C 
ATOM     24  C   UNL     1      33.617 -17.582 -24.743  0.00  0.00    -0.000 C 
ATOM     25  C   UNL     1      33.753 -16.194 -24.783  0.00  0.00    -0.000 C 
ENDBRANCH  18  20
ENDBRANCH   1  17
TORSDOF 3
ENDMDL
MODEL 5
REMARK VINA RESULT:     -11.7      0.613      1.903
REMARK  Name = 448841
REMARK  3 active torsions:
REMARK  status: ('A' for Active; 'I' for Inactive)
REMARK    1  A    between atoms: C_1  and  C_17
REMARK    2  A    between atoms: C_9  and  C_13
REMARK    3  A    between atoms: C_18  and  C_20
REMARK                            x       y       z     vdW  Elec       q    Type
REMARK                         _______ _______ _______ _____ _____    ______ ____
ROOT
ATOM      1  C   UNL     1      34.484 -16.930 -22.916  0.00  0.00    -0.022 C 
ATOM      2  C   UNL     1      34.419 -15.558 -22.671  0.00  0.00    -0.004 C 
ATOM      3  C   UNL     1      34.097 -17.436 -24.154  0.00  0.00    -0.004 C 
ATOM      4  C   UNL     1      33.966 -14.673 -23.663  0.00  0.00    -0.000 C 
ATOM      5  C   UNL     1      33.645 -16.571 -25.151  0.00  0.00    -0.000 C 
ATOM      6  C   UNL     1      33.573 -15.188 -24.923  0.00  0.00    +0.000 C 
ATOM      7  C   UNL     1      33.893 -13.290 -23.434  0.00  0.00    +0.000 C 
ATOM      8  C   UNL     1      33.121 -14.304 -25.915  0.00  0.00    +0.003 C 
ATOM      9  C   UNL     1      33.056 -12.931 -25.670  0.00  0.00    +0.031 C 
ATOM     10  C   UNL     1      33.442 -12.426 -24.432  0.00  0.00    +0.003 C 
ENDROOT
BRANCH   9  13
ATOM     11  N   UNL     1      32.576 -10.648 -26.520  0.00  0.00    -0.343 N 
ATOM     12  N   UNL     1      32.151 -12.516 -27.858  0.00  0.00    -0.285 NA
ATOM     13  C   UNL     1      32.585 -12.029 -26.708  0.00  0.00    +0.117 C 
ATOM     14  H   UNL     1      32.253 -10.055 -27.236  0.00  0.00    +0.144 HD
ATOM     15  H   UNL     1      32.892 -10.265 -25.670  0.00  0.00    +0.144 HD
ATOM     16  H   UNL     1      31.832 -11.906 -28.562  0.00  0.00    +0.188 HD
ENDBRANCH   9  13
BRANCH   1  17
ATOM     17  C   UNL     1      34.966 -17.854 -21.852  0.00  0.00    +0.027 C 
ATOM     18  C   UNL     1      34.904 -19.332 -22.082  0.00  0.00    +0.027 C 
ATOM     19  C   UNL     1      36.229 -18.627 -22.073  0.00  0.00    +0.009 C 
BRANCH  18  20
ATOM     20  C   UNL     1      34.549 -20.229 -20.954  0.00  0.00    -0.022 C 
ATOM     21  C   UNL     1      33.214 -20.371 -20.562  0.00  0.00    -0.004 C 
ATOM     22  C   UNL     1      35.546 -20.936 -20.276  0.00  0.00    -0.004 C 
ATOM     23  C   UNL     1      32.880 -21.212 -19.500  0.00  0.00    -0.000 C 
ATOM     24  C   UNL     1      35.212 -21.777 -19.214  0.00  0.00    -0.000 C 
ATOM     25  C   UNL     1      33.879 -21.914 -18.827  0.00  0.00    -0.000 C 
ENDBRANCH  18  20
ENDBRANCH   1  17
TORSDOF 3
ENDMDL
MODEL 6
REMARK VINA RESULT:     -11.5      4.742      8.631
REMARK  Name = 448841
REMARK  3 active torsions:
REMARK  status: ('A' for Active; 'I' for Inactive)
REMARK    1  A    between atoms: C_1  and  C_17
REMARK    2  A    between atoms: C_9  and  C_13
REMARK    3  A    between atoms: C_18  and  C_20
REMARK                            x       y       z     vdW  Elec       q    Type
REMARK                         _______ _______ _______ _____ _____    ______ ____
ROOT
ATOM      1  C   UNL     1      34.933 -18.441 -22.716  0.00  0.00    -0.022 C 
ATOM      2  C   UNL     1      33.786 -19.038 -22.195  0.00  0.00    -0.004 C 
ATOM      3  C   UNL     1      36.180 -18.729 -22.169  0.00  0.00    -0.004 C 
ATOM      4  C   UNL     1      33.871 -19.933 -21.115  0.00  0.00    -0.000 C 
ATOM      5  C   UNL     1      36.283 -19.617 -21.096  0.00  0.00    -0.000 C 
ATOM      6  C   UNL     1      35.138 -20.227 -20.558  0.00  0.00    +0.000 C 
ATOM      7  C   UNL     1      32.726 -20.543 -20.577  0.00  0.00    +0.000 C 
ATOM      8  C   UNL     1      35.224 -21.121 -19.479  0.00  0.00    +0.003 C 
ATOM      9  C   UNL     1      34.076 -21.719 -18.957  0.00  0.00    +0.031 C 
ATOM     10  C   UNL     1      32.830 -21.430 -19.505  0.00  0.00    +0.003 C 
ENDROOT
BRANCH   9  13
ATOM     11  N   UNL     1      33.112 -23.458 -17.469  0.00  0.00    -0.343 N 
ATOM     12  N   UNL     1      35.307 -22.720 -17.152  0.00  0.00    -0.285 NA
ATOM     13  C   UNL     1      34.181 -22.643 -17.840  0.00  0.00    +0.117 C 
ATOM     14  H   UNL     1      33.206 -24.076 -16.709  0.00  0.00    +0.144 HD
ATOM     15  H   UNL     1      32.264 -23.413 -17.967  0.00  0.00    +0.144 HD
ATOM     16  H   UNL     1      35.380 -23.346 -16.395  0.00  0.00    +0.188 HD
ENDBRANCH   9  13
BRANCH   1  17
ATOM     17  C   UNL     1      34.825 -17.494 -23.861  0.00  0.00    +0.027 C 
ATOM     18  C   UNL     1      33.634 -16.591 -23.954  0.00  0.00    +0.027 C 
ATOM     19  C   UNL     1      34.981 -16.025 -23.611  0.00  0.00    +0.009 C 
BRANCH  18  20
ATOM     20  C   UNL     1      33.042 -16.305 -25.284  0.00  0.00    -0.022 C 
ATOM     21  C   UNL     1      32.255 -17.266 -25.926  0.00  0.00    -0.004 C 
ATOM     22  C   UNL     1      33.268 -15.073 -25.905  0.00  0.00    -0.004 C 
ATOM     23  C   UNL     1      31.701 -16.998 -27.178  0.00  0.00    -0.000 C 
ATOM     24  C   UNL     1      32.714 -14.805 -27.157  0.00  0.00    -0.000 C 
ATOM     25  C   UNL     1      31.931 -15.768 -27.793  0.00  0.00    -0.000 C 
ENDBRANCH  18  20
ENDBRANCH   1  17
TORSDOF 3
ENDMDL
MODEL 7
REMARK VINA RESULT:     -11.5      6.150     10.320
REMARK  Name = 448841
REMARK  3 active torsions:
REMARK  status: ('A' for Active; 'I' for Inactive)
REMARK    1  A    between atoms: C_1  and  C_17
REMARK    2  A    between atoms: C_9  and  C_13
REMARK    3  A    between atoms: C_18  and  C_20
REMARK                            x       y       z     vdW  Elec       q    Type
REMARK                         _______ _______ _______ _____ _____    ______ ____
ROOT
ATOM      1  C   UNL     1      35.300 -21.409 -19.261  0.00  0.00    -0.022 C 
ATOM      2  C   UNL     1      34.007 -21.866 -19.008  0.00  0.00    -0.004 C 
ATOM      3  C   UNL     1      36.300 -21.584 -18.308  0.00  0.00    -0.004 C 
ATOM      4  C   UNL     1      33.695 -22.505 -17.797  0.00  0.00    -0.000 C 
ATOM      5  C   UNL     1      36.008 -22.217 -17.098  0.00  0.00    -0.000 C 
ATOM      6  C   UNL     1      34.712 -22.683 -16.827  0.00  0.00    +0.000 C 
ATOM      7  C   UNL     1      32.399 -22.971 -17.526  0.00  0.00    +0.000 C 
ATOM      8  C   UNL     1      34.401 -23.322 -15.616  0.00  0.00    +0.003 C 
ATOM      9  C   UNL     1      33.107 -23.780 -15.363  0.00  0.00    +0.031 C 
ATOM     10  C   UNL     1      32.109 -23.604 -16.317  0.00  0.00    +0.003 C 
ENDROOT
BRANCH   9  13
ATOM     11  N   UNL     1      31.621 -25.160 -13.931  0.00  0.00    -0.343 N 
ATOM     12  N   UNL     1      33.652 -24.358 -13.095  0.00  0.00    -0.285 NA
ATOM     13  C   UNL     1      32.802 -24.439 -14.105  0.00  0.00    +0.117 C 
ATOM     14  H   UNL     1      31.435 -25.598 -13.070  0.00  0.00    +0.144 HD
ATOM     15  H   UNL     1      30.974 -25.229 -14.669  0.00  0.00    +0.144 HD
ATOM     16  H   UNL     1      33.446 -24.805 -12.242  0.00  0.00    +0.188 HD
ENDBRANCH   9  13
BRANCH   1  17
ATOM     17  C   UNL     1      35.612 -20.733 -20.551  0.00  0.00    +0.027 C 
ATOM     18  C   UNL     1      35.503 -19.243 -20.642  0.00  0.00    +0.027 C 
ATOM     19  C   UNL     1      36.852 -19.900 -20.658  0.00  0.00    +0.009 C 
BRANCH  18  20
ATOM     20  C   UNL     1      34.978 -18.628 -21.887  0.00  0.00    -0.022 C 
ATOM     21  C   UNL     1      34.335 -19.417 -22.845  0.00  0.00    -0.004 C 
ATOM     22  C   UNL     1      35.125 -17.256 -22.110  0.00  0.00    -0.004 C 
ATOM     23  C   UNL     1      33.844 -18.840 -24.016  0.00  0.00    -0.000 C 
ATOM     24  C   UNL     1      34.635 -16.678 -23.281  0.00  0.00    -0.000 C 
ATOM     25  C   UNL     1      33.995 -17.471 -24.234  0.00  0.00    -0.000 C 
ENDBRANCH  18  20
ENDBRANCH   1  17
TORSDOF 3
ENDMDL
MODEL 8
REMARK VINA RESULT:     -11.5      4.477      7.782
REMARK  Name = 448841
REMARK  3 active torsions:
REMARK  status: ('A' for Active; 'I' for Inactive)
REMARK    1  A    between atoms: C_1  and  C_17
REMARK    2  A    between atoms: C_9  and  C_13
REMARK    3  A    between atoms: C_18  and  C_20
REMARK                            x       y       z     vdW  Elec       q    Type
REMARK                         _______ _______ _______ _____ _____    ______ ____
ROOT
ATOM      1  C   UNL     1      34.651 -22.529 -17.752  0.00  0.00    -0.022 C 
ATOM      2  C   UNL     1      33.557 -22.091 -18.499  0.00  0.00    -0.004 C 
ATOM      3  C   UNL     1      35.934 -22.099 -18.078  0.00  0.00    -0.004 C 
ATOM      4  C   UNL     1      33.734 -21.216 -19.584  0.00  0.00    -0.000 C 
ATOM      5  C   UNL     1      36.128 -21.230 -19.153  0.00  0.00    -0.000 C 
ATOM      6  C   UNL     1      35.039 -20.779 -19.915  0.00  0.00    +0.000 C 
ATOM      7  C   UNL     1      32.644 -20.766 -20.347  0.00  0.00    +0.000 C 
ATOM      8  C   UNL     1      35.215 -19.905 -20.999  0.00  0.00    +0.003 C 
ATOM      9  C   UNL     1      34.121 -19.466 -21.747  0.00  0.00    +0.031 C 
ATOM     10  C   UNL     1      32.838 -19.897 -21.420  0.00  0.00    +0.003 C 
ENDROOT
BRANCH   9  13
ATOM     11  N   UNL     1      33.399 -18.482 -23.909  0.00  0.00    -0.343 N 
ATOM     12  N   UNL     1      35.397 -17.794 -22.909  0.00  0.00    -0.285 NA
ATOM     13  C   UNL     1      34.321 -18.561 -22.866  0.00  0.00    +0.117 C 
ATOM     14  H   UNL     1      33.555 -17.862 -24.658  0.00  0.00    +0.144 HD
ATOM     15  H   UNL     1      32.594 -19.047 -23.897  0.00  0.00    +0.144 HD
ATOM     16  H   UNL     1      35.533 -17.180 -23.667  0.00  0.00    +0.188 HD
ENDBRANCH   9  13
BRANCH   1  17
ATOM     17  C   UNL     1      34.446 -23.457 -16.605  0.00  0.00    +0.027 C 
ATOM     18  C   UNL     1      34.857 -23.025 -15.232  0.00  0.00    +0.027 C 
ATOM     19  C   UNL     1      33.401 -23.134 -15.582  0.00  0.00    +0.009 C 
BRANCH  18  20
ATOM     20  C   UNL     1      35.459 -24.019 -14.308  0.00  0.00    -0.022 C 
ATOM     21  C   UNL     1      35.311 -23.875 -12.926  0.00  0.00    -0.004 C 
ATOM     22  C   UNL     1      36.180 -25.105 -14.815  0.00  0.00    -0.004 C 
ATOM     23  C   UNL     1      35.878 -24.808 -12.057  0.00  0.00    -0.000 C 
ATOM     24  C   UNL     1      36.748 -26.037 -13.947  0.00  0.00    -0.000 C 
ATOM     25  C   UNL     1      36.597 -25.888 -12.568  0.00  0.00    -0.000 C 
ENDBRANCH  18  20
ENDBRANCH   1  17
TORSDOF 3
ENDMDL
MODEL 9
REMARK VINA RESULT:     -11.3      5.357      9.436
REMARK  Name = 448841
REMARK  3 active torsions:
REMARK  status: ('A' for Active; 'I' for Inactive)
REMARK    1  A    between atoms: C_1  and  C_17
REMARK    2  A    between atoms: C_9  and  C_13
REMARK    3  A    between atoms: C_18  and  C_20
REMARK                            x       y       z     vdW  Elec       q    Type
REMARK                         _______ _______ _______ _____ _____    ______ ____
ROOT
ATOM      1  C   UNL     1      34.382 -19.927 -21.215  0.00  0.00    -0.022 C 
ATOM      2  C   UNL     1      33.394 -20.618 -20.514  0.00  0.00    -0.004 C 
ATOM      3  C   UNL     1      35.712 -20.010 -20.810  0.00  0.00    -0.004 C 
ATOM      4  C   UNL     1      33.723 -21.403 -19.397  0.00  0.00    -0.000 C 
ATOM      5  C   UNL     1      36.056 -20.786 -19.701  0.00  0.00    -0.000 C 
ATOM      6  C   UNL     1      35.075 -21.488 -18.984  0.00  0.00    +0.000 C 
ATOM      7  C   UNL     1      32.741 -22.105 -18.679  0.00  0.00    +0.000 C 
ATOM      8  C   UNL     1      35.404 -22.273 -17.868  0.00  0.00    +0.003 C 
ATOM      9  C   UNL     1      34.416 -22.965 -17.167  0.00  0.00    +0.031 C 
ATOM     10  C   UNL     1      33.087 -22.880 -17.572  0.00  0.00    +0.003 C 
ENDROOT
BRANCH   9  13
ATOM     11  N   UNL     1      33.802 -24.257 -15.137  0.00  0.00    -0.343 N 
ATOM     12  N   UNL     1      36.042 -24.059 -15.776  0.00  0.00    -0.285 NA
ATOM     13  C   UNL     1      34.773 -23.773 -16.013  0.00  0.00    +0.117 C 
ATOM     14  H   UNL     1      34.067 -24.802 -14.361  0.00  0.00    +0.144 HD
ATOM     15  H   UNL     1      32.852 -24.052 -15.294  0.00  0.00    +0.144 HD
ATOM     16  H   UNL     1      36.285 -24.607 -14.995  0.00  0.00    +0.188 HD
ENDBRANCH   9  13
BRANCH   1  17
ATOM     17  C   UNL     1      34.015 -19.098 -22.397  0.00  0.00    +0.027 C 
ATOM     18  C   UNL     1      34.982 -18.070 -22.899  0.00  0.00    +0.027 C 
ATOM     19  C   UNL     1      34.731 -19.318 -23.694  0.00  0.00    +0.009 C 
BRANCH  18  20
ATOM     20  C   UNL     1      34.465 -16.772 -23.400  0.00  0.00    -0.022 C 
ATOM     21  C   UNL     1      34.622 -15.611 -22.638  0.00  0.00    -0.004 C 
ATOM     22  C   UNL     1      33.818 -16.703 -24.637  0.00  0.00    -0.004 C 
ATOM     23  C   UNL     1      34.135 -14.391 -23.108  0.00  0.00    -0.000 C 
ATOM     24  C   UNL     1      33.331 -15.483 -25.108  0.00  0.00    -0.000 C 
ATOM     25  C   UNL     1      33.489 -14.328 -24.343  0.00  0.00    -0.000 C 
ENDBRANCH  18  20
ENDBRANCH   1  17
TORSDOF 3
ENDMDL
