MODEL 1
REMARK VINA RESULT:     -13.1      0.000      0.000
REMARK  Name = 58212050
REMARK  2 active torsions:
REMARK  status: ('A' for Active; 'I' for Inactive)
REMARK    1  A    between atoms: C_2  and  C_13
REMARK    2  A    between atoms: C_10  and  C_26
REMARK                            x       y       z     vdW  Elec       q    Type
REMARK                         _______ _______ _______ _____ _____    ______ ____
ROOT
ATOM      1  N   UNL     1      33.212 -15.268 -26.524  0.00  0.00    +0.389 N 
ATOM      2  C   UNL     1      33.689 -13.751 -24.626  0.00  0.00    +0.023 C 
ATOM      3  C   UNL     1      32.777 -14.043 -25.842  0.00  0.00    -0.068 C 
ATOM      4  C   UNL     1      33.971 -14.991 -23.787  0.00  0.00    -0.026 C 
ATOM      5  C   UNL     1      33.664 -16.269 -24.294  0.00  0.00    -0.047 C 
ATOM      6  C   UNL     1      32.999 -16.427 -25.642  0.00  0.00    -0.050 C 
ATOM      7  C   UNL     1      34.614 -14.893 -22.542  0.00  0.00    -0.004 C 
ATOM      8  C   UNL     1      33.938 -17.409 -23.524  0.00  0.00    -0.005 C 
ATOM      9  C   UNL     1      32.485 -15.446 -27.781  0.00  0.00    -0.100 C 
ATOM     10  C   UNL     1      34.549 -17.291 -22.277  0.00  0.00    +0.019 C 
ATOM     11  C   UNL     1      34.893 -16.034 -21.790  0.00  0.00    +0.001 C 
ATOM     12  H   UNL     1      34.206 -15.189 -26.741  0.00  0.00    -0.079 HD
ENDROOT
BRANCH   2  13
ATOM     13  C   UNL     1      33.116 -12.578 -23.839  0.00  0.00    -0.020 C 
ATOM     14  C   UNL     1      32.462 -12.805 -22.628  0.00  0.00    -0.004 C 
ATOM     15  C   UNL     1      33.246 -11.283 -24.330  0.00  0.00    -0.004 C 
ATOM     16  C   UNL     1      31.928 -11.735 -21.892  0.00  0.00    -0.000 C 
ATOM     17  C   UNL     1      32.059 -10.418 -22.391  0.00  0.00    -0.000 C 
ATOM     18  C   UNL     1      32.721 -10.208 -23.612  0.00  0.00    -0.000 C 
ATOM     19  C   UNL     1      31.266 -11.945 -20.671  0.00  0.00    -0.000 C 
ATOM     20  C   UNL     1      31.524  -9.348 -21.655  0.00  0.00    -0.000 C 
ATOM     21  C   UNL     1      30.741 -10.871 -19.952  0.00  0.00    -0.000 C 
ATOM     22  C   UNL     1      30.869  -9.575 -20.443  0.00  0.00    -0.000 C 
ENDBRANCH   2  13
BRANCH  10  26
ATOM     23  N   UNL     1      36.059 -18.516 -20.930  0.00  0.00    -0.147 NA
ATOM     24  N   UNL     1      36.405 -19.594 -20.177  0.00  0.00    -0.133 NA
ATOM     25  N   UNL     1      35.875 -21.717 -19.230  0.00  0.00    -0.341 N 
ATOM     26  C   UNL     1      34.832 -18.474 -21.494  0.00  0.00    +0.103 C 
ATOM     27  C   UNL     1      33.902 -19.482 -21.343  0.00  0.00    +0.024 C 
ATOM     28  C   UNL     1      34.255 -20.579 -20.577  0.00  0.00    +0.037 C 
ATOM     29  C   UNL     1      35.514 -20.595 -20.013  0.00  0.00    +0.147 C 
ATOM     30  H   UNL     1      36.766 -21.760 -18.813  0.00  0.00    +0.144 HD
ATOM     31  H   UNL     1      35.235 -22.454 -19.103  0.00  0.00    +0.144 HD
ENDBRANCH  10  26
TORSDOF 2
ENDMDL
MODEL 2
REMARK VINA RESULT:     -12.9      0.668      1.572
REMARK  Name = 58212050
REMARK  2 active torsions:
REMARK  status: ('A' for Active; 'I' for Inactive)
REMARK    1  A    between atoms: C_2  and  C_13
REMARK    2  A    between atoms: C_10  and  C_26
REMARK                            x       y       z     vdW  Elec       q    Type
REMARK                         _______ _______ _______ _____ _____    ______ ____
ROOT
ATOM      1  N   UNL     1      33.396 -14.845 -26.337  0.00  0.00    +0.389 N 
ATOM      2  C   UNL     1      33.647 -13.447 -24.310  0.00  0.00    +0.023 C 
ATOM      3  C   UNL     1      32.841 -13.700 -25.607  0.00  0.00    -0.068 C 
ATOM      4  C   UNL     1      33.944 -14.727 -23.538  0.00  0.00    -0.026 C 
ATOM      5  C   UNL     1      33.751 -15.979 -24.154  0.00  0.00    -0.047 C 
ATOM      6  C   UNL     1      33.192 -16.075 -25.555  0.00  0.00    -0.050 C 
ATOM      7  C   UNL     1      34.492 -14.683 -22.246  0.00  0.00    -0.004 C 
ATOM      8  C   UNL     1      34.039 -17.155 -23.445  0.00  0.00    -0.005 C 
ATOM      9  C   UNL     1      32.771 -14.972 -27.654  0.00  0.00    -0.100 C 
ATOM     10  C   UNL     1      34.554 -17.094 -22.151  0.00  0.00    +0.019 C 
ATOM     11  C   UNL     1      34.786 -15.859 -21.555  0.00  0.00    +0.001 C 
ATOM     12  H   UNL     1      34.396 -14.696 -26.474  0.00  0.00    -0.079 HD
ENDROOT
BRANCH   2  13
ATOM     13  C   UNL     1      32.951 -12.368 -23.489  0.00  0.00    -0.020 C 
ATOM     14  C   UNL     1      33.207 -11.021 -23.747  0.00  0.00    -0.004 C 
ATOM     15  C   UNL     1      32.060 -12.727 -22.481  0.00  0.00    -0.004 C 
ATOM     16  C   UNL     1      32.575 -10.015 -22.999  0.00  0.00    -0.000 C 
ATOM     17  C   UNL     1      31.670 -10.380 -21.975  0.00  0.00    -0.000 C 
ATOM     18  C   UNL     1      31.423 -11.740 -21.728  0.00  0.00    -0.000 C 
ATOM     19  C   UNL     1      32.822  -8.655 -23.246  0.00  0.00    -0.000 C 
ATOM     20  C   UNL     1      31.037  -9.374 -21.226  0.00  0.00    -0.000 C 
ATOM     21  C   UNL     1      32.184  -7.668 -22.493  0.00  0.00    -0.000 C 
ATOM     22  C   UNL     1      31.294  -8.026 -21.485  0.00  0.00    -0.000 C 
ENDBRANCH   2  13
BRANCH  10  26
ATOM     23  N   UNL     1      36.081 -18.371 -20.874  0.00  0.00    -0.147 NA
ATOM     24  N   UNL     1      36.442 -19.483 -20.180  0.00  0.00    -0.133 NA
ATOM     25  N   UNL     1      35.939 -21.659 -19.345  0.00  0.00    -0.341 N 
ATOM     26  C   UNL     1      34.853 -18.314 -21.433  0.00  0.00    +0.103 C 
ATOM     27  C   UNL     1      33.934 -19.340 -21.334  0.00  0.00    +0.024 C 
ATOM     28  C   UNL     1      34.302 -20.471 -20.627  0.00  0.00    +0.037 C 
ATOM     29  C   UNL     1      35.563 -20.502 -20.067  0.00  0.00    +0.147 C 
ATOM     30  H   UNL     1      36.831 -21.714 -18.933  0.00  0.00    +0.144 HD
ATOM     31  H   UNL     1      35.308 -22.410 -19.256  0.00  0.00    +0.144 HD
ENDBRANCH  10  26
TORSDOF 2
ENDMDL
MODEL 3
REMARK VINA RESULT:     -11.8      5.335     10.709
REMARK  Name = 58212050
REMARK  2 active torsions:
REMARK  status: ('A' for Active; 'I' for Inactive)
REMARK    1  A    between atoms: C_2  and  C_13
REMARK    2  A    between atoms: C_10  and  C_26
REMARK                            x       y       z     vdW  Elec       q    Type
REMARK                         _______ _______ _______ _____ _____    ______ ____
ROOT
ATOM      1  N   UNL     1      36.514 -23.100 -16.532  0.00  0.00    +0.389 N 
ATOM      2  C   UNL     1      34.086 -23.322 -16.959  0.00  0.00    +0.023 C 
ATOM      3  C   UNL     1      35.198 -23.196 -15.890  0.00  0.00    -0.068 C 
ATOM      4  C   UNL     1      34.262 -22.345 -18.115  0.00  0.00    -0.026 C 
ATOM      5  C   UNL     1      35.483 -21.662 -18.278  0.00  0.00    -0.047 C 
ATOM      6  C   UNL     1      36.607 -21.837 -17.283  0.00  0.00    -0.050 C 
ATOM      7  C   UNL     1      33.254 -22.173 -19.079  0.00  0.00    -0.004 C 
ATOM      8  C   UNL     1      35.646 -20.773 -19.351  0.00  0.00    -0.005 C 
ATOM      9  C   UNL     1      37.583 -23.178 -15.537  0.00  0.00    -0.100 C 
ATOM     10  C   UNL     1      34.625 -20.592 -20.282  0.00  0.00    +0.019 C 
ATOM     11  C   UNL     1      33.432 -21.297 -20.149  0.00  0.00    +0.001 C 
ATOM     12  H   UNL     1      36.624 -23.882 -17.177  0.00  0.00    -0.079 HD
ENDROOT
BRANCH   2  13
ATOM     13  C   UNL     1      32.724 -23.247 -16.277  0.00  0.00    -0.020 C 
ATOM     14  C   UNL     1      31.571 -23.066 -17.041  0.00  0.00    -0.004 C 
ATOM     15  C   UNL     1      32.633 -23.359 -14.893  0.00  0.00    -0.004 C 
ATOM     16  C   UNL     1      30.310 -22.994 -16.429  0.00  0.00    -0.000 C 
ATOM     17  C   UNL     1      30.217 -23.107 -15.021  0.00  0.00    -0.000 C 
ATOM     18  C   UNL     1      31.388 -23.289 -14.268  0.00  0.00    -0.000 C 
ATOM     19  C   UNL     1      29.139 -22.812 -17.183  0.00  0.00    -0.000 C 
ATOM     20  C   UNL     1      28.955 -23.035 -14.408  0.00  0.00    -0.000 C 
ATOM     21  C   UNL     1      27.894 -22.743 -16.557  0.00  0.00    -0.000 C 
ATOM     22  C   UNL     1      27.802 -22.853 -15.173  0.00  0.00    -0.000 C 
ENDBRANCH   2  13
BRANCH  10  26
ATOM     23  N   UNL     1      33.708 -19.454 -22.141  0.00  0.00    -0.147 NA
ATOM     24  N   UNL     1      33.794 -18.607 -23.202  0.00  0.00    -0.133 NA
ATOM     25  N   UNL     1      35.064 -17.131 -24.578  0.00  0.00    -0.341 N 
ATOM     26  C   UNL     1      34.807 -19.678 -21.389  0.00  0.00    +0.103 C 
ATOM     27  C   UNL     1      36.026 -19.084 -21.644  0.00  0.00    +0.024 C 
ATOM     28  C   UNL     1      36.113 -18.222 -22.723  0.00  0.00    +0.037 C 
ATOM     29  C   UNL     1      34.975 -18.012 -23.475  0.00  0.00    +0.147 C 
ATOM     30  H   UNL     1      34.271 -16.958 -25.136  0.00  0.00    +0.144 HD
ATOM     31  H   UNL     1      35.919 -16.691 -24.789  0.00  0.00    +0.144 HD
ENDBRANCH  10  26
TORSDOF 2
ENDMDL
MODEL 4
REMARK VINA RESULT:     -11.2      3.837      8.483
REMARK  Name = 58212050
REMARK  2 active torsions:
REMARK  status: ('A' for Active; 'I' for Inactive)
REMARK    1  A    between atoms: C_2  and  C_13
REMARK    2  A    between atoms: C_10  and  C_26
REMARK                            x       y       z     vdW  Elec       q    Type
REMARK                         _______ _______ _______ _____ _____    ______ ____
ROOT
ATOM      1  N   UNL     1      33.383 -12.047 -26.445  0.00  0.00    +0.389 N 
ATOM      2  C   UNL     1      32.996 -13.468 -24.455  0.00  0.00    +0.023 C 
ATOM      3  C   UNL     1      33.841 -13.246 -25.732  0.00  0.00    -0.068 C 
ATOM      4  C   UNL     1      32.778 -12.186 -23.659  0.00  0.00    -0.026 C 
ATOM      5  C   UNL     1      33.071 -10.939 -24.243  0.00  0.00    -0.047 C 
ATOM      6  C   UNL     1      33.660 -10.852 -25.632  0.00  0.00    -0.050 C 
ATOM      7  C   UNL     1      32.206 -12.218 -22.377  0.00  0.00    -0.004 C 
ATOM      8  C   UNL     1      32.856  -9.760 -23.512  0.00  0.00    -0.005 C 
ATOM      9  C   UNL     1      34.039 -11.938 -27.748  0.00  0.00    -0.100 C 
ATOM     10  C   UNL     1      32.315  -9.812 -22.228  0.00  0.00    +0.019 C 
ATOM     11  C   UNL     1      31.984 -11.040 -21.664  0.00  0.00    +0.001 C 
ATOM     12  H   UNL     1      32.378 -12.120 -26.602  0.00  0.00    -0.079 HD
ENDROOT
BRANCH   2  13
ATOM     13  C   UNL     1      33.598 -14.612 -23.648  0.00  0.00    -0.020 C 
ATOM     14  C   UNL     1      33.686 -15.887 -24.205  0.00  0.00    -0.004 C 
ATOM     15  C   UNL     1      34.059 -14.383 -22.355  0.00  0.00    -0.004 C 
ATOM     16  C   UNL     1      34.237 -16.952 -23.475  0.00  0.00    -0.000 C 
ATOM     17  C   UNL     1      34.705 -16.720 -22.160  0.00  0.00    -0.000 C 
ATOM     18  C   UNL     1      34.609 -15.430 -21.614  0.00  0.00    -0.000 C 
ATOM     19  C   UNL     1      34.332 -18.243 -24.021  0.00  0.00    -0.000 C 
ATOM     20  C   UNL     1      35.256 -17.785 -21.429  0.00  0.00    -0.000 C 
ATOM     21  C   UNL     1      34.883 -19.290 -23.280  0.00  0.00    -0.000 C 
ATOM     22  C   UNL     1      35.343 -19.062 -21.987  0.00  0.00    -0.000 C 
ENDBRANCH   2  13
BRANCH  10  26
ATOM     23  N   UNL     1      32.685  -8.531 -20.275  0.00  0.00    -0.147 NA
ATOM     24  N   UNL     1      32.525  -7.416 -19.513  0.00  0.00    -0.133 NA
ATOM     25  N   UNL     1      31.611  -5.237 -19.194  0.00  0.00    -0.341 N 
ATOM     26  C   UNL     1      32.092  -8.590 -21.487  0.00  0.00    +0.103 C 
ATOM     27  C   UNL     1      31.322  -7.564 -21.997  0.00  0.00    +0.024 C 
ATOM     28  C   UNL     1      31.160  -6.430 -21.221  0.00  0.00    +0.037 C 
ATOM     29  C   UNL     1      31.778  -6.397 -19.987  0.00  0.00    +0.147 C 
ATOM     30  H   UNL     1      32.038  -5.181 -18.309  0.00  0.00    +0.144 HD
ATOM     31  H   UNL     1      31.068  -4.487 -19.528  0.00  0.00    +0.144 HD
ENDBRANCH  10  26
TORSDOF 2
ENDMDL
MODEL 5
REMARK VINA RESULT:     -11.1      2.747      4.995
REMARK  Name = 58212050
REMARK  2 active torsions:
REMARK  status: ('A' for Active; 'I' for Inactive)
REMARK    1  A    between atoms: C_2  and  C_13
REMARK    2  A    between atoms: C_10  and  C_26
REMARK                            x       y       z     vdW  Elec       q    Type
REMARK                         _______ _______ _______ _____ _____    ______ ____
ROOT
ATOM      1  N   UNL     1      31.069 -11.101 -21.096  0.00  0.00    +0.389 N 
ATOM      2  C   UNL     1      32.207 -10.946 -23.289  0.00  0.00    +0.023 C 
ATOM      3  C   UNL     1      31.748 -10.186 -22.021  0.00  0.00    -0.068 C 
ATOM      4  C   UNL     1      32.867 -12.282 -22.972  0.00  0.00    -0.026 C 
ATOM      5  C   UNL     1      32.752 -12.834 -21.681  0.00  0.00    -0.047 C 
ATOM      6  C   UNL     1      32.032 -12.088 -20.582  0.00  0.00    -0.050 C 
ATOM      7  C   UNL     1      33.521 -13.023 -23.971  0.00  0.00    -0.004 C 
ATOM      8  C   UNL     1      33.349 -14.071 -21.397  0.00  0.00    -0.005 C 
ATOM      9  C   UNL     1      30.460 -10.361 -19.991  0.00  0.00    -0.100 C 
ATOM     10  C   UNL     1      34.020 -14.779 -22.392  0.00  0.00    +0.019 C 
ATOM     11  C   UNL     1      34.100 -14.258 -23.680  0.00  0.00    +0.001 C 
ATOM     12  H   UNL     1      30.326 -11.587 -21.599  0.00  0.00    -0.079 HD
ENDROOT
BRANCH   2  13
ATOM     13  C   UNL     1      33.055 -10.017 -24.151  0.00  0.00    -0.020 C 
ATOM     14  C   UNL     1      32.439  -9.140 -25.044  0.00  0.00    -0.004 C 
ATOM     15  C   UNL     1      34.442 -10.046 -24.046  0.00  0.00    -0.004 C 
ATOM     16  C   UNL     1      33.206  -8.279 -25.846  0.00  0.00    -0.000 C 
ATOM     17  C   UNL     1      34.617  -8.308 -25.740  0.00  0.00    -0.000 C 
ATOM     18  C   UNL     1      35.219  -9.197 -24.836  0.00  0.00    -0.000 C 
ATOM     19  C   UNL     1      32.602  -7.390 -26.750  0.00  0.00    -0.000 C 
ATOM     20  C   UNL     1      35.384  -7.447 -26.542  0.00  0.00    -0.000 C 
ATOM     21  C   UNL     1      33.380  -6.541 -27.539  0.00  0.00    -0.000 C 
ATOM     22  C   UNL     1      34.767  -6.570 -27.436  0.00  0.00    -0.000 C 
ENDBRANCH   2  13
BRANCH  10  26
ATOM     23  N   UNL     1      34.757 -16.339 -20.775  0.00  0.00    -0.147 NA
ATOM     24  N   UNL     1      35.318 -17.521 -20.403  0.00  0.00    -0.133 NA
ATOM     25  N   UNL     1      36.313 -19.612 -20.973  0.00  0.00    -0.341 N 
ATOM     26  C   UNL     1      34.627 -16.057 -22.089  0.00  0.00    +0.103 C 
ATOM     27  C   UNL     1      35.039 -16.918 -23.086  0.00  0.00    +0.024 C 
ATOM     28  C   UNL     1      35.609 -18.120 -22.708  0.00  0.00    +0.037 C 
ATOM     29  C   UNL     1      35.729 -18.383 -21.359  0.00  0.00    +0.147 C 
ATOM     30  H   UNL     1      36.414 -19.831 -20.018  0.00  0.00    +0.144 HD
ATOM     31  H   UNL     1      36.618 -20.249 -21.658  0.00  0.00    +0.144 HD
ENDBRANCH  10  26
TORSDOF 2
ENDMDL
MODEL 6
REMARK VINA RESULT:     -11.0      6.126     12.842
REMARK  Name = 58212050
REMARK  2 active torsions:
REMARK  status: ('A' for Active; 'I' for Inactive)
REMARK    1  A    between atoms: C_2  and  C_13
REMARK    2  A    between atoms: C_10  and  C_26
REMARK                            x       y       z     vdW  Elec       q    Type
REMARK                         _______ _______ _______ _____ _____    ______ ____
ROOT
ATOM      1  N   UNL     1      31.785 -23.817 -15.238  0.00  0.00    +0.389 N 
ATOM      2  C   UNL     1      34.260 -23.750 -15.239  0.00  0.00    +0.023 C 
ATOM      3  C   UNL     1      32.995 -24.597 -14.956  0.00  0.00    -0.068 C 
ATOM      4  C   UNL     1      34.177 -22.985 -16.554  0.00  0.00    -0.026 C 
ATOM      5  C   UNL     1      32.942 -22.864 -17.221  0.00  0.00    -0.047 C 
ATOM      6  C   UNL     1      31.702 -23.538 -16.681  0.00  0.00    -0.050 C 
ATOM      7  C   UNL     1      35.298 -22.319 -17.076  0.00  0.00    -0.004 C 
ATOM      8  C   UNL     1      32.868 -22.147 -18.424  0.00  0.00    -0.005 C 
ATOM      9  C   UNL     1      30.591 -24.534 -14.790  0.00  0.00    -0.100 C 
ATOM     10  C   UNL     1      33.997 -21.517 -18.944  0.00  0.00    +0.019 C 
ATOM     11  C   UNL     1      35.210 -21.597 -18.267  0.00  0.00    +0.001 C 
ATOM     12  H   UNL     1      31.834 -22.935 -14.728  0.00  0.00    -0.079 HD
ENDROOT
BRANCH   2  13
ATOM     13  C   UNL     1      35.495 -24.632 -15.104  0.00  0.00    -0.020 C 
ATOM     14  C   UNL     1      36.748 -24.052 -14.909  0.00  0.00    -0.004 C 
ATOM     15  C   UNL     1      35.372 -26.016 -15.176  0.00  0.00    -0.004 C 
ATOM     16  C   UNL     1      37.896 -24.850 -14.784  0.00  0.00    -0.000 C 
ATOM     17  C   UNL     1      37.771 -26.258 -14.858  0.00  0.00    -0.000 C 
ATOM     18  C   UNL     1      36.502 -26.825 -15.054  0.00  0.00    -0.000 C 
ATOM     19  C   UNL     1      39.166 -24.282 -14.587  0.00  0.00    -0.000 C 
ATOM     20  C   UNL     1      38.920 -27.057 -14.733  0.00  0.00    -0.000 C 
ATOM     21  C   UNL     1      40.296 -25.091 -14.465  0.00  0.00    -0.000 C 
ATOM     22  C   UNL     1      40.174 -26.475 -14.538  0.00  0.00    -0.000 C 
ENDBRANCH   2  13
BRANCH  10  26
ATOM     23  N   UNL     1      32.653 -20.521 -20.616  0.00  0.00    -0.147 NA
ATOM     24  N   UNL     1      32.480 -19.828 -21.773  0.00  0.00    -0.133 NA
ATOM     25  N   UNL     1      33.386 -18.689 -23.663  0.00  0.00    -0.341 N 
ATOM     26  C   UNL     1      33.907 -20.774 -20.183  0.00  0.00    +0.103 C 
ATOM     27  C   UNL     1      35.034 -20.360 -20.862  0.00  0.00    +0.024 C 
ATOM     28  C   UNL     1      34.858 -19.655 -22.040  0.00  0.00    +0.037 C 
ATOM     29  C   UNL     1      33.566 -19.410 -22.459  0.00  0.00    +0.147 C 
ATOM     30  H   UNL     1      32.477 -18.498 -23.990  0.00  0.00    +0.144 HD
ATOM     31  H   UNL     1      34.168 -18.380 -24.173  0.00  0.00    +0.144 HD
ENDBRANCH  10  26
TORSDOF 2
ENDMDL
MODEL 7
REMARK VINA RESULT:     -10.7      4.398      9.752
REMARK  Name = 58212050
REMARK  2 active torsions:
REMARK  status: ('A' for Active; 'I' for Inactive)
REMARK    1  A    between atoms: C_2  and  C_13
REMARK    2  A    between atoms: C_10  and  C_26
REMARK                            x       y       z     vdW  Elec       q    Type
REMARK                         _______ _______ _______ _____ _____    ______ ____
ROOT
ATOM      1  N   UNL     1      31.791 -10.661 -21.883  0.00  0.00    +0.389 N 
ATOM      2  C   UNL     1      33.333 -12.079 -23.204  0.00  0.00    +0.023 C 
ATOM      3  C   UNL     1      31.973 -11.994 -22.469  0.00  0.00    -0.068 C 
ATOM      4  C   UNL     1      33.613 -10.858 -24.072  0.00  0.00    -0.026 C 
ATOM      5  C   UNL     1      32.830  -9.697 -23.925  0.00  0.00    -0.047 C 
ATOM      6  C   UNL     1      31.669  -9.662 -22.958  0.00  0.00    -0.050 C 
ATOM      7  C   UNL     1      34.699 -10.837 -24.962  0.00  0.00    -0.004 C 
ATOM      8  C   UNL     1      33.100  -8.570 -24.717  0.00  0.00    -0.005 C 
ATOM      9  C   UNL     1      30.607 -10.630 -21.025  0.00  0.00    -0.100 C 
ATOM     10  C   UNL     1      34.163  -8.576 -25.618  0.00  0.00    +0.019 C 
ATOM     11  C   UNL     1      34.966  -9.706 -25.735  0.00  0.00    +0.001 C 
ATOM     12  H   UNL     1      32.604 -10.439 -21.309  0.00  0.00    -0.079 HD
ENDROOT
BRANCH   2  13
ATOM     13  C   UNL     1      33.421 -13.408 -23.944  0.00  0.00    -0.020 C 
ATOM     14  C   UNL     1      34.001 -14.514 -23.322  0.00  0.00    -0.004 C 
ATOM     15  C   UNL     1      32.926 -13.517 -25.239  0.00  0.00    -0.004 C 
ATOM     16  C   UNL     1      34.091 -15.746 -23.991  0.00  0.00    -0.000 C 
ATOM     17  C   UNL     1      33.587 -15.856 -25.308  0.00  0.00    -0.000 C 
ATOM     18  C   UNL     1      33.007 -14.733 -25.918  0.00  0.00    -0.000 C 
ATOM     19  C   UNL     1      34.672 -16.870 -23.380  0.00  0.00    -0.000 C 
ATOM     20  C   UNL     1      33.678 -17.088 -25.977  0.00  0.00    -0.000 C 
ATOM     21  C   UNL     1      34.754 -18.086 -24.059  0.00  0.00    -0.000 C 
ATOM     22  C   UNL     1      34.258 -18.195 -25.355  0.00  0.00    -0.000 C 
ENDBRANCH   2  13
BRANCH  10  26
ATOM     23  N   UNL     1      33.741  -6.298 -26.090  0.00  0.00    -0.147 NA
ATOM     24  N   UNL     1      33.939  -5.154 -26.799  0.00  0.00    -0.133 NA
ATOM     25  N   UNL     1      35.031  -3.966 -28.555  0.00  0.00    -0.341 N 
ATOM     26  C   UNL     1      34.436  -7.407 -26.424  0.00  0.00    +0.103 C 
ATOM     27  C   UNL     1      35.348  -7.438 -27.460  0.00  0.00    +0.024 C 
ATOM     28  C   UNL     1      35.549  -6.274 -28.181  0.00  0.00    +0.037 C 
ATOM     29  C   UNL     1      34.825  -5.156 -27.818  0.00  0.00    +0.147 C 
ATOM     30  H   UNL     1      34.531  -3.151 -28.322  0.00  0.00    +0.144 HD
ATOM     31  H   UNL     1      35.673  -3.954 -29.301  0.00  0.00    +0.144 HD
ENDBRANCH  10  26
TORSDOF 2
ENDMDL
MODEL 8
REMARK VINA RESULT:     -10.4      4.262      6.161
REMARK  Name = 58212050
REMARK  2 active torsions:
REMARK  status: ('A' for Active; 'I' for Inactive)
REMARK    1  A    between atoms: C_2  and  C_13
REMARK    2  A    between atoms: C_10  and  C_26
REMARK                            x       y       z     vdW  Elec       q    Type
REMARK                         _______ _______ _______ _____ _____    ______ ____
ROOT
ATOM      1  N   UNL     1      35.316  -8.300 -26.871  0.00  0.00    +0.389 N 
ATOM      2  C   UNL     1      34.261  -8.467 -24.637  0.00  0.00    +0.023 C 
ATOM      3  C   UNL     1      34.489  -7.587 -25.891  0.00  0.00    -0.068 C 
ATOM      4  C   UNL     1      33.902  -9.907 -24.983  0.00  0.00    -0.026 C 
ATOM      5  C   UNL     1      34.085 -10.381 -26.296  0.00  0.00    -0.047 C 
ATOM      6  C   UNL     1      34.576  -9.462 -27.390  0.00  0.00    -0.050 C 
ATOM      7  C   UNL     1      33.470 -10.803 -23.991  0.00  0.00    -0.004 C 
ATOM      8  C   UNL     1      33.766 -11.712 -26.606  0.00  0.00    -0.005 C 
ATOM      9  C   UNL     1      35.701  -7.412 -27.968  0.00  0.00    -0.100 C 
ATOM     10  C   UNL     1      33.310 -12.580 -25.616  0.00  0.00    +0.019 C 
ATOM     11  C   UNL     1      33.169 -12.128 -24.308  0.00  0.00    +0.001 C 
ATOM     12  H   UNL     1      36.168  -8.623 -26.411  0.00  0.00    -0.079 HD
ENDROOT
BRANCH   2  13
ATOM     13  C   UNL     1      33.264  -7.776 -23.714  0.00  0.00    -0.020 C 
ATOM     14  C   UNL     1      33.537  -7.667 -22.351  0.00  0.00    -0.004 C 
ATOM     15  C   UNL     1      32.082  -7.256 -24.233  0.00  0.00    -0.004 C 
ATOM     16  C   UNL     1      32.628  -7.035 -21.487  0.00  0.00    -0.000 C 
ATOM     17  C   UNL     1      31.426  -6.506 -22.014  0.00  0.00    -0.000 C 
ATOM     18  C   UNL     1      31.168  -6.625 -23.389  0.00  0.00    -0.000 C 
ATOM     19  C   UNL     1      32.887  -6.917 -20.111  0.00  0.00    -0.000 C 
ATOM     20  C   UNL     1      30.517  -5.874 -21.150  0.00  0.00    -0.000 C 
ATOM     21  C   UNL     1      31.972  -6.285 -19.267  0.00  0.00    -0.000 C 
ATOM     22  C   UNL     1      30.790  -5.765 -19.785  0.00  0.00    -0.000 C 
ENDBRANCH   2  13
BRANCH  10  26
ATOM     23  N   UNL     1      33.241 -14.855 -24.975  0.00  0.00    -0.147 NA
ATOM     24  N   UNL     1      32.969 -16.168 -25.205  0.00  0.00    -0.133 NA
ATOM     25  N   UNL     1      32.172 -17.899 -26.638  0.00  0.00    -0.341 N 
ATOM     26  C   UNL     1      32.990 -13.952 -25.947  0.00  0.00    +0.103 C 
ATOM     27  C   UNL     1      32.466 -14.297 -27.176  0.00  0.00    +0.024 C 
ATOM     28  C   UNL     1      32.189 -15.633 -27.410  0.00  0.00    +0.037 C 
ATOM     29  C   UNL     1      32.455 -16.534 -26.399  0.00  0.00    +0.147 C 
ATOM     30  H   UNL     1      32.350 -18.568 -25.938  0.00  0.00    +0.144 HD
ATOM     31  H   UNL     1      31.798 -18.180 -27.504  0.00  0.00    +0.144 HD
ENDBRANCH  10  26
TORSDOF 2
ENDMDL
MODEL 9
REMARK VINA RESULT:     -10.2      4.851     10.129
REMARK  Name = 58212050
REMARK  2 active torsions:
REMARK  status: ('A' for Active; 'I' for Inactive)
REMARK    1  A    between atoms: C_2  and  C_13
REMARK    2  A    between atoms: C_10  and  C_26
REMARK                            x       y       z     vdW  Elec       q    Type
REMARK                         _______ _______ _______ _____ _____    ______ ____
ROOT
ATOM      1  N   UNL     1      32.264  -9.364 -22.339  0.00  0.00    +0.389 N 
ATOM      2  C   UNL     1      33.594 -11.109 -23.486  0.00  0.00    +0.023 C 
ATOM      3  C   UNL     1      32.278 -10.775 -22.743  0.00  0.00    -0.068 C 
ATOM      4  C   UNL     1      33.976 -10.054 -24.517  0.00  0.00    -0.026 C 
ATOM      5  C   UNL     1      33.331  -8.802 -24.513  0.00  0.00    -0.047 C 
ATOM      6  C   UNL     1      32.215  -8.508 -23.536  0.00  0.00    -0.050 C 
ATOM      7  C   UNL     1      35.026 -10.273 -25.424  0.00  0.00    -0.004 C 
ATOM      8  C   UNL     1      33.695  -7.828 -25.455  0.00  0.00    -0.005 C 
ATOM      9  C   UNL     1      31.121  -9.085 -21.469  0.00  0.00    -0.100 C 
ATOM     10  C   UNL     1      34.719  -8.073 -26.368  0.00  0.00    +0.019 C 
ATOM     11  C   UNL     1      35.388  -9.293 -26.347  0.00  0.00    +0.001 C 
ATOM     12  H   UNL     1      33.117  -9.161 -21.817  0.00  0.00    -0.079 HD
ENDROOT
BRANCH   2  13
ATOM     13  C   UNL     1      33.510 -12.526 -24.041  0.00  0.00    -0.020 C 
ATOM     14  C   UNL     1      32.974 -12.747 -25.310  0.00  0.00    -0.004 C 
ATOM     15  C   UNL     1      33.968 -13.598 -23.282  0.00  0.00    -0.004 C 
ATOM     16  C   UNL     1      32.889 -14.046 -25.836  0.00  0.00    -0.000 C 
ATOM     17  C   UNL     1      33.354 -15.137 -25.063  0.00  0.00    -0.000 C 
ATOM     18  C   UNL     1      33.890 -14.896 -23.788  0.00  0.00    -0.000 C 
ATOM     19  C   UNL     1      32.351 -14.286 -27.111  0.00  0.00    -0.000 C 
ATOM     20  C   UNL     1      33.268 -16.437 -25.588  0.00  0.00    -0.000 C 
ATOM     21  C   UNL     1      32.274 -15.584 -27.617  0.00  0.00    -0.000 C 
ATOM     22  C   UNL     1      32.731 -16.657 -26.858  0.00  0.00    -0.000 C 
ENDBRANCH   2  13
BRANCH  10  26
ATOM     23  N   UNL     1      34.580  -5.830 -27.102  0.00  0.00    -0.147 NA
ATOM     24  N   UNL     1      34.880  -4.818 -27.960  0.00  0.00    -0.133 NA
ATOM     25  N   UNL     1      35.994  -4.017 -29.911  0.00  0.00    -0.341 N 
ATOM     26  C   UNL     1      35.090  -7.059 -27.330  0.00  0.00    +0.103 C 
ATOM     27  C   UNL     1      35.911  -7.345 -28.403  0.00  0.00    +0.024 C 
ATOM     28  C   UNL     1      36.216  -6.315 -29.276  0.00  0.00    +0.037 C 
ATOM     29  C   UNL     1      35.681  -5.069 -29.018  0.00  0.00    +0.147 C 
ATOM     30  H   UNL     1      35.628  -3.116 -29.756  0.00  0.00    +0.144 HD
ATOM     31  H   UNL     1      36.575  -4.187 -30.687  0.00  0.00    +0.144 HD
ENDBRANCH  10  26
TORSDOF 2
ENDMDL
