MODEL 1
REMARK VINA RESULT:     -11.7      0.000      0.000
REMARK  Name = 24941248
REMARK  7 active torsions:
REMARK  status: ('A' for Active; 'I' for Inactive)
REMARK    1  A    between atoms: N_2  and  C_24
REMARK    2  A    between atoms: C_6  and  C_14
REMARK    3  A    between atoms: C_13  and  C_19
REMARK    4  A    between atoms: C_19  and  C_20
REMARK    5  A    between atoms: C_20  and  C_21
REMARK    6  A    between atoms: C_21  and  O_22
REMARK    7  A    between atoms: C_24  and  C_26
REMARK                            x       y       z     vdW  Elec       q    Type
REMARK                         _______ _______ _______ _____ _____    ______ ____
ROOT
ATOM      1  O   UNL     1      33.327 -15.269 -26.649  0.00  0.00    -0.352 OA
ATOM      2  N   UNL     1      35.052 -17.687 -22.104  0.00  0.00    -0.316 N 
ATOM      3  N   UNL     1      32.939 -14.010 -26.207  0.00  0.00    -0.077 NA
ATOM      4  N   UNL     1      34.682 -17.839 -24.452  0.00  0.00    -0.226 NA
ATOM      5  C   UNL     1      33.714 -15.231 -24.442  0.00  0.00    +0.062 A 
ATOM      6  C   UNL     1      33.177 -14.008 -24.892  0.00  0.00    +0.123 A 
ATOM      7  C   UNL     1      34.612 -17.095 -23.317  0.00  0.00    +0.129 C 
ATOM      8  C   UNL     1      34.141 -15.788 -23.235  0.00  0.00    +0.039 C 
ATOM      9  C   UNL     1      33.787 -15.993 -25.595  0.00  0.00    +0.196 A 
ATOM     10  C   UNL     1      34.266 -17.289 -25.619  0.00  0.00    +0.140 C 
ATOM     11  H   UNL     1      35.007 -17.157 -21.275  0.00  0.00    +0.148 HD
ENDROOT
BRANCH   6  14
ATOM     12 CL   UNL     1      33.378  -8.881 -24.391  0.00  0.00    -0.082 Cl
ATOM     13  C   UNL     1      31.976 -11.844 -22.099  0.00  0.00    -0.021 C 
ATOM     14  C   UNL     1      32.887 -12.841 -24.102  0.00  0.00    +0.021 C 
ATOM     15  C   UNL     1      32.258 -12.975 -22.864  0.00  0.00    -0.003 C 
ATOM     16  C   UNL     1      32.323 -10.578 -22.571  0.00  0.00    +0.007 C 
ATOM     17  C   UNL     1      33.233 -11.574 -24.574  0.00  0.00    +0.013 C 
ATOM     18  C   UNL     1      32.951 -10.443 -23.809  0.00  0.00    +0.057 C 
BRANCH  13  19
ATOM     19  C   UNL     1      31.303 -11.987 -20.775  0.00  0.00    +0.029 C 
BRANCH  19  20
ATOM     20  C   UNL     1      30.821 -10.641 -20.220  0.00  0.00    +0.036 C 
BRANCH  20  21
ATOM     21  C   UNL     1      31.428 -10.331 -18.859  0.00  0.00    +0.138 C 
BRANCH  21  22
ATOM     22  O   UNL     1      32.614  -9.571 -19.048  0.00  0.00    -0.382 OA
ATOM     23  H   UNL     1      32.476  -8.929 -19.762  0.00  0.00    +0.210 HD
ENDBRANCH  21  22
ENDBRANCH  20  21
ENDBRANCH  19  20
ENDBRANCH  13  19
ENDBRANCH   6  14
BRANCH   2  24
ATOM     24  C   UNL     1      35.557 -19.018 -22.037  0.00  0.00    +0.093 C 
ATOM     25  C   UNL     1      37.019 -18.986 -21.597  0.00  0.00    +0.026 C 
BRANCH  24  26
ATOM     26  C   UNL     1      34.686 -19.863 -21.133  0.00  0.00    -0.005 C 
ATOM     27  C   UNL     1      33.301 -19.703 -21.150  0.00  0.00    -0.003 C 
ATOM     28  C   UNL     1      35.269 -20.803 -20.282  0.00  0.00    -0.003 C 
ATOM     29  C   UNL     1      32.498 -20.482 -20.316  0.00  0.00    -0.000 C 
ATOM     30  C   UNL     1      34.466 -21.581 -19.448  0.00  0.00    -0.000 C 
ATOM     31  C   UNL     1      33.081 -21.421 -19.466  0.00  0.00    -0.000 C 
ENDBRANCH  24  26
ENDBRANCH   2  24
TORSDOF 7
ENDMDL
MODEL 2
REMARK VINA RESULT:     -11.2      7.841     13.072
REMARK  Name = 24941248
REMARK  7 active torsions:
REMARK  status: ('A' for Active; 'I' for Inactive)
REMARK    1  A    between atoms: N_2  and  C_24
REMARK    2  A    between atoms: C_6  and  C_14
REMARK    3  A    between atoms: C_13  and  C_19
REMARK    4  A    between atoms: C_19  and  C_20
REMARK    5  A    between atoms: C_20  and  C_21
REMARK    6  A    between atoms: C_21  and  O_22
REMARK    7  A    between atoms: C_24  and  C_26
REMARK                            x       y       z     vdW  Elec       q    Type
REMARK                         _______ _______ _______ _____ _____    ______ ____
ROOT
ATOM      1  O   UNL     1      31.240 -24.230 -14.665  0.00  0.00    -0.352 OA
ATOM      2  N   UNL     1      34.096 -22.027 -18.723  0.00  0.00    -0.316 N 
ATOM      3  N   UNL     1      32.222 -24.607 -13.758  0.00  0.00    -0.077 NA
ATOM      4  N   UNL     1      31.960 -22.610 -17.847  0.00  0.00    -0.226 NA
ATOM      5  C   UNL     1      33.199 -23.640 -15.580  0.00  0.00    +0.062 A 
ATOM      6  C   UNL     1      33.380 -24.248 -14.322  0.00  0.00    +0.123 A 
ATOM      7  C   UNL     1      33.308 -22.593 -17.687  0.00  0.00    +0.129 C 
ATOM      8  C   UNL     1      33.997 -23.088 -16.583  0.00  0.00    +0.039 C 
ATOM      9  C   UNL     1      31.825 -23.655 -15.749  0.00  0.00    +0.196 A 
ATOM     10  C   UNL     1      31.192 -23.147 -16.868  0.00  0.00    +0.140 C 
ATOM     11  H   UNL     1      35.075 -22.008 -18.617  0.00  0.00    +0.148 HD
ENDROOT
BRANCH   6  14
ATOM     12 CL   UNL     1      36.311 -23.574 -10.134  0.00  0.00    -0.082 Cl
ATOM     13  C   UNL     1      36.826 -25.490 -13.607  0.00  0.00    -0.021 C 
ATOM     14  C   UNL     1      34.626 -24.494 -13.644  0.00  0.00    +0.021 C 
ATOM     15  C   UNL     1      35.620 -25.251 -14.264  0.00  0.00    -0.003 C 
ATOM     16  C   UNL     1      37.040 -24.971 -12.330  0.00  0.00    +0.007 C 
ATOM     17  C   UNL     1      34.840 -23.975 -12.367  0.00  0.00    +0.013 C 
ATOM     18  C   UNL     1      36.046 -24.214 -11.710  0.00  0.00    +0.057 C 
BRANCH  13  19
ATOM     19  C   UNL     1      37.888 -26.301 -14.270  0.00  0.00    +0.029 C 
BRANCH  19  20
ATOM     20  C   UNL     1      39.299 -25.820 -13.905  0.00  0.00    +0.036 C 
BRANCH  20  21
ATOM     21  C   UNL     1      39.999 -25.153 -15.080  0.00  0.00    +0.138 C 
BRANCH  21  22
ATOM     22  O   UNL     1      40.014 -26.055 -16.178  0.00  0.00    -0.382 OA
ATOM     23  H   UNL     1      39.141 -26.468 -16.267  0.00  0.00    +0.210 HD
ENDBRANCH  21  22
ENDBRANCH  20  21
ENDBRANCH  19  20
ENDBRANCH  13  19
ENDBRANCH   6  14
BRANCH   2  24
ATOM     24  C   UNL     1      33.527 -21.483 -19.912  0.00  0.00    +0.093 C 
ATOM     25  C   UNL     1      32.163 -20.877 -19.592  0.00  0.00    +0.026 C 
BRANCH  24  26
ATOM     26  C   UNL     1      34.481 -20.493 -20.543  0.00  0.00    -0.005 C 
ATOM     27  C   UNL     1      34.019 -19.594 -21.503  0.00  0.00    -0.003 C 
ATOM     28  C   UNL     1      35.824 -20.479 -20.163  0.00  0.00    -0.003 C 
ATOM     29  C   UNL     1      34.899 -18.681 -22.086  0.00  0.00    -0.000 C 
ATOM     30  C   UNL     1      36.703 -19.567 -20.745  0.00  0.00    -0.000 C 
ATOM     31  C   UNL     1      36.241 -18.667 -21.706  0.00  0.00    -0.000 C 
ENDBRANCH  24  26
ENDBRANCH   2  24
TORSDOF 7
ENDMDL
MODEL 3
REMARK VINA RESULT:     -11.0      1.948      2.949
REMARK  Name = 24941248
REMARK  7 active torsions:
REMARK  status: ('A' for Active; 'I' for Inactive)
REMARK    1  A    between atoms: N_2  and  C_24
REMARK    2  A    between atoms: C_6  and  C_14
REMARK    3  A    between atoms: C_13  and  C_19
REMARK    4  A    between atoms: C_19  and  C_20
REMARK    5  A    between atoms: C_20  and  C_21
REMARK    6  A    between atoms: C_21  and  O_22
REMARK    7  A    between atoms: C_24  and  C_26
REMARK                            x       y       z     vdW  Elec       q    Type
REMARK                         _______ _______ _______ _____ _____    ______ ____
ROOT
ATOM      1  O   UNL     1      33.305 -15.221 -26.660  0.00  0.00    -0.352 OA
ATOM      2  N   UNL     1      35.024 -17.678 -22.134  0.00  0.00    -0.316 N 
ATOM      3  N   UNL     1      32.905 -13.970 -26.205  0.00  0.00    -0.077 NA
ATOM      4  N   UNL     1      34.668 -17.806 -24.485  0.00  0.00    -0.226 NA
ATOM      5  C   UNL     1      33.680 -15.206 -24.450  0.00  0.00    +0.062 A 
ATOM      6  C   UNL     1      33.136 -13.982 -24.889  0.00  0.00    +0.123 A 
ATOM      7  C   UNL     1      34.586 -17.076 -23.342  0.00  0.00    +0.129 C 
ATOM      8  C   UNL     1      34.104 -15.774 -23.248  0.00  0.00    +0.039 C 
ATOM      9  C   UNL     1      33.765 -15.954 -25.611  0.00  0.00    +0.196 A 
ATOM     10  C   UNL     1      34.254 -17.246 -25.648  0.00  0.00    +0.140 C 
ATOM     11  H   UNL     1      34.970 -17.158 -21.299  0.00  0.00    +0.148 HD
ENDROOT
BRANCH   6  14
ATOM     12 CL   UNL     1      31.275 -12.058 -20.482  0.00  0.00    -0.082 Cl
ATOM     13  C   UNL     1      32.810 -10.428 -23.798  0.00  0.00    -0.021 C 
ATOM     14  C   UNL     1      32.832 -12.826 -24.087  0.00  0.00    +0.021 C 
ATOM     15  C   UNL     1      33.103 -11.548 -24.575  0.00  0.00    -0.003 C 
ATOM     16  C   UNL     1      32.244 -10.586 -22.532  0.00  0.00    +0.007 C 
ATOM     17  C   UNL     1      32.267 -12.984 -22.821  0.00  0.00    +0.013 C 
ATOM     18  C   UNL     1      31.973 -11.864 -22.044  0.00  0.00    +0.057 C 
BRANCH  13  19
ATOM     19  C   UNL     1      33.101  -9.061 -24.319  0.00  0.00    +0.029 C 
BRANCH  19  20
ATOM     20  C   UNL     1      34.535  -8.614 -24.009  0.00  0.00    +0.036 C 
BRANCH  20  21
ATOM     21  C   UNL     1      35.392  -8.524 -25.264  0.00  0.00    +0.138 C 
BRANCH  21  22
ATOM     22  O   UNL     1      34.887  -7.485 -26.091  0.00  0.00    -0.382 OA
ATOM     23  H   UNL     1      35.038  -6.629 -25.661  0.00  0.00    +0.210 HD
ENDBRANCH  21  22
ENDBRANCH  20  21
ENDBRANCH  19  20
ENDBRANCH  13  19
ENDBRANCH   6  14
BRANCH   2  24
ATOM     24  C   UNL     1      35.539 -19.006 -22.079  0.00  0.00    +0.093 C 
ATOM     25  C   UNL     1      37.007 -18.966 -21.664  0.00  0.00    +0.026 C 
BRANCH  24  26
ATOM     26  C   UNL     1      34.689 -19.860 -21.163  0.00  0.00    -0.005 C 
ATOM     27  C   UNL     1      35.293 -20.781 -20.309  0.00  0.00    -0.003 C 
ATOM     28  C   UNL     1      33.300 -19.724 -21.173  0.00  0.00    -0.003 C 
ATOM     29  C   UNL     1      34.509 -21.569 -19.465  0.00  0.00    -0.000 C 
ATOM     30  C   UNL     1      32.517 -20.511 -20.329  0.00  0.00    -0.000 C 
ATOM     31  C   UNL     1      33.121 -21.432 -19.474  0.00  0.00    -0.000 C 
ENDBRANCH  24  26
ENDBRANCH   2  24
TORSDOF 7
ENDMDL
MODEL 4
REMARK VINA RESULT:     -10.0      3.740      8.708
REMARK  Name = 24941248
REMARK  7 active torsions:
REMARK  status: ('A' for Active; 'I' for Inactive)
REMARK    1  A    between atoms: N_2  and  C_24
REMARK    2  A    between atoms: C_6  and  C_14
REMARK    3  A    between atoms: C_13  and  C_19
REMARK    4  A    between atoms: C_19  and  C_20
REMARK    5  A    between atoms: C_20  and  C_21
REMARK    6  A    between atoms: C_21  and  O_22
REMARK    7  A    between atoms: C_24  and  C_26
REMARK                            x       y       z     vdW  Elec       q    Type
REMARK                         _______ _______ _______ _____ _____    ______ ____
ROOT
ATOM      1  O   UNL     1      32.345 -18.286 -26.746  0.00  0.00    -0.352 OA
ATOM      2  N   UNL     1      33.720 -13.242 -25.282  0.00  0.00    -0.316 N 
ATOM      3  N   UNL     1      32.836 -19.061 -25.703  0.00  0.00    -0.077 NA
ATOM      4  N   UNL     1      32.674 -14.661 -26.883  0.00  0.00    -0.226 NA
ATOM      5  C   UNL     1      33.303 -16.863 -25.304  0.00  0.00    +0.062 A 
ATOM      6  C   UNL     1      33.403 -18.195 -24.856  0.00  0.00    +0.123 A 
ATOM      7  C   UNL     1      33.340 -14.543 -25.705  0.00  0.00    +0.129 C 
ATOM      8  C   UNL     1      33.688 -15.596 -24.864  0.00  0.00    +0.039 C 
ATOM      9  C   UNL     1      32.625 -16.978 -26.505  0.00  0.00    +0.196 A 
ATOM     10  C   UNL     1      32.304 -15.896 -27.302  0.00  0.00    +0.140 C 
ATOM     11  H   UNL     1      34.203 -13.144 -24.429  0.00  0.00    +0.148 HD
ENDROOT
BRANCH   6  14
ATOM     12 CL   UNL     1      37.685 -18.739 -22.036  0.00  0.00    -0.082 Cl
ATOM     13  C   UNL     1      33.851 -19.738 -21.487  0.00  0.00    -0.021 C 
ATOM     14  C   UNL     1      34.022 -18.663 -23.644  0.00  0.00    +0.021 C 
ATOM     15  C   UNL     1      33.251 -19.286 -22.662  0.00  0.00    -0.003 C 
ATOM     16  C   UNL     1      35.222 -19.569 -21.294  0.00  0.00    +0.007 C 
ATOM     17  C   UNL     1      35.393 -18.494 -23.450  0.00  0.00    +0.013 C 
ATOM     18  C   UNL     1      35.993 -18.947 -22.275  0.00  0.00    +0.057 C 
BRANCH  13  19
ATOM     19  C   UNL     1      33.026 -20.402 -20.437  0.00  0.00    +0.029 C 
BRANCH  19  20
ATOM     20  C   UNL     1      33.876 -21.251 -19.481  0.00  0.00    +0.036 C 
BRANCH  20  21
ATOM     21  C   UNL     1      33.065 -22.358 -18.823  0.00  0.00    +0.138 C 
BRANCH  21  22
ATOM     22  O   UNL     1      33.488 -23.610 -19.347  0.00  0.00    -0.382 OA
ATOM     23  H   UNL     1      33.024 -23.785 -20.180  0.00  0.00    +0.210 HD
ENDBRANCH  21  22
ENDBRANCH  20  21
ENDBRANCH  19  20
ENDBRANCH  13  19
ENDBRANCH   6  14
BRANCH   2  24
ATOM     24  C   UNL     1      33.432 -12.071 -26.042  0.00  0.00    +0.093 C 
ATOM     25  C   UNL     1      31.960 -12.076 -26.445  0.00  0.00    +0.026 C 
BRANCH  24  26
ATOM     26  C   UNL     1      33.830 -10.834 -25.268  0.00  0.00    -0.005 C 
ATOM     27  C   UNL     1      35.103 -10.289 -25.429  0.00  0.00    -0.003 C 
ATOM     28  C   UNL     1      32.922 -10.237 -24.393  0.00  0.00    -0.003 C 
ATOM     29  C   UNL     1      35.470  -9.148 -24.714  0.00  0.00    -0.000 C 
ATOM     30  C   UNL     1      33.288  -9.097 -23.679  0.00  0.00    -0.000 C 
ATOM     31  C   UNL     1      34.562  -8.551 -23.840  0.00  0.00    -0.000 C 
ENDBRANCH  24  26
ENDBRANCH   2  24
TORSDOF 7
ENDMDL
MODEL 5
REMARK VINA RESULT:      -9.8      2.398      4.350
REMARK  Name = 24941248
REMARK  7 active torsions:
REMARK  status: ('A' for Active; 'I' for Inactive)
REMARK    1  A    between atoms: N_2  and  C_24
REMARK    2  A    between atoms: C_6  and  C_14
REMARK    3  A    between atoms: C_13  and  C_19
REMARK    4  A    between atoms: C_19  and  C_20
REMARK    5  A    between atoms: C_20  and  C_21
REMARK    6  A    between atoms: C_21  and  O_22
REMARK    7  A    between atoms: C_24  and  C_26
REMARK                            x       y       z     vdW  Elec       q    Type
REMARK                         _______ _______ _______ _____ _____    ______ ____
ROOT
ATOM      1  O   UNL     1      33.667 -13.615 -20.853  0.00  0.00    -0.352 OA
ATOM      2  N   UNL     1      35.484 -18.209 -23.106  0.00  0.00    -0.316 N 
ATOM      3  N   UNL     1      33.338 -12.834 -21.954  0.00  0.00    -0.077 NA
ATOM      4  N   UNL     1      35.019 -16.987 -21.115  0.00  0.00    -0.226 NA
ATOM      5  C   UNL     1      34.139 -14.850 -22.663  0.00  0.00    +0.062 A 
ATOM      6  C   UNL     1      33.627 -13.587 -23.020  0.00  0.00    +0.123 A 
ATOM      7  C   UNL     1      35.017 -17.027 -22.473  0.00  0.00    +0.129 C 
ATOM      8  C   UNL     1      34.592 -16.000 -23.311  0.00  0.00    +0.039 C 
ATOM      9  C   UNL     1      34.144 -14.815 -21.279  0.00  0.00    +0.196 A 
ATOM     10  C   UNL     1      34.577 -15.867 -20.494  0.00  0.00    +0.140 C 
ATOM     11  H   UNL     1      35.486 -18.249 -24.090  0.00  0.00    +0.148 HD
ENDROOT
BRANCH   6  14
ATOM     12 CL   UNL     1      33.827  -9.612 -26.298  0.00  0.00    -0.082 Cl
ATOM     13  C   UNL     1      32.692 -13.433 -26.630  0.00  0.00    -0.021 C 
ATOM     14  C   UNL     1      33.405 -13.081 -24.350  0.00  0.00    +0.021 C 
ATOM     15  C   UNL     1      32.906 -13.923 -25.342  0.00  0.00    -0.003 C 
ATOM     16  C   UNL     1      32.977 -12.100 -26.926  0.00  0.00    +0.007 C 
ATOM     17  C   UNL     1      33.690 -11.747 -24.645  0.00  0.00    +0.013 C 
ATOM     18  C   UNL     1      33.476 -11.257 -25.933  0.00  0.00    +0.057 C 
BRANCH  13  19
ATOM     19  C   UNL     1      32.159 -14.335 -27.693  0.00  0.00    +0.029 C 
BRANCH  19  20
ATOM     20  C   UNL     1      32.447 -15.813 -27.399  0.00  0.00    +0.036 C 
BRANCH  20  21
ATOM     21  C   UNL     1      31.173 -16.640 -27.317  0.00  0.00    +0.138 C 
BRANCH  21  22
ATOM     22  O   UNL     1      31.108 -17.257 -26.038  0.00  0.00    -0.382 OA
ATOM     23  H   UNL     1      30.920 -16.585 -25.365  0.00  0.00    +0.210 HD
ENDBRANCH  21  22
ENDBRANCH  20  21
ENDBRANCH  19  20
ENDBRANCH  13  19
ENDBRANCH   6  14
BRANCH   2  24
ATOM     24  C   UNL     1      35.951 -19.340 -22.374  0.00  0.00    +0.093 C 
ATOM     25  C   UNL     1      37.198 -18.954 -21.583  0.00  0.00    +0.026 C 
BRANCH  24  26
ATOM     26  C   UNL     1      34.845 -19.892 -21.502  0.00  0.00    -0.005 C 
ATOM     27  C   UNL     1      33.514 -19.600 -21.796  0.00  0.00    -0.003 C 
ATOM     28  C   UNL     1      35.157 -20.693 -20.403  0.00  0.00    -0.003 C 
ATOM     29  C   UNL     1      32.493 -20.109 -20.991  0.00  0.00    -0.000 C 
ATOM     30  C   UNL     1      34.138 -21.201 -19.599  0.00  0.00    -0.000 C 
ATOM     31  C   UNL     1      32.806 -20.910 -19.893  0.00  0.00    -0.000 C 
ENDBRANCH  24  26
ENDBRANCH   2  24
TORSDOF 7
ENDMDL
MODEL 6
REMARK VINA RESULT:      -9.7      1.828      2.680
REMARK  Name = 24941248
REMARK  7 active torsions:
REMARK  status: ('A' for Active; 'I' for Inactive)
REMARK    1  A    between atoms: N_2  and  C_24
REMARK    2  A    between atoms: C_6  and  C_14
REMARK    3  A    between atoms: C_13  and  C_19
REMARK    4  A    between atoms: C_19  and  C_20
REMARK    5  A    between atoms: C_20  and  C_21
REMARK    6  A    between atoms: C_21  and  O_22
REMARK    7  A    between atoms: C_24  and  C_26
REMARK                            x       y       z     vdW  Elec       q    Type
REMARK                         _______ _______ _______ _____ _____    ______ ____
ROOT
ATOM      1  O   UNL     1      31.988 -13.865 -28.175  0.00  0.00    -0.352 OA
ATOM      2  N   UNL     1      33.719 -16.886 -24.008  0.00  0.00    -0.316 N 
ATOM      3  N   UNL     1      32.230 -12.567 -27.744  0.00  0.00    -0.077 NA
ATOM      4  N   UNL     1      32.756 -16.818 -26.186  0.00  0.00    -0.226 NA
ATOM      5  C   UNL     1      32.888 -14.041 -26.130  0.00  0.00    +0.062 A 
ATOM      6  C   UNL     1      32.765 -12.693 -26.525  0.00  0.00    +0.123 A 
ATOM      7  C   UNL     1      33.255 -16.137 -25.122  0.00  0.00    +0.129 C 
ATOM      8  C   UNL     1      33.352 -14.752 -25.023  0.00  0.00    +0.039 C 
ATOM      9  C   UNL     1      32.381 -14.740 -27.211  0.00  0.00    +0.196 A 
ATOM     10  C   UNL     1      32.309 -16.119 -27.257  0.00  0.00    +0.140 C 
ATOM     11  H   UNL     1      34.083 -16.402 -23.231  0.00  0.00    +0.148 HD
ENDROOT
BRANCH   6  14
ATOM     12 CL   UNL     1      35.562  -8.372 -26.232  0.00  0.00    -0.082 Cl
ATOM     13  C   UNL     1      32.960 -10.169 -23.783  0.00  0.00    -0.021 C 
ATOM     14  C   UNL     1      33.144 -11.526 -25.772  0.00  0.00    +0.021 C 
ATOM     15  C   UNL     1      32.593 -11.301 -24.511  0.00  0.00    -0.003 C 
ATOM     16  C   UNL     1      33.878  -9.264 -24.315  0.00  0.00    +0.007 C 
ATOM     17  C   UNL     1      34.063 -10.621 -26.305  0.00  0.00    +0.013 C 
ATOM     18  C   UNL     1      34.429  -9.490 -25.576  0.00  0.00    +0.057 C 
BRANCH  13  19
ATOM     19  C   UNL     1      32.370  -9.927 -22.434  0.00  0.00    +0.029 C 
BRANCH  19  20
ATOM     20  C   UNL     1      32.613  -8.494 -21.942  0.00  0.00    +0.036 C 
BRANCH  20  21
ATOM     21  C   UNL     1      32.283  -8.331 -20.466  0.00  0.00    +0.138 C 
BRANCH  21  22
ATOM     22  O   UNL     1      33.314  -7.575 -19.845  0.00  0.00    -0.382 OA
ATOM     23  H   UNL     1      33.457  -6.756 -20.343  0.00  0.00    +0.210 HD
ENDBRANCH  21  22
ENDBRANCH  20  21
ENDBRANCH  19  20
ENDBRANCH  13  19
ENDBRANCH   6  14
BRANCH   2  24
ATOM     24  C   UNL     1      33.679 -18.310 -23.969  0.00  0.00    +0.093 C 
ATOM     25  C   UNL     1      34.222 -18.871 -25.281  0.00  0.00    +0.026 C 
BRANCH  24  26
ATOM     26  C   UNL     1      34.422 -18.821 -22.755  0.00  0.00    -0.005 C 
ATOM     27  C   UNL     1      33.755 -19.584 -21.798  0.00  0.00    -0.003 C 
ATOM     28  C   UNL     1      35.777 -18.529 -22.593  0.00  0.00    -0.003 C 
ATOM     29  C   UNL     1      34.441 -20.055 -20.677  0.00  0.00    -0.000 C 
ATOM     30  C   UNL     1      36.463 -18.999 -21.473  0.00  0.00    -0.000 C 
ATOM     31  C   UNL     1      35.795 -19.763 -20.516  0.00  0.00    -0.000 C 
ENDBRANCH  24  26
ENDBRANCH   2  24
TORSDOF 7
ENDMDL
MODEL 7
REMARK VINA RESULT:      -9.6     10.538     12.230
REMARK  Name = 24941248
REMARK  7 active torsions:
REMARK  status: ('A' for Active; 'I' for Inactive)
REMARK    1  A    between atoms: N_2  and  C_24
REMARK    2  A    between atoms: C_6  and  C_14
REMARK    3  A    between atoms: C_13  and  C_19
REMARK    4  A    between atoms: C_19  and  C_20
REMARK    5  A    between atoms: C_20  and  C_21
REMARK    6  A    between atoms: C_21  and  O_22
REMARK    7  A    between atoms: C_24  and  C_26
REMARK                            x       y       z     vdW  Elec       q    Type
REMARK                         _______ _______ _______ _____ _____    ______ ____
ROOT
ATOM      1  O   UNL     1      33.512 -22.545 -18.147  0.00  0.00    -0.352 OA
ATOM      2  N   UNL     1      35.121 -23.622 -13.075  0.00  0.00    -0.316 N 
ATOM      3  N   UNL     1      32.138 -22.744 -18.090  0.00  0.00    -0.077 NA
ATOM      4  N   UNL     1      35.725 -22.977 -15.286  0.00  0.00    -0.226 NA
ATOM      5  C   UNL     1      33.052 -23.145 -16.037  0.00  0.00    +0.062 A 
ATOM      6  C   UNL     1      31.886 -23.101 -16.826  0.00  0.00    +0.123 A 
ATOM      7  C   UNL     1      34.747 -23.331 -14.412  0.00  0.00    +0.129 C 
ATOM      8  C   UNL     1      33.393 -23.435 -14.715  0.00  0.00    +0.039 C 
ATOM      9  C   UNL     1      34.053 -22.785 -16.923  0.00  0.00    +0.196 A 
ATOM     10  C   UNL     1      35.385 -22.696 -16.567  0.00  0.00    +0.140 C 
ATOM     11  H   UNL     1      34.420 -23.879 -12.432  0.00  0.00    +0.148 HD
ENDROOT
BRANCH   6  14
ATOM     12 CL   UNL     1      28.654 -26.152 -14.214  0.00  0.00    -0.082 Cl
ATOM     13  C   UNL     1      28.188 -22.832 -16.395  0.00  0.00    -0.021 C 
ATOM     14  C   UNL     1      30.539 -23.388 -16.408  0.00  0.00    +0.021 C 
ATOM     15  C   UNL     1      29.493 -22.554 -16.802  0.00  0.00    -0.003 C 
ATOM     16  C   UNL     1      27.929 -23.945 -15.595  0.00  0.00    +0.007 C 
ATOM     17  C   UNL     1      30.279 -24.501 -15.607  0.00  0.00    +0.013 C 
ATOM     18  C   UNL     1      28.974 -24.779 -15.201  0.00  0.00    +0.057 C 
BRANCH  13  19
ATOM     19  C   UNL     1      27.070 -21.939 -16.816  0.00  0.00    +0.029 C 
BRANCH  19  20
ATOM     20  C   UNL     1      26.395 -22.422 -18.107  0.00  0.00    +0.036 C 
BRANCH  20  21
ATOM     21  C   UNL     1      25.570 -21.326 -18.766  0.00  0.00    +0.138 C 
BRANCH  21  22
ATOM     22  O   UNL     1      25.580 -20.177 -17.930  0.00  0.00    -0.382 OA
ATOM     23  H   UNL     1      26.075 -19.466 -18.365  0.00  0.00    +0.210 HD
ENDBRANCH  21  22
ENDBRANCH  20  21
ENDBRANCH  19  20
ENDBRANCH  13  19
ENDBRANCH   6  14
BRANCH   2  24
ATOM     24  C   UNL     1      36.472 -23.558 -12.623  0.00  0.00    +0.093 C 
ATOM     25  C   UNL     1      36.505 -23.669 -11.100  0.00  0.00    +0.026 C 
BRANCH  24  26
ATOM     26  C   UNL     1      37.304 -24.618 -13.310  0.00  0.00    -0.005 C 
ATOM     27  C   UNL     1      36.719 -25.822 -13.698  0.00  0.00    -0.003 C 
ATOM     28  C   UNL     1      38.658 -24.390 -13.557  0.00  0.00    -0.003 C 
ATOM     29  C   UNL     1      37.487 -26.800 -14.332  0.00  0.00    -0.000 C 
ATOM     30  C   UNL     1      39.426 -25.367 -14.190  0.00  0.00    -0.000 C 
ATOM     31  C   UNL     1      38.840 -26.571 -14.579  0.00  0.00    -0.000 C 
ENDBRANCH  24  26
ENDBRANCH   2  24
TORSDOF 7
ENDMDL
MODEL 8
REMARK VINA RESULT:      -9.6      7.740     12.547
REMARK  Name = 24941248
REMARK  7 active torsions:
REMARK  status: ('A' for Active; 'I' for Inactive)
REMARK    1  A    between atoms: N_2  and  C_24
REMARK    2  A    between atoms: C_6  and  C_14
REMARK    3  A    between atoms: C_13  and  C_19
REMARK    4  A    between atoms: C_19  and  C_20
REMARK    5  A    between atoms: C_20  and  C_21
REMARK    6  A    between atoms: C_21  and  O_22
REMARK    7  A    between atoms: C_24  and  C_26
REMARK                            x       y       z     vdW  Elec       q    Type
REMARK                         _______ _______ _______ _____ _____    ______ ____
ROOT
ATOM      1  O   UNL     1      31.736 -24.167 -15.245  0.00  0.00    -0.352 OA
ATOM      2  N   UNL     1      34.162 -21.580 -19.356  0.00  0.00    -0.316 N 
ATOM      3  N   UNL     1      32.804 -24.567 -14.451  0.00  0.00    -0.077 NA
ATOM      4  N   UNL     1      32.128 -22.305 -18.351  0.00  0.00    -0.226 NA
ATOM      5  C   UNL     1      33.589 -23.439 -16.273  0.00  0.00    +0.062 A 
ATOM      6  C   UNL     1      33.897 -24.124 -15.081  0.00  0.00    +0.123 A 
ATOM      7  C   UNL     1      33.484 -22.247 -18.302  0.00  0.00    +0.129 C 
ATOM      8  C   UNL     1      34.280 -22.789 -17.297  0.00  0.00    +0.039 C 
ATOM      9  C   UNL     1      32.208 -23.496 -16.329  0.00  0.00    +0.196 A 
ATOM     10  C   UNL     1      31.465 -22.938 -17.353  0.00  0.00    +0.140 C 
ATOM     11  H   UNL     1      35.146 -21.530 -19.330  0.00  0.00    +0.148 HD
ENDROOT
BRANCH   6  14
ATOM     12 CL   UNL     1      38.317 -26.773 -15.248  0.00  0.00    -0.082 Cl
ATOM     13  C   UNL     1      36.909 -23.864 -12.892  0.00  0.00    -0.021 C 
ATOM     14  C   UNL     1      35.203 -24.367 -14.527  0.00  0.00    +0.021 C 
ATOM     15  C   UNL     1      35.642 -23.630 -13.428  0.00  0.00    -0.003 C 
ATOM     16  C   UNL     1      37.736 -24.836 -13.455  0.00  0.00    +0.007 C 
ATOM     17  C   UNL     1      36.030 -25.339 -15.090  0.00  0.00    +0.013 C 
ATOM     18  C   UNL     1      37.297 -25.573 -14.554  0.00  0.00    +0.057 C 
BRANCH  13  19
ATOM     19  C   UNL     1      37.379 -23.074 -11.717  0.00  0.00    +0.029 C 
BRANCH  19  20
ATOM     20  C   UNL     1      36.429 -23.194 -10.519  0.00  0.00    +0.036 C 
BRANCH  20  21
ATOM     21  C   UNL     1      35.403 -24.302 -10.708  0.00  0.00    +0.138 C 
BRANCH  21  22
ATOM     22  O   UNL     1      34.950 -24.732  -9.431  0.00  0.00    -0.382 OA
ATOM     23  H   UNL     1      34.155 -24.233  -9.187  0.00  0.00    +0.210 HD
ENDBRANCH  21  22
ENDBRANCH  20  21
ENDBRANCH  19  20
ENDBRANCH  13  19
ENDBRANCH   6  14
BRANCH   2  24
ATOM     24  C   UNL     1      33.476 -20.979 -20.452  0.00  0.00    +0.093 C 
ATOM     25  C   UNL     1      32.206 -20.301 -19.946  0.00  0.00    +0.026 C 
BRANCH  24  26
ATOM     26  C   UNL     1      34.398 -20.033 -21.190  0.00  0.00    -0.005 C 
ATOM     27  C   UNL     1      33.932 -19.328 -22.298  0.00  0.00    -0.003 C 
ATOM     28  C   UNL     1      35.715 -19.866 -20.761  0.00  0.00    -0.003 C 
ATOM     29  C   UNL     1      34.782 -18.456 -22.980  0.00  0.00    -0.000 C 
ATOM     30  C   UNL     1      36.565 -18.995 -21.442  0.00  0.00    -0.000 C 
ATOM     31  C   UNL     1      36.098 -18.289 -22.551  0.00  0.00    -0.000 C 
ENDBRANCH  24  26
ENDBRANCH   2  24
TORSDOF 7
ENDMDL
MODEL 9
REMARK VINA RESULT:      -9.4      4.511      7.381
REMARK  Name = 24941248
REMARK  7 active torsions:
REMARK  status: ('A' for Active; 'I' for Inactive)
REMARK    1  A    between atoms: N_2  and  C_24
REMARK    2  A    between atoms: C_6  and  C_14
REMARK    3  A    between atoms: C_13  and  C_19
REMARK    4  A    between atoms: C_19  and  C_20
REMARK    5  A    between atoms: C_20  and  C_21
REMARK    6  A    between atoms: C_21  and  O_22
REMARK    7  A    between atoms: C_24  and  C_26
REMARK                            x       y       z     vdW  Elec       q    Type
REMARK                         _______ _______ _______ _____ _____    ______ ____
ROOT
ATOM      1  O   UNL     1      37.484 -20.047 -20.219  0.00  0.00    -0.352 OA
ATOM      2  N   UNL     1      32.802 -22.276 -18.609  0.00  0.00    -0.316 N 
ATOM      3  N   UNL     1      37.086 -19.171 -21.221  0.00  0.00    -0.077 NA
ATOM      4  N   UNL     1      35.166 -22.149 -18.353  0.00  0.00    -0.226 NA
ATOM      5  C   UNL     1      35.257 -20.243 -20.377  0.00  0.00    +0.062 A 
ATOM      6  C   UNL     1      35.758 -19.304 -21.300  0.00  0.00    +0.123 A 
ATOM      7  C   UNL     1      34.049 -21.720 -18.996  0.00  0.00    +0.129 C 
ATOM      8  C   UNL     1      34.017 -20.773 -20.015  0.00  0.00    +0.039 C 
ATOM      9  C   UNL     1      36.391 -20.684 -19.719  0.00  0.00    +0.196 A 
ATOM     10  C   UNL     1      36.365 -21.629 -18.711  0.00  0.00    +0.140 C 
ATOM     11  H   UNL     1      31.985 -21.972 -19.068  0.00  0.00    +0.148 HD
ENDROOT
BRANCH   6  14
ATOM     12 CL   UNL     1      34.030 -14.693 -22.829  0.00  0.00    -0.082 Cl
ATOM     13  C   UNL     1      33.658 -18.412 -24.254  0.00  0.00    -0.021 C 
ATOM     14  C   UNL     1      35.005 -18.530 -22.253  0.00  0.00    +0.021 C 
ATOM     15  C   UNL     1      34.386 -19.162 -23.331  0.00  0.00    -0.003 C 
ATOM     16  C   UNL     1      33.548 -17.030 -24.099  0.00  0.00    +0.007 C 
ATOM     17  C   UNL     1      34.895 -17.148 -22.097  0.00  0.00    +0.013 C 
ATOM     18  C   UNL     1      34.167 -16.398 -23.021  0.00  0.00    +0.057 C 
BRANCH  13  19
ATOM     19  C   UNL     1      32.997 -19.088 -25.408  0.00  0.00    +0.029 C 
BRANCH  19  20
ATOM     20  C   UNL     1      31.641 -18.458 -25.751  0.00  0.00    +0.036 C 
BRANCH  20  21
ATOM     21  C   UNL     1      31.684 -17.682 -27.060  0.00  0.00    +0.138 C 
BRANCH  21  22
ATOM     22  O   UNL     1      30.815 -16.562 -26.959  0.00  0.00    -0.382 OA
ATOM     23  H   UNL     1      29.952 -16.789 -27.338  0.00  0.00    +0.210 HD
ENDBRANCH  21  22
ENDBRANCH  20  21
ENDBRANCH  19  20
ENDBRANCH  13  19
ENDBRANCH   6  14
BRANCH   2  24
ATOM     24  C   UNL     1      32.683 -23.257 -17.581  0.00  0.00    +0.093 C 
ATOM     25  C   UNL     1      33.966 -23.285 -16.754  0.00  0.00    +0.026 C 
BRANCH  24  26
ATOM     26  C   UNL     1      31.448 -22.995 -16.748  0.00  0.00    -0.005 C 
ATOM     27  C   UNL     1      31.516 -23.071 -15.358  0.00  0.00    -0.003 C 
ATOM     28  C   UNL     1      30.241 -22.677 -17.371  0.00  0.00    -0.003 C 
ATOM     29  C   UNL     1      30.376 -22.830 -14.588  0.00  0.00    -0.000 C 
ATOM     30  C   UNL     1      29.102 -22.436 -16.603  0.00  0.00    -0.000 C 
ATOM     31  C   UNL     1      29.170 -22.511 -15.212  0.00  0.00    -0.000 C 
ENDBRANCH  24  26
ENDBRANCH   2  24
TORSDOF 7
ENDMDL
