MODEL 1
REMARK VINA RESULT:     -11.9      0.000      0.000
REMARK  Name = 3151
REMARK  5 active torsions:
REMARK  status: ('A' for Active; 'I' for Inactive)
REMARK    1  A    between atoms: N_1  and  C_20
REMARK    2  A    between atoms: C_2  and  N_10
REMARK    3  A    between atoms: C_20  and  C_21
REMARK    4  A    between atoms: C_21  and  C_22
REMARK    5  A    between atoms: C_22  and  N_24
REMARK                            x       y       z     vdW  Elec       q    Type
REMARK                         _______ _______ _______ _____ _____    ______ ____
ROOT
ATOM      1  N   UNL     1      34.923 -20.846 -19.405  0.00  0.00    +0.387 N 
ATOM      2  C   UNL     1      34.632 -19.207 -21.811  0.00  0.00    +0.086 C 
ATOM      3  C   UNL     1      35.919 -19.225 -20.988  0.00  0.00    -0.000 C 
ATOM      4  C   UNL     1      33.439 -19.591 -20.935  0.00  0.00    -0.000 C 
ATOM      5  C   UNL     1      36.089 -20.556 -20.252  0.00  0.00    -0.075 C 
ATOM      6  C   UNL     1      33.690 -20.911 -20.203  0.00  0.00    -0.075 C 
ATOM      7  H   UNL     1      34.824 -20.085 -18.735  0.00  0.00    -0.080 HD
ENDROOT
BRANCH   2  10
ATOM      8 CL   UNL     1      32.484 -16.158 -27.656  0.00  0.00    -0.082 Cl
ATOM      9  O   UNL     1      35.122 -16.417 -20.712  0.00  0.00    -0.247 OA
ATOM     10  N   UNL     1      34.432 -17.917 -22.423  0.00  0.00    -0.282 N 
ATOM     11  N   UNL     1      34.338 -15.687 -22.820  0.00  0.00    -0.305 N 
ATOM     12  C   UNL     1      33.942 -17.728 -23.722  0.00  0.00    +0.079 A 
ATOM     13  C   UNL     1      34.690 -16.651 -21.832  0.00  0.00    +0.328 A 
ATOM     14  C   UNL     1      33.888 -16.355 -23.959  0.00  0.00    +0.077 A 
ATOM     15  C   UNL     1      33.553 -18.641 -24.680  0.00  0.00    +0.020 C 
ATOM     16  C   UNL     1      33.446 -15.829 -25.153  0.00  0.00    +0.030 C 
ATOM     17  C   UNL     1      33.102 -18.131 -25.901  0.00  0.00    +0.013 C 
ATOM     18  C   UNL     1      33.049 -16.741 -26.135  0.00  0.00    +0.059 C 
ATOM     19  H   UNL     1      34.402 -14.711 -22.716  0.00  0.00    +0.170 HD
ENDBRANCH   2  10
BRANCH   1  20
ATOM     20  C   UNL     1      35.123 -22.096 -18.671  0.00  0.00    -0.075 C 
BRANCH  20  21
ATOM     21  C   UNL     1      36.330 -22.021 -17.733  0.00  0.00    +0.002 C 
BRANCH  21  22
ATOM     22  C   UNL     1      35.975 -21.989 -16.248  0.00  0.00    +0.108 C 
BRANCH  22  24
ATOM     23  O   UNL     1      33.369 -23.457 -15.839  0.00  0.00    -0.247 OA
ATOM     24  N   UNL     1      35.740 -23.301 -15.709  0.00  0.00    -0.280 N 
ATOM     25  N   UNL     1      34.720 -25.199 -14.985  0.00  0.00    -0.305 N 
ATOM     26  C   UNL     1      36.729 -24.187 -15.250  0.00  0.00    +0.079 A 
ATOM     27  C   UNL     1      34.465 -23.919 -15.551  0.00  0.00    +0.328 A 
ATOM     28  C   UNL     1      36.097 -25.348 -14.807  0.00  0.00    +0.076 A 
ATOM     29  C   UNL     1      38.100 -24.048 -15.196  0.00  0.00    +0.019 C 
ATOM     30  C   UNL     1      36.793 -26.419 -14.294  0.00  0.00    +0.019 C 
ATOM     31  C   UNL     1      38.830 -25.123 -14.678  0.00  0.00    +0.002 C 
ATOM     32  C   UNL     1      38.184 -26.296 -14.233  0.00  0.00    +0.002 C 
ATOM     33  H   UNL     1      34.038 -25.871 -14.755  0.00  0.00    +0.170 HD
ENDBRANCH  22  24
ENDBRANCH  21  22
ENDBRANCH  20  21
ENDBRANCH   1  20
TORSDOF 5
ENDMDL
MODEL 2
REMARK VINA RESULT:     -11.8      1.016      1.064
REMARK  Name = 3151
REMARK  5 active torsions:
REMARK  status: ('A' for Active; 'I' for Inactive)
REMARK    1  A    between atoms: N_1  and  C_20
REMARK    2  A    between atoms: C_2  and  N_10
REMARK    3  A    between atoms: C_20  and  C_21
REMARK    4  A    between atoms: C_21  and  C_22
REMARK    5  A    between atoms: C_22  and  N_24
REMARK                            x       y       z     vdW  Elec       q    Type
REMARK                         _______ _______ _______ _____ _____    ______ ____
ROOT
ATOM      1  N   UNL     1      34.253 -21.589 -19.251  0.00  0.00    +0.387 N 
ATOM      2  C   UNL     1      34.346 -19.741 -21.516  0.00  0.00    +0.086 C 
ATOM      3  C   UNL     1      35.590 -20.097 -20.702  0.00  0.00    -0.000 C 
ATOM      4  C   UNL     1      33.088 -19.932 -20.670  0.00  0.00    -0.000 C 
ATOM      5  C   UNL     1      35.465 -21.487 -20.076  0.00  0.00    -0.075 C 
ATOM      6  C   UNL     1      33.046 -21.329 -20.046  0.00  0.00    -0.075 C 
ATOM      7  H   UNL     1      34.309 -20.880 -18.521  0.00  0.00    -0.080 HD
ENDROOT
BRANCH   2  10
ATOM      8 CL   UNL     1      33.068 -15.874 -27.128  0.00  0.00    -0.082 Cl
ATOM      9  O   UNL     1      35.347 -17.203 -20.179  0.00  0.00    -0.247 OA
ATOM     10  N   UNL     1      34.432 -18.394 -22.022  0.00  0.00    -0.282 N 
ATOM     11  N   UNL     1      34.802 -16.167 -22.234  0.00  0.00    -0.305 N 
ATOM     12  C   UNL     1      34.038 -18.008 -23.310  0.00  0.00    +0.079 A 
ATOM     13  C   UNL     1      34.917 -17.256 -21.322  0.00  0.00    +0.328 A 
ATOM     14  C   UNL     1      34.268 -16.639 -23.433  0.00  0.00    +0.077 A 
ATOM     15  C   UNL     1      33.508 -18.746 -24.348  0.00  0.00    +0.020 C 
ATOM     16  C   UNL     1      33.984 -15.943 -24.587  0.00  0.00    +0.030 C 
ATOM     17  C   UNL     1      33.213 -18.062 -25.532  0.00  0.00    +0.013 C 
ATOM     18  C   UNL     1      33.448 -16.676 -25.649  0.00  0.00    +0.059 C 
ATOM     19  H   UNL     1      35.057 -15.235 -22.047  0.00  0.00    +0.170 HD
ENDBRANCH   2  10
BRANCH   1  20
ATOM     20  C   UNL     1      34.175 -22.908 -18.620  0.00  0.00    -0.075 C 
BRANCH  20  21
ATOM     21  C   UNL     1      33.960 -22.806 -17.107  0.00  0.00    +0.002 C 
BRANCH  21  22
ATOM     22  C   UNL     1      35.249 -22.739 -16.290  0.00  0.00    +0.108 C 
BRANCH  22  24
ATOM     23  O   UNL     1      32.928 -23.462 -14.499  0.00  0.00    -0.247 OA
ATOM     24  N   UNL     1      35.216 -23.599 -15.138  0.00  0.00    -0.280 N 
ATOM     25  N   UNL     1      34.507 -24.773 -13.326  0.00  0.00    -0.305 N 
ATOM     26  C   UNL     1      36.313 -24.297 -14.606  0.00  0.00    +0.079 A 
ATOM     27  C   UNL     1      34.066 -23.885 -14.346  0.00  0.00    +0.328 A 
ATOM     28  C   UNL     1      35.872 -25.014 -13.496  0.00  0.00    +0.076 A 
ATOM     29  C   UNL     1      37.629 -24.344 -15.018  0.00  0.00    +0.019 C 
ATOM     30  C   UNL     1      36.711 -25.808 -12.747  0.00  0.00    +0.019 C 
ATOM     31  C   UNL     1      38.502 -25.143 -14.272  0.00  0.00    +0.002 C 
ATOM     32  C   UNL     1      38.048 -25.868 -13.149  0.00  0.00    +0.002 C 
ATOM     33  H   UNL     1      33.943 -25.156 -12.615  0.00  0.00    +0.170 HD
ENDBRANCH  22  24
ENDBRANCH  21  22
ENDBRANCH  20  21
ENDBRANCH   1  20
TORSDOF 5
ENDMDL
MODEL 3
REMARK VINA RESULT:     -11.8      4.513     11.671
REMARK  Name = 3151
REMARK  5 active torsions:
REMARK  status: ('A' for Active; 'I' for Inactive)
REMARK    1  A    between atoms: N_1  and  C_20
REMARK    2  A    between atoms: C_2  and  N_10
REMARK    3  A    between atoms: C_20  and  C_21
REMARK    4  A    between atoms: C_21  and  C_22
REMARK    5  A    between atoms: C_22  and  N_24
REMARK                            x       y       z     vdW  Elec       q    Type
REMARK                         _______ _______ _______ _____ _____    ______ ____
ROOT
ATOM      1  N   UNL     1      34.790 -16.068 -23.495  0.00  0.00    +0.387 N 
ATOM      2  C   UNL     1      34.476 -18.357 -21.702  0.00  0.00    +0.086 C 
ATOM      3  C   UNL     1      34.960 -16.995 -21.207  0.00  0.00    -0.000 C 
ATOM      4  C   UNL     1      34.790 -18.522 -23.189  0.00  0.00    -0.000 C 
ATOM      5  C   UNL     1      34.424 -15.863 -22.086  0.00  0.00    -0.075 C 
ATOM      6  C   UNL     1      34.258 -17.340 -24.002  0.00  0.00    -0.075 C 
ATOM      7  H   UNL     1      35.807 -16.106 -23.554  0.00  0.00    -0.080 HD
ENDROOT
BRANCH   2  10
ATOM      8 CL   UNL     1      32.867 -23.743 -17.642  0.00  0.00    -0.082 Cl
ATOM      9  O   UNL     1      37.392 -19.081 -21.252  0.00  0.00    -0.247 OA
ATOM     10  N   UNL     1      35.062 -19.422 -20.927  0.00  0.00    -0.282 N 
ATOM     11  N   UNL     1      36.525 -20.833 -19.921  0.00  0.00    -0.305 N 
ATOM     12  C   UNL     1      34.325 -20.367 -20.200  0.00  0.00    +0.079 A 
ATOM     13  C   UNL     1      36.449 -19.691 -20.769  0.00  0.00    +0.328 A 
ATOM     14  C   UNL     1      35.230 -21.230 -19.585  0.00  0.00    +0.077 A 
ATOM     15  C   UNL     1      32.963 -20.521 -20.045  0.00  0.00    +0.020 C 
ATOM     16  C   UNL     1      34.826 -22.281 -18.791  0.00  0.00    +0.030 C 
ATOM     17  C   UNL     1      32.528 -21.580 -19.242  0.00  0.00    +0.013 C 
ATOM     18  C   UNL     1      33.450 -22.450 -18.623  0.00  0.00    +0.059 C 
ATOM     19  H   UNL     1      37.354 -21.270 -19.622  0.00  0.00    +0.170 HD
ENDBRANCH   2  10
BRANCH   1  20
ATOM     20  C   UNL     1      34.313 -14.952 -24.314  0.00  0.00    -0.075 C 
BRANCH  20  21
ATOM     21  C   UNL     1      33.924 -13.742 -23.460  0.00  0.00    +0.002 C 
BRANCH  21  22
ATOM     22  C   UNL     1      32.781 -12.907 -24.033  0.00  0.00    +0.108 C 
BRANCH  22  24
ATOM     23  O   UNL     1      31.202 -11.358 -21.978  0.00  0.00    -0.247 OA
ATOM     24  N   UNL     1      32.873 -11.520 -23.664  0.00  0.00    -0.280 N 
ATOM     25  N   UNL     1      32.518  -9.515 -22.655  0.00  0.00    -0.305 N 
ATOM     26  C   UNL     1      33.759 -10.582 -24.220  0.00  0.00    +0.079 A 
ATOM     27  C   UNL     1      32.080 -10.868 -22.675  0.00  0.00    +0.328 A 
ATOM     28  C   UNL     1      33.536  -9.356 -23.597  0.00  0.00    +0.076 A 
ATOM     29  C   UNL     1      34.716 -10.728 -25.203  0.00  0.00    +0.019 C 
ATOM     30  C   UNL     1      34.249  -8.223 -23.919  0.00  0.00    +0.019 C 
ATOM     31  C   UNL     1      35.454  -9.591 -25.548  0.00  0.00    +0.002 C 
ATOM     32  C   UNL     1      35.224  -8.352 -24.912  0.00  0.00    +0.002 C 
ATOM     33  H   UNL     1      32.161  -8.804 -22.073  0.00  0.00    +0.170 HD
ENDBRANCH  22  24
ENDBRANCH  21  22
ENDBRANCH  20  21
ENDBRANCH   1  20
TORSDOF 5
ENDMDL
MODEL 4
REMARK VINA RESULT:     -11.7      1.870      3.233
REMARK  Name = 3151
REMARK  5 active torsions:
REMARK  status: ('A' for Active; 'I' for Inactive)
REMARK    1  A    between atoms: N_1  and  C_20
REMARK    2  A    between atoms: C_2  and  N_10
REMARK    3  A    between atoms: C_20  and  C_21
REMARK    4  A    between atoms: C_21  and  C_22
REMARK    5  A    between atoms: C_22  and  N_24
REMARK                            x       y       z     vdW  Elec       q    Type
REMARK                         _______ _______ _______ _____ _____    ______ ____
ROOT
ATOM      1  N   UNL     1      35.308 -20.526 -19.808  0.00  0.00    +0.387 N 
ATOM      2  C   UNL     1      34.823 -18.727 -22.063  0.00  0.00    +0.086 C 
ATOM      3  C   UNL     1      36.142 -18.729 -21.291  0.00  0.00    -0.000 C 
ATOM      4  C   UNL     1      33.692 -19.250 -21.178  0.00  0.00    -0.000 C 
ATOM      5  C   UNL     1      36.419 -20.100 -20.671  0.00  0.00    -0.075 C 
ATOM      6  C   UNL     1      34.050 -20.604 -20.563  0.00  0.00    -0.075 C 
ATOM      7  H   UNL     1      35.192 -19.827 -19.076  0.00  0.00    -0.080 HD
ENDROOT
BRANCH   2  10
ATOM      8 CL   UNL     1      32.749 -15.327 -27.739  0.00  0.00    -0.082 Cl
ATOM      9  O   UNL     1      34.927 -16.030 -20.667  0.00  0.00    -0.247 OA
ATOM     10  N   UNL     1      34.523 -17.408 -22.562  0.00  0.00    -0.282 N 
ATOM     11  N   UNL     1      34.210 -15.170 -22.751  0.00  0.00    -0.305 N 
ATOM     12  C   UNL     1      34.104 -17.136 -23.872  0.00  0.00    +0.079 A 
ATOM     13  C   UNL     1      34.599 -16.189 -21.835  0.00  0.00    +0.328 A 
ATOM     14  C   UNL     1      33.914 -15.760 -23.980  0.00  0.00    +0.077 A 
ATOM     15  C   UNL     1      33.884 -17.981 -24.940  0.00  0.00    +0.020 C 
ATOM     16  C   UNL     1      33.498 -15.162 -25.149  0.00  0.00    +0.030 C 
ATOM     17  C   UNL     1      33.462 -17.397 -26.138  0.00  0.00    +0.013 C 
ATOM     18  C   UNL     1      33.271 -16.003 -26.241  0.00  0.00    +0.059 C 
ATOM     19  H   UNL     1      34.159 -14.209 -22.549  0.00  0.00    +0.170 HD
ENDBRANCH   2  10
BRANCH   1  20
ATOM     20  C   UNL     1      35.611 -21.815 -19.184  0.00  0.00    -0.075 C 
BRANCH  20  21
ATOM     21  C   UNL     1      34.894 -21.982 -17.841  0.00  0.00    +0.002 C 
BRANCH  21  22
ATOM     22  C   UNL     1      33.842 -23.088 -17.821  0.00  0.00    +0.108 C 
BRANCH  22  24
ATOM     23  O   UNL     1      35.639 -24.305 -15.722  0.00  0.00    -0.247 OA
ATOM     24  N   UNL     1      33.526 -23.524 -16.487  0.00  0.00    -0.280 N 
ATOM     25  N   UNL     1      33.691 -24.365 -14.383  0.00  0.00    -0.305 N 
ATOM     26  C   UNL     1      32.258 -23.460 -15.884  0.00  0.00    +0.079 A 
ATOM     27  C   UNL     1      34.445 -24.091 -15.558  0.00  0.00    +0.328 A 
ATOM     28  C   UNL     1      32.367 -23.978 -14.595  0.00  0.00    +0.076 A 
ATOM     29  C   UNL     1      31.056 -22.994 -16.374  0.00  0.00    +0.019 C 
ATOM     30  C   UNL     1      31.294 -24.056 -13.737  0.00  0.00    +0.019 C 
ATOM     31  C   UNL     1      29.950 -23.063 -15.521  0.00  0.00    +0.002 C 
ATOM     32  C   UNL     1      30.067 -23.588 -14.216  0.00  0.00    +0.002 C 
ATOM     33  H   UNL     1      34.045 -24.764 -13.554  0.00  0.00    +0.170 HD
ENDBRANCH  22  24
ENDBRANCH  21  22
ENDBRANCH  20  21
ENDBRANCH   1  20
TORSDOF 5
ENDMDL
MODEL 5
REMARK VINA RESULT:     -11.6      2.541      4.071
REMARK  Name = 3151
REMARK  5 active torsions:
REMARK  status: ('A' for Active; 'I' for Inactive)
REMARK    1  A    between atoms: N_1  and  C_20
REMARK    2  A    between atoms: C_2  and  N_10
REMARK    3  A    between atoms: C_20  and  C_21
REMARK    4  A    between atoms: C_21  and  C_22
REMARK    5  A    between atoms: C_22  and  N_24
REMARK                            x       y       z     vdW  Elec       q    Type
REMARK                         _______ _______ _______ _____ _____    ______ ____
ROOT
ATOM      1  N   UNL     1      35.087 -20.811 -20.605  0.00  0.00    +0.387 N 
ATOM      2  C   UNL     1      34.517 -18.229 -21.856  0.00  0.00    +0.086 C 
ATOM      3  C   UNL     1      33.472 -19.341 -21.767  0.00  0.00    -0.000 C 
ATOM      4  C   UNL     1      35.925 -18.823 -21.814  0.00  0.00    -0.000 C 
ATOM      5  C   UNL     1      33.730 -20.249 -20.563  0.00  0.00    -0.075 C 
ATOM      6  C   UNL     1      36.101 -19.748 -20.609  0.00  0.00    -0.075 C 
ATOM      7  H   UNL     1      35.183 -21.340 -21.470  0.00  0.00    -0.080 HD
ENDROOT
BRANCH   2  10
ATOM      8 CL   UNL     1      33.755 -11.698 -24.056  0.00  0.00    -0.082 Cl
ATOM      9  O   UNL     1      34.265 -19.080 -24.762  0.00  0.00    -0.247 OA
ATOM     10  N   UNL     1      34.323 -17.437 -23.044  0.00  0.00    -0.282 N 
ATOM     11  N   UNL     1      34.034 -16.766 -25.190  0.00  0.00    -0.305 N 
ATOM     12  C   UNL     1      34.211 -16.040 -23.052  0.00  0.00    +0.079 A 
ATOM     13  C   UNL     1      34.215 -17.920 -24.377  0.00  0.00    +0.328 A 
ATOM     14  C   UNL     1      34.033 -15.635 -24.373  0.00  0.00    +0.077 A 
ATOM     15  C   UNL     1      34.253 -15.128 -22.017  0.00  0.00    +0.020 C 
ATOM     16  C   UNL     1      33.889 -14.312 -24.727  0.00  0.00    +0.030 C 
ATOM     17  C   UNL     1      34.108 -13.778 -22.351  0.00  0.00    +0.013 C 
ATOM     18  C   UNL     1      33.929 -13.375 -23.691  0.00  0.00    +0.059 C 
ATOM     19  H   UNL     1      33.927 -16.766 -26.168  0.00  0.00    +0.170 HD
ENDBRANCH   2  10
BRANCH   1  20
ATOM     20  C   UNL     1      35.300 -21.717 -19.475  0.00  0.00    -0.075 C 
BRANCH  20  21
ATOM     21  C   UNL     1      34.054 -21.831 -18.592  0.00  0.00    +0.002 C 
BRANCH  21  22
ATOM     22  C   UNL     1      33.734 -23.253 -18.133  0.00  0.00    +0.108 C 
BRANCH  22  24
ATOM     23  O   UNL     1      35.776 -23.573 -15.934  0.00  0.00    -0.247 OA
ATOM     24  N   UNL     1      33.539 -23.343 -16.712  0.00  0.00    -0.280 N 
ATOM     25  N   UNL     1      33.913 -23.537 -14.478  0.00  0.00    -0.305 N 
ATOM     26  C   UNL     1      32.301 -23.296 -16.050  0.00  0.00    +0.079 A 
ATOM     27  C   UNL     1      34.571 -23.495 -15.740  0.00  0.00    +0.328 A 
ATOM     28  C   UNL     1      32.537 -23.416 -14.682  0.00  0.00    +0.076 A 
ATOM     29  C   UNL     1      31.023 -23.160 -16.551  0.00  0.00    +0.019 C 
ATOM     30  C   UNL     1      31.522 -23.406 -13.753  0.00  0.00    +0.019 C 
ATOM     31  C   UNL     1      29.973 -23.147 -15.626  0.00  0.00    +0.002 C 
ATOM     32  C   UNL     1      30.220 -23.268 -14.242  0.00  0.00    +0.002 C 
ATOM     33  H   UNL     1      34.356 -23.637 -13.604  0.00  0.00    +0.170 HD
ENDBRANCH  22  24
ENDBRANCH  21  22
ENDBRANCH  20  21
ENDBRANCH   1  20
TORSDOF 5
ENDMDL
MODEL 6
REMARK VINA RESULT:     -11.5      4.437     11.033
REMARK  Name = 3151
REMARK  5 active torsions:
REMARK  status: ('A' for Active; 'I' for Inactive)
REMARK    1  A    between atoms: N_1  and  C_20
REMARK    2  A    between atoms: C_2  and  N_10
REMARK    3  A    between atoms: C_20  and  C_21
REMARK    4  A    between atoms: C_21  and  C_22
REMARK    5  A    between atoms: C_22  and  N_24
REMARK                            x       y       z     vdW  Elec       q    Type
REMARK                         _______ _______ _______ _____ _____    ______ ____
ROOT
ATOM      1  N   UNL     1      34.397 -16.297 -24.349  0.00  0.00    +0.387 N 
ATOM      2  C   UNL     1      34.282 -18.240 -22.165  0.00  0.00    +0.086 C 
ATOM      3  C   UNL     1      34.875 -16.843 -21.984  0.00  0.00    -0.000 C 
ATOM      4  C   UNL     1      34.367 -18.664 -23.632  0.00  0.00    -0.000 C 
ATOM      5  C   UNL     1      34.249 -15.844 -22.959  0.00  0.00    -0.075 C 
ATOM      6  C   UNL     1      33.757 -17.605 -24.552  0.00  0.00    -0.075 C 
ATOM      7  H   UNL     1      35.392 -16.400 -24.543  0.00  0.00    -0.080 HD
ENDROOT
BRANCH   2  10
ATOM      8 CL   UNL     1      33.071 -23.440 -17.742  0.00  0.00    -0.082 Cl
ATOM      9  O   UNL     1      37.242 -18.680 -21.639  0.00  0.00    -0.247 OA
ATOM     10  N   UNL     1      34.944 -19.194 -21.310  0.00  0.00    -0.282 N 
ATOM     11  N   UNL     1      36.505 -20.400 -20.193  0.00  0.00    -0.305 N 
ATOM     12  C   UNL     1      34.278 -20.144 -20.524  0.00  0.00    +0.079 A 
ATOM     13  C   UNL     1      36.346 -19.332 -21.122  0.00  0.00    +0.328 A 
ATOM     14  C   UNL     1      35.243 -20.881 -19.840  0.00  0.00    +0.077 A 
ATOM     15  C   UNL     1      32.932 -20.401 -20.370  0.00  0.00    +0.020 C 
ATOM     16  C   UNL     1      34.917 -21.902 -18.976  0.00  0.00    +0.030 C 
ATOM     17  C   UNL     1      32.575 -21.433 -19.497  0.00  0.00    +0.013 C 
ATOM     18  C   UNL     1      33.557 -22.175 -18.808  0.00  0.00    +0.059 C 
ATOM     19  H   UNL     1      37.363 -20.742 -19.856  0.00  0.00    +0.170 HD
ENDBRANCH   2  10
BRANCH   1  20
ATOM     20  C   UNL     1      33.838 -15.307 -25.271  0.00  0.00    -0.075 C 
BRANCH  20  21
ATOM     21  C   UNL     1      33.089 -14.195 -24.531  0.00  0.00    +0.002 C 
BRANCH  21  22
ATOM     22  C   UNL     1      33.935 -12.961 -24.224  0.00  0.00    +0.108 C 
BRANCH  22  24
ATOM     23  O   UNL     1      33.455 -10.243 -25.447  0.00  0.00    -0.247 OA
ATOM     24  N   UNL     1      33.149 -11.863 -23.731  0.00  0.00    -0.280 N 
ATOM     25  N   UNL     1      32.128  -9.842 -23.532  0.00  0.00    -0.305 N 
ATOM     26  C   UNL     1      32.422 -11.850 -22.529  0.00  0.00    +0.079 A 
ATOM     27  C   UNL     1      32.977 -10.605 -24.381  0.00  0.00    +0.328 A 
ATOM     28  C   UNL     1      31.799 -10.609 -22.413  0.00  0.00    +0.076 A 
ATOM     29  C   UNL     1      32.276 -12.823 -21.561  0.00  0.00    +0.019 C 
ATOM     30  C   UNL     1      31.006 -10.278 -21.338  0.00  0.00    +0.019 C 
ATOM     31  C   UNL     1      31.474 -12.510 -20.459  0.00  0.00    +0.002 C 
ATOM     32  C   UNL     1      30.846 -11.252 -20.348  0.00  0.00    +0.002 C 
ATOM     33  H   UNL     1      31.821  -8.922 -23.705  0.00  0.00    +0.170 HD
ENDBRANCH  22  24
ENDBRANCH  21  22
ENDBRANCH  20  21
ENDBRANCH   1  20
TORSDOF 5
ENDMDL
MODEL 7
REMARK VINA RESULT:     -11.3      3.946     10.499
REMARK  Name = 3151
REMARK  5 active torsions:
REMARK  status: ('A' for Active; 'I' for Inactive)
REMARK    1  A    between atoms: N_1  and  C_20
REMARK    2  A    between atoms: C_2  and  N_10
REMARK    3  A    between atoms: C_20  and  C_21
REMARK    4  A    between atoms: C_21  and  C_22
REMARK    5  A    between atoms: C_22  and  N_24
REMARK                            x       y       z     vdW  Elec       q    Type
REMARK                         _______ _______ _______ _____ _____    ______ ____
ROOT
ATOM      1  N   UNL     1      33.723 -19.827 -20.840  0.00  0.00    +0.387 N 
ATOM      2  C   UNL     1      34.068 -22.077 -19.004  0.00  0.00    +0.086 C 
ATOM      3  C   UNL     1      32.754 -21.303 -19.107  0.00  0.00    -0.000 C 
ATOM      4  C   UNL     1      35.237 -21.196 -19.444  0.00  0.00    -0.000 C 
ATOM      5  C   UNL     1      32.582 -20.687 -20.496  0.00  0.00    -0.075 C 
ATOM      6  C   UNL     1      34.982 -20.584 -20.822  0.00  0.00    -0.075 C 
ATOM      7  H   UNL     1      33.787 -19.093 -20.137  0.00  0.00    -0.080 HD
ENDROOT
BRANCH   2  10
ATOM      8 CL   UNL     1      30.698 -24.740 -13.560  0.00  0.00    -0.082 Cl
ATOM      9  O   UNL     1      36.613 -22.329 -17.362  0.00  0.00    -0.247 OA
ATOM     10  N   UNL     1      34.267 -22.573 -17.665  0.00  0.00    -0.282 N 
ATOM     11  N   UNL     1      35.187 -23.207 -15.692  0.00  0.00    -0.305 N 
ATOM     12  C   UNL     1      33.241 -23.056 -16.841  0.00  0.00    +0.079 A 
ATOM     13  C   UNL     1      35.503 -22.657 -16.967  0.00  0.00    +0.328 A 
ATOM     14  C   UNL     1      33.813 -23.443 -15.631  0.00  0.00    +0.077 A 
ATOM     15  C   UNL     1      31.886 -23.177 -17.069  0.00  0.00    +0.020 C 
ATOM     16  C   UNL     1      33.070 -23.965 -14.596  0.00  0.00    +0.030 C 
ATOM     17  C   UNL     1      31.109 -23.704 -16.032  0.00  0.00    +0.013 C 
ATOM     18  C   UNL     1      31.695 -24.094 -14.810  0.00  0.00    +0.059 C 
ATOM     19  H   UNL     1      35.833 -23.390 -14.972  0.00  0.00    +0.170 HD
ENDBRANCH   2  10
BRANCH   1  20
ATOM     20  C   UNL     1      33.518 -19.206 -22.150  0.00  0.00    -0.075 C 
BRANCH  20  21
ATOM     21  C   UNL     1      34.644 -19.554 -23.129  0.00  0.00    +0.002 C 
BRANCH  21  22
ATOM     22  C   UNL     1      35.467 -18.355 -23.595  0.00  0.00    +0.108 C 
BRANCH  22  24
ATOM     23  O   UNL     1      34.146 -18.495 -26.306  0.00  0.00    -0.247 OA
ATOM     24  N   UNL     1      34.671 -17.370 -24.276  0.00  0.00    -0.280 N 
ATOM     25  N   UNL     1      33.394 -16.306 -25.826  0.00  0.00    -0.305 N 
ATOM     26  C   UNL     1      34.343 -16.097 -23.781  0.00  0.00    +0.079 A 
ATOM     27  C   UNL     1      34.082 -17.524 -25.565  0.00  0.00    +0.328 A 
ATOM     28  C   UNL     1      33.561 -15.450 -24.736  0.00  0.00    +0.076 A 
ATOM     29  C   UNL     1      34.675 -15.488 -22.588  0.00  0.00    +0.019 C 
ATOM     30  C   UNL     1      33.074 -14.176 -24.552  0.00  0.00    +0.019 C 
ATOM     31  C   UNL     1      34.191 -14.192 -22.378  0.00  0.00    +0.002 C 
ATOM     32  C   UNL     1      33.399 -13.543 -23.349  0.00  0.00    +0.002 C 
ATOM     33  H   UNL     1      32.884 -16.099 -26.643  0.00  0.00    +0.170 HD
ENDBRANCH  22  24
ENDBRANCH  21  22
ENDBRANCH  20  21
ENDBRANCH   1  20
TORSDOF 5
ENDMDL
MODEL 8
REMARK VINA RESULT:     -11.3      3.703     10.709
REMARK  Name = 3151
REMARK  5 active torsions:
REMARK  status: ('A' for Active; 'I' for Inactive)
REMARK    1  A    between atoms: N_1  and  C_20
REMARK    2  A    between atoms: C_2  and  N_10
REMARK    3  A    between atoms: C_20  and  C_21
REMARK    4  A    between atoms: C_21  and  C_22
REMARK    5  A    between atoms: C_22  and  N_24
REMARK                            x       y       z     vdW  Elec       q    Type
REMARK                         _______ _______ _______ _____ _____    ______ ____
ROOT
ATOM      1  N   UNL     1      34.460 -20.267 -20.411  0.00  0.00    +0.387 N 
ATOM      2  C   UNL     1      34.483 -22.393 -18.401  0.00  0.00    +0.086 C 
ATOM      3  C   UNL     1      33.218 -21.605 -18.741  0.00  0.00    -0.000 C 
ATOM      4  C   UNL     1      35.725 -21.564 -18.727  0.00  0.00    -0.000 C 
ATOM      5  C   UNL     1      33.259 -21.082 -20.178  0.00  0.00    -0.075 C 
ATOM      6  C   UNL     1      35.683 -21.043 -20.165  0.00  0.00    -0.075 C 
ATOM      7  H   UNL     1      34.445 -19.488 -19.755  0.00  0.00    -0.080 HD
ENDROOT
BRANCH   2  10
ATOM      8 CL   UNL     1      30.319 -24.662 -13.343  0.00  0.00    -0.082 Cl
ATOM      9  O   UNL     1      36.759 -22.551 -16.395  0.00  0.00    -0.247 OA
ATOM     10  N   UNL     1      34.478 -22.799 -17.018  0.00  0.00    -0.282 N 
ATOM     11  N   UNL     1      35.093 -23.305 -14.896  0.00  0.00    -0.305 N 
ATOM     12  C   UNL     1      33.336 -23.218 -16.323  0.00  0.00    +0.079 A 
ATOM     13  C   UNL     1      35.599 -22.844 -16.145  0.00  0.00    +0.328 A 
ATOM     14  C   UNL     1      33.721 -23.528 -15.020  0.00  0.00    +0.077 A 
ATOM     15  C   UNL     1      32.026 -23.345 -16.737  0.00  0.00    +0.020 C 
ATOM     16  C   UNL     1      32.828 -23.975 -14.072  0.00  0.00    +0.030 C 
ATOM     17  C   UNL     1      31.100 -23.796 -15.792  0.00  0.00    +0.013 C 
ATOM     18  C   UNL     1      31.496 -24.108 -14.474  0.00  0.00    +0.059 C 
ATOM     19  H   UNL     1      35.625 -23.445 -14.080  0.00  0.00    +0.170 HD
ENDBRANCH   2  10
BRANCH   1  20
ATOM     20  C   UNL     1      34.459 -19.734 -21.775  0.00  0.00    -0.075 C 
BRANCH  20  21
ATOM     21  C   UNL     1      34.486 -18.203 -21.789  0.00  0.00    +0.002 C 
BRANCH  21  22
ATOM     22  C   UNL     1      35.221 -17.596 -22.983  0.00  0.00    +0.108 C 
BRANCH  22  24
ATOM     23  O   UNL     1      34.749 -14.617 -23.112  0.00  0.00    -0.247 OA
ATOM     24  N   UNL     1      34.348 -16.846 -23.844  0.00  0.00    -0.280 N 
ATOM     25  N   UNL     1      33.230 -15.140 -24.847  0.00  0.00    -0.305 N 
ATOM     26  C   UNL     1      33.510 -17.386 -24.834  0.00  0.00    +0.079 A 
ATOM     27  C   UNL     1      34.187 -15.429 -23.834  0.00  0.00    +0.328 A 
ATOM     28  C   UNL     1      32.829 -16.335 -25.444  0.00  0.00    +0.076 A 
ATOM     29  C   UNL     1      33.313 -18.696 -25.222  0.00  0.00    +0.019 C 
ATOM     30  C   UNL     1      31.925 -16.533 -26.463  0.00  0.00    +0.019 C 
ATOM     31  C   UNL     1      32.398 -18.923 -26.256  0.00  0.00    +0.002 C 
ATOM     32  C   UNL     1      31.712 -17.854 -26.871  0.00  0.00    +0.002 C 
ATOM     33  H   UNL     1      32.904 -14.242 -25.087  0.00  0.00    +0.170 HD
ENDBRANCH  22  24
ENDBRANCH  21  22
ENDBRANCH  20  21
ENDBRANCH   1  20
TORSDOF 5
ENDMDL
MODEL 9
REMARK VINA RESULT:     -11.3      3.800     10.692
REMARK  Name = 3151
REMARK  5 active torsions:
REMARK  status: ('A' for Active; 'I' for Inactive)
REMARK    1  A    between atoms: N_1  and  C_20
REMARK    2  A    between atoms: C_2  and  N_10
REMARK    3  A    between atoms: C_20  and  C_21
REMARK    4  A    between atoms: C_21  and  C_22
REMARK    5  A    between atoms: C_22  and  N_24
REMARK                            x       y       z     vdW  Elec       q    Type
REMARK                         _______ _______ _______ _____ _____    ______ ____
ROOT
ATOM      1  N   UNL     1      34.991 -19.866 -20.475  0.00  0.00    +0.387 N 
ATOM      2  C   UNL     1      34.230 -22.163 -18.833  0.00  0.00    +0.086 C 
ATOM      3  C   UNL     1      33.209 -21.134 -19.318  0.00  0.00    -0.000 C 
ATOM      4  C   UNL     1      35.622 -21.536 -18.764  0.00  0.00    -0.000 C 
ATOM      5  C   UNL     1      33.663 -20.476 -20.623  0.00  0.00    -0.075 C 
ATOM      6  C   UNL     1      35.995 -20.866 -20.087  0.00  0.00    -0.075 C 
ATOM      7  H   UNL     1      34.937 -19.170 -19.733  0.00  0.00    -0.080 HD
ENDROOT
BRANCH   2  10
ATOM      8 CL   UNL     1      36.753 -24.055 -12.658  0.00  0.00    -0.082 Cl
ATOM      9  O   UNL     1      31.497 -23.007 -17.808  0.00  0.00    -0.247 OA
ATOM     10  N   UNL     1      33.842 -22.708 -17.556  0.00  0.00    -0.282 N 
ATOM     11  N   UNL     1      32.655 -23.557 -15.821  0.00  0.00    -0.305 N 
ATOM     12  C   UNL     1      34.730 -22.954 -16.501  0.00  0.00    +0.079 A 
ATOM     13  C   UNL     1      32.529 -23.077 -17.156  0.00  0.00    +0.328 A 
ATOM     14  C   UNL     1      33.994 -23.476 -15.438  0.00  0.00    +0.077 A 
ATOM     15  C   UNL     1      36.093 -22.760 -16.407  0.00  0.00    +0.020 C 
ATOM     16  C   UNL     1      34.574 -23.827 -14.240  0.00  0.00    +0.030 C 
ATOM     17  C   UNL     1      36.705 -23.110 -15.199  0.00  0.00    +0.013 C 
ATOM     18  C   UNL     1      35.954 -23.638 -14.128  0.00  0.00    +0.059 C 
ATOM     19  H   UNL     1      31.918 -23.890 -15.261  0.00  0.00    +0.170 HD
ENDBRANCH   2  10
BRANCH   1  20
ATOM     20  C   UNL     1      35.388 -19.198 -21.716  0.00  0.00    -0.075 C 
BRANCH  20  21
ATOM     21  C   UNL     1      34.224 -19.096 -22.707  0.00  0.00    +0.002 C 
BRANCH  21  22
ATOM     22  C   UNL     1      34.634 -18.699 -24.123  0.00  0.00    +0.108 C 
BRANCH  22  24
ATOM     23  O   UNL     1      32.946 -18.205 -26.577  0.00  0.00    -0.247 OA
ATOM     24  N   UNL     1      33.994 -17.489 -24.564  0.00  0.00    -0.280 N 
ATOM     25  N   UNL     1      32.787 -15.988 -25.770  0.00  0.00    -0.305 N 
ATOM     26  C   UNL     1      34.038 -16.251 -23.901  0.00  0.00    +0.079 A 
ATOM     27  C   UNL     1      33.210 -17.347 -25.746  0.00  0.00    +0.328 A 
ATOM     28  C   UNL     1      33.296 -15.336 -24.646  0.00  0.00    +0.076 A 
ATOM     29  C   UNL     1      34.664 -15.886 -22.727  0.00  0.00    +0.019 C 
ATOM     30  C   UNL     1      33.142 -14.023 -24.262  0.00  0.00    +0.019 C 
ATOM     31  C   UNL     1      34.522 -14.556 -22.316  0.00  0.00    +0.002 C 
ATOM     32  C   UNL     1      33.769 -13.635 -23.074  0.00  0.00    +0.002 C 
ATOM     33  H   UNL     1      32.226 -15.574 -26.466  0.00  0.00    +0.170 HD
ENDBRANCH  22  24
ENDBRANCH  21  22
ENDBRANCH  20  21
ENDBRANCH   1  20
TORSDOF 5
ENDMDL
