MODEL 1
REMARK VINA RESULT:     -12.4      0.000      0.000
REMARK  Name = 5326929
REMARK  3 active torsions:
REMARK  status: ('A' for Active; 'I' for Inactive)
REMARK    1  A    between atoms: C_7  and  C_21
REMARK    2  A    between atoms: C_21  and  C_22
REMARK    3  A    between atoms: C_22  and  C_23
REMARK                            x       y       z     vdW  Elec       q    Type
REMARK                         _______ _______ _______ _____ _____    ______ ____
ROOT
ATOM      1  O   UNL     1      34.613 -24.745 -12.222  0.00  0.00    -0.209 OA
ATOM      2  N   UNL     1      34.440 -22.914 -15.779  0.00  0.00    -0.275 N 
ATOM      3  N   UNL     1      29.707 -25.130 -14.061  0.00  0.00    -0.315 N 
ATOM      4  N   UNL     1      29.642 -24.105 -16.032  0.00  0.00    -0.316 N 
ATOM      5  N   UNL     1      35.694 -23.577 -13.869  0.00  0.00    -0.302 NA
ATOM      6  N   UNL     1      36.664 -22.377 -15.631  0.00  0.00    -0.320 N 
ATOM      7  C   UNL     1      32.071 -23.432 -16.039  0.00  0.00    +0.007 C 
ATOM      8  C   UNL     1      33.262 -23.494 -15.298  0.00  0.00    +0.060 C 
ATOM      9  C   UNL     1      30.914 -24.031 -15.510  0.00  0.00    +0.056 C 
ATOM     10  C   UNL     1      30.980 -24.665 -14.275  0.00  0.00    +0.060 C 
ATOM     11  C   UNL     1      33.289 -24.144 -14.054  0.00  0.00    +0.109 C 
ATOM     12  C   UNL     1      32.145 -24.748 -13.511  0.00  0.00    +0.029 C 
ATOM     13  C   UNL     1      34.581 -24.180 -13.310  0.00  0.00    +0.208 C 
ATOM     14  C   UNL     1      28.946 -24.770 -15.139  0.00  0.00    +0.182 C 
ATOM     15  C   UNL     1      35.592 -22.990 -15.032  0.00  0.00    +0.248 C 
ATOM     16  H   UNL     1      34.444 -22.454 -16.649  0.00  0.00    +0.156 HD
ATOM     17  H   UNL     1      29.397 -25.633 -13.274  0.00  0.00    +0.148 HD
ATOM     18  H   UNL     1      29.325 -23.740 -16.889  0.00  0.00    +0.148 HD
ATOM     19  H   UNL     1      36.556 -21.943 -16.509  0.00  0.00    +0.146 HD
ATOM     20  H   UNL     1      37.541 -22.371 -15.184  0.00  0.00    +0.146 HD
ENDROOT
BRANCH   7  21
ATOM     21  C   UNL     1      32.035 -22.740 -17.365  0.00  0.00    +0.034 C 
BRANCH  21  22
ATOM     22  C   UNL     1      33.202 -23.117 -18.296  0.00  0.00    +0.031 C 
BRANCH  22  23
ATOM     23  C   UNL     1      33.633 -21.987 -19.199  0.00  0.00    -0.022 C 
ATOM     24  C   UNL     1      34.983 -21.796 -19.454  0.00  0.00    -0.005 C 
ATOM     25  C   UNL     1      32.672 -21.161 -19.759  0.00  0.00    -0.005 C 
ATOM     26  C   UNL     1      34.423 -19.911 -20.858  0.00  0.00    -0.022 C 
ATOM     27  C   UNL     1      35.379 -20.751 -20.288  0.00  0.00    -0.005 C 
ATOM     28  C   UNL     1      33.069 -20.117 -20.594  0.00  0.00    -0.005 C 
ATOM     29  C   UNL     1      34.847 -18.796 -21.751  0.00  0.00    +0.031 C 
ENDBRANCH  22  23
ENDBRANCH  21  22
ENDBRANCH   7  21
TORSDOF 3
ENDMDL
MODEL 2
REMARK VINA RESULT:     -12.3      1.829      2.479
REMARK  Name = 5326929
REMARK  3 active torsions:
REMARK  status: ('A' for Active; 'I' for Inactive)
REMARK    1  A    between atoms: C_7  and  C_21
REMARK    2  A    between atoms: C_21  and  C_22
REMARK    3  A    between atoms: C_22  and  C_23
REMARK                            x       y       z     vdW  Elec       q    Type
REMARK                         _______ _______ _______ _____ _____    ______ ____
ROOT
ATOM      1  O   UNL     1      36.602 -26.027 -11.715  0.00  0.00    -0.209 OA
ATOM      2  N   UNL     1      37.211 -24.329 -15.291  0.00  0.00    -0.275 N 
ATOM      3  N   UNL     1      32.156 -23.667 -13.223  0.00  0.00    -0.315 N 
ATOM      4  N   UNL     1      32.526 -22.735 -15.206  0.00  0.00    -0.316 N 
ATOM      5  N   UNL     1      38.030 -25.598 -13.452  0.00  0.00    -0.302 NA
ATOM      6  N   UNL     1      39.377 -25.081 -15.298  0.00  0.00    -0.320 N 
ATOM      7  C   UNL     1      34.927 -23.480 -15.385  0.00  0.00    +0.007 C 
ATOM      8  C   UNL     1      35.941 -24.189 -14.722  0.00  0.00    +0.060 C 
ATOM      9  C   UNL     1      33.667 -23.368 -14.770  0.00  0.00    +0.056 C 
ATOM     10  C   UNL     1      33.461 -23.960 -13.528  0.00  0.00    +0.060 C 
ATOM     11  C   UNL     1      35.695 -24.773 -13.469  0.00  0.00    +0.109 C 
ATOM     12  C   UNL     1      34.445 -24.673 -12.840  0.00  0.00    +0.029 C 
ATOM     13  C   UNL     1      36.808 -25.514 -12.811  0.00  0.00    +0.208 C 
ATOM     14  C   UNL     1      31.641 -22.934 -14.257  0.00  0.00    +0.182 C 
ATOM     15  C   UNL     1      38.186 -25.029 -14.619  0.00  0.00    +0.248 C 
ATOM     16  H   UNL     1      37.406 -23.928 -16.168  0.00  0.00    +0.156 HD
ATOM     17  H   UNL     1      31.676 -23.936 -12.407  0.00  0.00    +0.148 HD
ATOM     18  H   UNL     1      32.400 -22.240 -16.048  0.00  0.00    +0.148 HD
ATOM     19  H   UNL     1      39.463 -24.642 -16.176  0.00  0.00    +0.146 HD
ATOM     20  H   UNL     1      40.145 -25.558 -14.910  0.00  0.00    +0.146 HD
ENDROOT
BRANCH   7  21
ATOM     21  C   UNL     1      35.183 -22.855 -16.720  0.00  0.00    +0.034 C 
BRANCH  21  22
ATOM     22  C   UNL     1      34.027 -23.033 -17.723  0.00  0.00    +0.031 C 
BRANCH  22  23
ATOM     23  C   UNL     1      34.035 -22.006 -18.828  0.00  0.00    -0.022 C 
ATOM     24  C   UNL     1      35.245 -21.575 -19.349  0.00  0.00    -0.005 C 
ATOM     25  C   UNL     1      32.831 -21.511 -19.304  0.00  0.00    -0.005 C 
ATOM     26  C   UNL     1      34.047 -20.118 -20.859  0.00  0.00    -0.022 C 
ATOM     27  C   UNL     1      35.251 -20.626 -20.371  0.00  0.00    -0.005 C 
ATOM     28  C   UNL     1      32.836 -20.562 -20.326  0.00  0.00    -0.005 C 
ATOM     29  C   UNL     1      34.053 -19.105 -21.952  0.00  0.00    +0.031 C 
ENDBRANCH  22  23
ENDBRANCH  21  22
ENDBRANCH   7  21
TORSDOF 3
ENDMDL
MODEL 3
REMARK VINA RESULT:     -12.0      1.440      3.907
REMARK  Name = 5326929
REMARK  3 active torsions:
REMARK  status: ('A' for Active; 'I' for Inactive)
REMARK    1  A    between atoms: C_7  and  C_21
REMARK    2  A    between atoms: C_21  and  C_22
REMARK    3  A    between atoms: C_22  and  C_23
REMARK                            x       y       z     vdW  Elec       q    Type
REMARK                         _______ _______ _______ _____ _____    ______ ____
ROOT
ATOM      1  O   UNL     1      30.652 -23.928 -12.756  0.00  0.00    -0.209 OA
ATOM      2  N   UNL     1      31.120 -23.086 -16.644  0.00  0.00    -0.275 N 
ATOM      3  N   UNL     1      35.776 -24.117 -13.903  0.00  0.00    -0.315 N 
ATOM      4  N   UNL     1      36.003 -23.648 -16.063  0.00  0.00    -0.316 N 
ATOM      5  N   UNL     1      29.692 -23.387 -14.763  0.00  0.00    -0.302 NA
ATOM      6  N   UNL     1      28.852 -22.834 -16.879  0.00  0.00    -0.320 N 
ATOM      7  C   UNL     1      33.542 -23.330 -16.505  0.00  0.00    +0.007 C 
ATOM      8  C   UNL     1      32.274 -23.355 -15.903  0.00  0.00    +0.060 C 
ATOM      9  C   UNL     1      34.672 -23.609 -15.715  0.00  0.00    +0.056 C 
ATOM     10  C   UNL     1      34.504 -23.900 -14.366  0.00  0.00    +0.060 C 
ATOM     11  C   UNL     1      32.145 -23.654 -14.537  0.00  0.00    +0.109 C 
ATOM     12  C   UNL     1      33.260 -23.934 -13.733  0.00  0.00    +0.029 C 
ATOM     13  C   UNL     1      30.774 -23.667 -13.949  0.00  0.00    +0.208 C 
ATOM     14  C   UNL     1      36.636 -23.954 -14.954  0.00  0.00    +0.182 C 
ATOM     15  C   UNL     1      29.890 -23.118 -16.027  0.00  0.00    +0.248 C 
ATOM     16  H   UNL     1      31.186 -22.873 -17.602  0.00  0.00    +0.156 HD
ATOM     17  H   UNL     1      36.027 -24.347 -12.980  0.00  0.00    +0.148 HD
ATOM     18  H   UNL     1      36.395 -23.481 -16.950  0.00  0.00    +0.148 HD
ATOM     19  H   UNL     1      29.034 -22.635 -17.827  0.00  0.00    +0.146 HD
ATOM     20  H   UNL     1      27.927 -22.829 -16.544  0.00  0.00    +0.146 HD
ENDROOT
BRANCH   7  21
ATOM     21  C   UNL     1      33.687 -23.013 -17.960  0.00  0.00    +0.034 C 
BRANCH  21  22
ATOM     22  C   UNL     1      34.873 -22.084 -18.280  0.00  0.00    +0.031 C 
BRANCH  22  23
ATOM     23  C   UNL     1      34.625 -21.190 -19.470  0.00  0.00    -0.022 C 
ATOM     24  C   UNL     1      35.705 -20.652 -20.154  0.00  0.00    -0.005 C 
ATOM     25  C   UNL     1      33.323 -20.923 -19.860  0.00  0.00    -0.005 C 
ATOM     26  C   UNL     1      34.169 -19.546 -21.656  0.00  0.00    -0.022 C 
ATOM     27  C   UNL     1      35.475 -19.825 -21.253  0.00  0.00    -0.005 C 
ATOM     28  C   UNL     1      33.092 -20.096 -20.959  0.00  0.00    -0.005 C 
ATOM     29  C   UNL     1      33.924 -18.664 -22.832  0.00  0.00    +0.031 C 
ENDBRANCH  22  23
ENDBRANCH  21  22
ENDBRANCH   7  21
TORSDOF 3
ENDMDL
MODEL 4
REMARK VINA RESULT:     -11.4      2.778      5.777
REMARK  Name = 5326929
REMARK  3 active torsions:
REMARK  status: ('A' for Active; 'I' for Inactive)
REMARK    1  A    between atoms: C_7  and  C_21
REMARK    2  A    between atoms: C_21  and  C_22
REMARK    3  A    between atoms: C_22  and  C_23
REMARK                            x       y       z     vdW  Elec       q    Type
REMARK                         _______ _______ _______ _____ _____    ______ ____
ROOT
ATOM      1  O   UNL     1      32.855 -22.640 -19.249  0.00  0.00    -0.209 OA
ATOM      2  N   UNL     1      35.185 -22.712 -15.992  0.00  0.00    -0.275 N 
ATOM      3  N   UNL     1      29.995 -24.349 -15.186  0.00  0.00    -0.315 N 
ATOM      4  N   UNL     1      31.314 -24.379 -13.398  0.00  0.00    -0.316 N 
ATOM      5  N   UNL     1      34.912 -22.270 -18.315  0.00  0.00    -0.302 NA
ATOM      6  N   UNL     1      36.959 -21.940 -17.223  0.00  0.00    -0.320 N 
ATOM      7  C   UNL     1      33.367 -23.534 -14.591  0.00  0.00    +0.007 C 
ATOM      8  C   UNL     1      33.856 -23.119 -15.839  0.00  0.00    +0.060 C 
ATOM      9  C   UNL     1      32.023 -23.935 -14.490  0.00  0.00    +0.056 C 
ATOM     10  C   UNL     1      31.218 -23.908 -15.624  0.00  0.00    +0.060 C 
ATOM     11  C   UNL     1      33.013 -23.105 -16.961  0.00  0.00    +0.109 C 
ATOM     12  C   UNL     1      31.669 -23.500 -16.881  0.00  0.00    +0.029 C 
ATOM     13  C   UNL     1      33.585 -22.654 -18.263  0.00  0.00    +0.208 C 
ATOM     14  C   UNL     1      30.104 -24.617 -13.849  0.00  0.00    +0.182 C 
ATOM     15  C   UNL     1      35.637 -22.309 -17.227  0.00  0.00    +0.248 C 
ATOM     16  H   UNL     1      35.794 -22.712 -15.219  0.00  0.00    +0.156 HD
ATOM     17  H   UNL     1      29.185 -24.453 -15.734  0.00  0.00    +0.148 HD
ATOM     18  H   UNL     1      31.643 -24.492 -12.477  0.00  0.00    +0.148 HD
ATOM     19  H   UNL     1      37.479 -21.980 -16.387  0.00  0.00    +0.146 HD
ATOM     20  H   UNL     1      37.388 -21.634 -18.054  0.00  0.00    +0.146 HD
ENDROOT
BRANCH   7  21
ATOM     21  C   UNL     1      34.260 -23.552 -13.391  0.00  0.00    +0.034 C 
BRANCH  21  22
ATOM     22  C   UNL     1      34.736 -24.961 -12.989  0.00  0.00    +0.031 C 
BRANCH  22  23
ATOM     23  C   UNL     1      36.153 -25.256 -13.416  0.00  0.00    -0.022 C 
ATOM     24  C   UNL     1      36.377 -26.035 -14.541  0.00  0.00    -0.005 C 
ATOM     25  C   UNL     1      37.206 -24.741 -12.677  0.00  0.00    -0.005 C 
ATOM     26  C   UNL     1      38.757 -25.797 -14.199  0.00  0.00    -0.022 C 
ATOM     27  C   UNL     1      37.687 -26.307 -14.934  0.00  0.00    -0.005 C 
ATOM     28  C   UNL     1      38.516 -25.013 -13.070  0.00  0.00    -0.005 C 
ATOM     29  C   UNL     1      40.157 -26.087 -14.620  0.00  0.00    +0.031 C 
ENDBRANCH  22  23
ENDBRANCH  21  22
ENDBRANCH   7  21
TORSDOF 3
ENDMDL
MODEL 5
REMARK VINA RESULT:     -11.2      8.515     12.448
REMARK  Name = 5326929
REMARK  3 active torsions:
REMARK  status: ('A' for Active; 'I' for Inactive)
REMARK    1  A    between atoms: C_7  and  C_21
REMARK    2  A    between atoms: C_21  and  C_22
REMARK    3  A    between atoms: C_22  and  C_23
REMARK                            x       y       z     vdW  Elec       q    Type
REMARK                         _______ _______ _______ _____ _____    ______ ____
ROOT
ATOM      1  O   UNL     1      32.274 -12.282 -28.124  0.00  0.00    -0.209 OA
ATOM      2  N   UNL     1      33.836 -13.373 -24.601  0.00  0.00    -0.275 N 
ATOM      3  N   UNL     1      31.592 -17.457 -27.525  0.00  0.00    -0.315 N 
ATOM      4  N   UNL     1      32.469 -18.031 -25.565  0.00  0.00    -0.316 N 
ATOM      5  N   UNL     1      33.356 -11.676 -26.199  0.00  0.00    -0.302 NA
ATOM      6  N   UNL     1      34.458 -11.205 -24.185  0.00  0.00    -0.320 N 
ATOM      7  C   UNL     1      33.221 -15.708 -24.942  0.00  0.00    +0.007 C 
ATOM      8  C   UNL     1      33.253 -14.375 -25.382  0.00  0.00    +0.060 C 
ATOM      9  C   UNL     1      32.624 -16.678 -25.766  0.00  0.00    +0.056 C 
ATOM     10  C   UNL     1      32.083 -16.294 -26.988  0.00  0.00    +0.060 C 
ATOM     11  C   UNL     1      32.697 -14.026 -26.623  0.00  0.00    +0.109 C 
ATOM     12  C   UNL     1      32.095 -14.980 -27.458  0.00  0.00    +0.029 C 
ATOM     13  C   UNL     1      32.758 -12.596 -27.041  0.00  0.00    +0.208 C 
ATOM     14  C   UNL     1      31.847 -18.466 -26.637  0.00  0.00    +0.182 C 
ATOM     15  C   UNL     1      33.853 -12.075 -25.058  0.00  0.00    +0.248 C 
ATOM     16  H   UNL     1      34.232 -13.595 -23.728  0.00  0.00    +0.156 HD
ATOM     17  H   UNL     1      31.138 -17.549 -28.393  0.00  0.00    +0.148 HD
ATOM     18  H   UNL     1      32.760 -18.558 -24.787  0.00  0.00    +0.148 HD
ATOM     19  H   UNL     1      34.823 -11.537 -23.332  0.00  0.00    +0.146 HD
ATOM     20  H   UNL     1      34.525 -10.250 -24.411  0.00  0.00    +0.146 HD
ENDROOT
BRANCH   7  21
ATOM     21  C   UNL     1      33.814 -16.087 -23.621  0.00  0.00    +0.034 C 
BRANCH  21  22
ATOM     22  C   UNL     1      35.018 -17.041 -23.730  0.00  0.00    +0.031 C 
BRANCH  22  23
ATOM     23  C   UNL     1      35.020 -18.121 -22.676  0.00  0.00    -0.022 C 
ATOM     24  C   UNL     1      33.854 -18.829 -22.424  0.00  0.00    -0.005 C 
ATOM     25  C   UNL     1      36.187 -18.387 -21.978  0.00  0.00    -0.005 C 
ATOM     26  C   UNL     1      35.024 -20.104 -20.739  0.00  0.00    -0.022 C 
ATOM     27  C   UNL     1      33.857 -19.826 -21.450  0.00  0.00    -0.005 C 
ATOM     28  C   UNL     1      36.190 -19.385 -21.003  0.00  0.00    -0.005 C 
ATOM     29  C   UNL     1      35.027 -21.172 -19.698  0.00  0.00    +0.031 C 
ENDBRANCH  22  23
ENDBRANCH  21  22
ENDBRANCH   7  21
TORSDOF 3
ENDMDL
MODEL 6
REMARK VINA RESULT:     -11.1      9.679     13.110
REMARK  Name = 5326929
REMARK  3 active torsions:
REMARK  status: ('A' for Active; 'I' for Inactive)
REMARK    1  A    between atoms: C_7  and  C_21
REMARK    2  A    between atoms: C_21  and  C_22
REMARK    3  A    between atoms: C_22  and  C_23
REMARK                            x       y       z     vdW  Elec       q    Type
REMARK                         _______ _______ _______ _____ _____    ______ ____
ROOT
ATOM      1  O   UNL     1      33.942 -17.287 -26.599  0.00  0.00    -0.209 OA
ATOM      2  N   UNL     1      32.623 -13.599 -25.761  0.00  0.00    -0.275 N 
ATOM      3  N   UNL     1      34.852 -16.301 -21.519  0.00  0.00    -0.315 N 
ATOM      4  N   UNL     1      34.112 -14.251 -21.086  0.00  0.00    -0.316 N 
ATOM      5  N   UNL     1      32.947 -15.358 -27.331  0.00  0.00    -0.302 NA
ATOM      6  N   UNL     1      31.945 -13.329 -27.935  0.00  0.00    -0.320 N 
ATOM      7  C   UNL     1      33.305 -13.781 -23.427  0.00  0.00    +0.007 C 
ATOM      8  C   UNL     1      33.198 -14.328 -24.716  0.00  0.00    +0.060 C 
ATOM      9  C   UNL     1      33.893 -14.554 -22.410  0.00  0.00    +0.056 C 
ATOM     10  C   UNL     1      34.349 -15.834 -22.707  0.00  0.00    +0.060 C 
ATOM     11  C   UNL     1      33.671 -15.624 -24.976  0.00  0.00    +0.109 C 
ATOM     12  C   UNL     1      34.259 -16.411 -23.975  0.00  0.00    +0.029 C 
ATOM     13  C   UNL     1      33.531 -16.155 -26.362  0.00  0.00    +0.208 C 
ATOM     14  C   UNL     1      34.687 -15.318 -20.582  0.00  0.00    +0.182 C 
ATOM     15  C   UNL     1      32.531 -14.160 -27.014  0.00  0.00    +0.248 C 
ATOM     16  H   UNL     1      32.284 -12.689 -25.601  0.00  0.00    +0.156 HD
ATOM     17  H   UNL     1      35.259 -17.184 -21.368  0.00  0.00    +0.148 HD
ATOM     18  H   UNL     1      33.886 -13.415 -20.618  0.00  0.00    +0.148 HD
ATOM     19  H   UNL     1      31.641 -12.431 -27.666  0.00  0.00    +0.146 HD
ATOM     20  H   UNL     1      31.828 -13.629 -28.865  0.00  0.00    +0.146 HD
ENDROOT
BRANCH   7  21
ATOM     21  C   UNL     1      32.805 -12.400 -23.143  0.00  0.00    +0.034 C 
BRANCH  21  22
ATOM     22  C   UNL     1      31.715 -12.344 -22.056  0.00  0.00    +0.031 C 
BRANCH  22  23
ATOM     23  C   UNL     1      31.615 -10.998 -21.380  0.00  0.00    -0.022 C 
ATOM     24  C   UNL     1      31.403 -10.938 -20.011  0.00  0.00    -0.005 C 
ATOM     25  C   UNL     1      31.739  -9.846 -22.140  0.00  0.00    -0.005 C 
ATOM     26  C   UNL     1      31.432  -8.525 -20.140  0.00  0.00    -0.022 C 
ATOM     27  C   UNL     1      31.311  -9.694 -19.388  0.00  0.00    -0.005 C 
ATOM     28  C   UNL     1      31.647  -8.601 -21.516  0.00  0.00    -0.005 C 
ATOM     29  C   UNL     1      31.335  -7.196 -19.473  0.00  0.00    +0.031 C 
ENDBRANCH  22  23
ENDBRANCH  21  22
ENDBRANCH   7  21
TORSDOF 3
ENDMDL
MODEL 7
REMARK VINA RESULT:     -11.1      9.212     12.301
REMARK  Name = 5326929
REMARK  3 active torsions:
REMARK  status: ('A' for Active; 'I' for Inactive)
REMARK    1  A    between atoms: C_7  and  C_21
REMARK    2  A    between atoms: C_21  and  C_22
REMARK    3  A    between atoms: C_22  and  C_23
REMARK                            x       y       z     vdW  Elec       q    Type
REMARK                         _______ _______ _______ _____ _____    ______ ____
ROOT
ATOM      1  O   UNL     1      31.550 -17.912 -27.890  0.00  0.00    -0.209 OA
ATOM      2  N   UNL     1      32.732 -14.600 -25.973  0.00  0.00    -0.275 N 
ATOM      3  N   UNL     1      34.700 -19.312 -23.925  0.00  0.00    -0.315 N 
ATOM      4  N   UNL     1      35.339 -17.457 -22.883  0.00  0.00    -0.316 N 
ATOM      5  N   UNL     1      31.485 -15.629 -27.719  0.00  0.00    -0.302 NA
ATOM      6  N   UNL     1      31.514 -13.306 -27.422  0.00  0.00    -0.320 N 
ATOM      7  C   UNL     1      34.060 -15.881 -24.378  0.00  0.00    +0.007 C 
ATOM      8  C   UNL     1      33.205 -15.824 -25.490  0.00  0.00    +0.060 C 
ATOM      9  C   UNL     1      34.508 -17.138 -23.933  0.00  0.00    +0.056 C 
ATOM     10  C   UNL     1      34.094 -18.284 -24.602  0.00  0.00    +0.060 C 
ATOM     11  C   UNL     1      32.809 -17.004 -26.140  0.00  0.00    +0.109 C 
ATOM     12  C   UNL     1      33.245 -18.267 -25.710  0.00  0.00    +0.029 C 
ATOM     13  C   UNL     1      31.900 -16.885 -27.316  0.00  0.00    +0.208 C 
ATOM     14  C   UNL     1      35.432 -18.766 -22.907  0.00  0.00    +0.182 C 
ATOM     15  C   UNL     1      31.895 -14.575 -27.064  0.00  0.00    +0.248 C 
ATOM     16  H   UNL     1      32.996 -13.761 -25.532  0.00  0.00    +0.156 HD
ATOM     17  H   UNL     1      34.621 -20.270 -24.134  0.00  0.00    +0.148 HD
ATOM     18  H   UNL     1      35.769 -16.837 -22.251  0.00  0.00    +0.148 HD
ATOM     19  H   UNL     1      31.840 -12.530 -26.908  0.00  0.00    +0.146 HD
ATOM     20  H   UNL     1      30.915 -13.169 -28.190  0.00  0.00    +0.146 HD
ENDROOT
BRANCH   7  21
ATOM     21  C   UNL     1      34.486 -14.628 -23.681  0.00  0.00    +0.034 C 
BRANCH  21  22
ATOM     22  C   UNL     1      34.150 -14.605 -22.178  0.00  0.00    +0.031 C 
BRANCH  22  23
ATOM     23  C   UNL     1      33.113 -13.572 -21.815  0.00  0.00    -0.022 C 
ATOM     24  C   UNL     1      32.573 -13.569 -20.538  0.00  0.00    -0.005 C 
ATOM     25  C   UNL     1      32.718 -12.642 -22.764  0.00  0.00    -0.005 C 
ATOM     26  C   UNL     1      31.207 -11.672 -21.148  0.00  0.00    -0.022 C 
ATOM     27  C   UNL     1      31.614 -12.613 -20.203  0.00  0.00    -0.005 C 
ATOM     28  C   UNL     1      31.760 -11.686 -22.429  0.00  0.00    -0.005 C 
ATOM     29  C   UNL     1      30.183 -10.649 -20.789  0.00  0.00    +0.031 C 
ENDBRANCH  22  23
ENDBRANCH  21  22
ENDBRANCH   7  21
TORSDOF 3
ENDMDL
MODEL 8
REMARK VINA RESULT:     -10.9      3.691      7.035
REMARK  Name = 5326929
REMARK  3 active torsions:
REMARK  status: ('A' for Active; 'I' for Inactive)
REMARK    1  A    between atoms: C_7  and  C_21
REMARK    2  A    between atoms: C_21  and  C_22
REMARK    3  A    between atoms: C_22  and  C_23
REMARK                            x       y       z     vdW  Elec       q    Type
REMARK                         _______ _______ _______ _____ _____    ______ ____
ROOT
ATOM      1  O   UNL     1      32.996 -19.253 -22.018  0.00  0.00    -0.209 OA
ATOM      2  N   UNL     1      36.412 -20.300 -20.208  0.00  0.00    -0.275 N 
ATOM      3  N   UNL     1      31.869 -22.604 -18.131  0.00  0.00    -0.315 N 
ATOM      4  N   UNL     1      33.781 -23.167 -17.149  0.00  0.00    -0.316 N 
ATOM      5  N   UNL     1      35.274 -19.060 -21.891  0.00  0.00    -0.302 NA
ATOM      6  N   UNL     1      37.602 -18.963 -21.643  0.00  0.00    -0.320 N 
ATOM      7  C   UNL     1      35.246 -21.751 -18.633  0.00  0.00    +0.007 C 
ATOM      8  C   UNL     1      35.229 -20.859 -19.717  0.00  0.00    +0.060 C 
ATOM      9  C   UNL     1      34.028 -22.286 -18.177  0.00  0.00    +0.056 C 
ATOM     10  C   UNL     1      32.845 -21.919 -18.809  0.00  0.00    +0.060 C 
ATOM     11  C   UNL     1      34.014 -20.513 -20.329  0.00  0.00    +0.109 C 
ATOM     12  C   UNL     1      32.788 -21.035 -19.888  0.00  0.00    +0.029 C 
ATOM     13  C   UNL     1      34.053 -19.561 -21.476  0.00  0.00    +0.208 C 
ATOM     14  C   UNL     1      32.479 -23.335 -17.149  0.00  0.00    +0.182 C 
ATOM     15  C   UNL     1      36.365 -19.429 -21.272  0.00  0.00    +0.248 C 
ATOM     16  H   UNL     1      37.275 -20.529 -19.794  0.00  0.00    +0.156 HD
ATOM     17  H   UNL     1      30.903 -22.575 -18.317  0.00  0.00    +0.148 HD
ATOM     18  H   UNL     1      34.439 -23.581 -16.545  0.00  0.00    +0.148 HD
ATOM     19  H   UNL     1      38.406 -19.260 -21.156  0.00  0.00    +0.146 HD
ATOM     20  H   UNL     1      37.686 -18.333 -22.393  0.00  0.00    +0.146 HD
ENDROOT
BRANCH   7  21
ATOM     21  C   UNL     1      36.537 -22.125 -17.976  0.00  0.00    +0.034 C 
BRANCH  21  22
ATOM     22  C   UNL     1      36.662 -21.634 -16.522  0.00  0.00    +0.031 C 
BRANCH  22  23
ATOM     23  C   UNL     1      36.871 -22.752 -15.531  0.00  0.00    -0.022 C 
ATOM     24  C   UNL     1      37.936 -23.624 -15.702  0.00  0.00    -0.005 C 
ATOM     25  C   UNL     1      35.995 -22.889 -14.466  0.00  0.00    -0.005 C 
ATOM     26  C   UNL     1      37.253 -24.807 -13.709  0.00  0.00    -0.022 C 
ATOM     27  C   UNL     1      38.128 -24.657 -14.785  0.00  0.00    -0.005 C 
ATOM     28  C   UNL     1      36.187 -23.922 -13.549  0.00  0.00    -0.005 C 
ATOM     29  C   UNL     1      37.460 -25.911 -12.729  0.00  0.00    +0.031 C 
ENDBRANCH  22  23
ENDBRANCH  21  22
ENDBRANCH   7  21
TORSDOF 3
ENDMDL
MODEL 9
REMARK VINA RESULT:     -10.8      6.625     10.546
REMARK  Name = 5326929
REMARK  3 active torsions:
REMARK  status: ('A' for Active; 'I' for Inactive)
REMARK    1  A    between atoms: C_7  and  C_21
REMARK    2  A    between atoms: C_21  and  C_22
REMARK    3  A    between atoms: C_22  and  C_23
REMARK                            x       y       z     vdW  Elec       q    Type
REMARK                         _______ _______ _______ _____ _____    ______ ____
ROOT
ATOM      1  O   UNL     1      33.003 -16.486 -27.084  0.00  0.00    -0.209 OA
ATOM      2  N   UNL     1      34.528 -18.663 -24.088  0.00  0.00    -0.275 N 
ATOM      3  N   UNL     1      33.655 -13.360 -22.911  0.00  0.00    -0.315 N 
ATOM      4  N   UNL     1      34.500 -14.595 -21.268  0.00  0.00    -0.316 N 
ATOM      5  N   UNL     1      33.743 -18.518 -26.329  0.00  0.00    -0.302 NA
ATOM      6  N   UNL     1      34.527 -20.529 -25.420  0.00  0.00    -0.320 N 
ATOM      7  C   UNL     1      34.573 -16.742 -22.586  0.00  0.00    +0.007 C 
ATOM      8  C   UNL     1      34.288 -17.308 -23.839  0.00  0.00    +0.060 C 
ATOM      9  C   UNL     1      34.313 -15.375 -22.387  0.00  0.00    +0.056 C 
ATOM     10  C   UNL     1      33.783 -14.624 -23.430  0.00  0.00    +0.060 C 
ATOM     11  C   UNL     1      33.754 -16.517 -24.868  0.00  0.00    +0.109 C 
ATOM     12  C   UNL     1      33.488 -15.151 -24.689  0.00  0.00    +0.029 C 
ATOM     13  C   UNL     1      33.471 -17.170 -26.179  0.00  0.00    +0.208 C 
ATOM     14  C   UNL     1      34.097 -13.395 -21.617  0.00  0.00    +0.182 C 
ATOM     15  C   UNL     1      34.240 -19.191 -25.325  0.00  0.00    +0.248 C 
ATOM     16  H   UNL     1      34.903 -19.236 -23.381  0.00  0.00    +0.156 HD
ATOM     17  H   UNL     1      33.309 -12.571 -23.384  0.00  0.00    +0.148 HD
ATOM     18  H   UNL     1      34.859 -14.876 -20.396  0.00  0.00    +0.148 HD
ATOM     19  H   UNL     1      34.902 -21.009 -24.645  0.00  0.00    +0.146 HD
ATOM     20  H   UNL     1      34.360 -21.010 -26.262  0.00  0.00    +0.146 HD
ENDROOT
BRANCH   7  21
ATOM     21  C   UNL     1      35.142 -17.580 -21.484  0.00  0.00    +0.034 C 
BRANCH  21  22
ATOM     22  C   UNL     1      35.344 -19.058 -21.866  0.00  0.00    +0.031 C 
BRANCH  22  23
ATOM     23  C   UNL     1      34.705 -20.017 -20.893  0.00  0.00    -0.022 C 
ATOM     24  C   UNL     1      33.323 -20.050 -20.777  0.00  0.00    -0.005 C 
ATOM     25  C   UNL     1      35.510 -20.850 -20.132  0.00  0.00    -0.005 C 
ATOM     26  C   UNL     1      33.532 -21.781 -19.104  0.00  0.00    -0.022 C 
ATOM     27  C   UNL     1      32.734 -20.938 -19.877  0.00  0.00    -0.005 C 
ATOM     28  C   UNL     1      34.920 -21.737 -19.232  0.00  0.00    -0.005 C 
ATOM     29  C   UNL     1      32.901 -22.730 -18.143  0.00  0.00    +0.031 C 
ENDBRANCH  22  23
ENDBRANCH  21  22
ENDBRANCH   7  21
TORSDOF 3
ENDMDL
