MODEL 1
REMARK VINA RESULT:     -12.3      0.000      0.000
REMARK  Name = 49866474
REMARK  7 active torsions:
REMARK  status: ('A' for Active; 'I' for Inactive)
REMARK    1  A    between atoms: O_1  and  C_3
REMARK    2  A    between atoms: O_1  and  C_18
REMARK    3  A    between atoms: C_4  and  C_10
REMARK    4  A    between atoms: C_18  and  C_19
REMARK    5  A    between atoms: C_19  and  N_20
REMARK    6  A    between atoms: C_19  and  C_24
REMARK    7  A    between atoms: C_24  and  C_26
REMARK                            x       y       z     vdW  Elec       q    Type
REMARK                         _______ _______ _______ _____ _____    ______ ____
ROOT
ATOM      1  O   UNL     1      35.712 -22.379 -18.412  0.00  0.00    -0.476 OA
ENDROOT
BRANCH   1   3
ATOM      2  N   UNL     1      32.356 -21.456 -19.539  0.00  0.00    -0.239 NA
ATOM      3  C   UNL     1      34.718 -21.740 -19.106  0.00  0.00    +0.158 C 
ATOM      4  C   UNL     1      33.985 -20.130 -20.737  0.00  0.00    +0.022 C 
ATOM      5  C   UNL     1      35.015 -20.762 -20.049  0.00  0.00    +0.040 C 
ATOM      6  C   UNL     1      33.384 -22.048 -18.891  0.00  0.00    +0.136 C 
ATOM      7  C   UNL     1      32.684 -20.510 -20.448  0.00  0.00    +0.099 C 
BRANCH   4  10
ATOM      8  N   UNL     1      34.939 -16.394 -24.713  0.00  0.00    -0.236 N 
ATOM      9  N   UNL     1      34.472 -16.980 -25.828  0.00  0.00    -0.180 NA
ATOM     10  C   UNL     1      34.262 -19.111 -21.721  0.00  0.00    +0.002 C 
ATOM     11  C   UNL     1      34.197 -18.331 -24.002  0.00  0.00    +0.035 C 
ATOM     12  C   UNL     1      33.917 -19.335 -23.060  0.00  0.00    +0.003 C 
ATOM     13  C   UNL     1      34.804 -17.152 -23.581  0.00  0.00    +0.067 C 
ATOM     14  C   UNL     1      34.870 -17.918 -21.326  0.00  0.00    +0.001 C 
ATOM     15  C   UNL     1      35.155 -16.909 -22.252  0.00  0.00    +0.016 C 
ATOM     16  C   UNL     1      34.022 -18.158 -25.391  0.00  0.00    +0.119 C 
ATOM     17  H   UNL     1      35.342 -15.496 -24.709  0.00  0.00    +0.174 HD
ENDBRANCH   4  10
ENDBRANCH   1   3
BRANCH   1  18
ATOM     18  C   UNL     1      36.422 -21.607 -17.452  0.00  0.00    +0.184 C 
BRANCH  18  19
ATOM     19  C   UNL     1      36.407 -22.305 -16.087  0.00  0.00    -0.017 C 
BRANCH  19  20
ATOM     20  N   UNL     1      35.150 -23.048 -15.965  0.00  0.00    +0.384 N 
ATOM     21  H   UNL     1      35.269 -23.812 -15.299  0.00  0.00    -0.089 HD
ATOM     22  H   UNL     1      34.889 -23.428 -16.874  0.00  0.00    -0.089 HD
ATOM     23  H   UNL     1      34.415 -22.422 -15.635  0.00  0.00    -0.089 HD
ENDBRANCH  19  20
BRANCH  19  24
ATOM     24  C   UNL     1      37.593 -23.282 -15.891  0.00  0.00    +0.006 C 
BRANCH  24  26
ATOM     25  N   UNL     1      36.670 -26.391 -13.995  0.00  0.00    -0.234 NA
ATOM     26  C   UNL     1      37.402 -24.271 -14.814  0.00  0.00    -0.024 C 
ATOM     27  C   UNL     1      37.313 -24.184 -13.487  0.00  0.00    +0.065 C 
ATOM     28  C   UNL     1      37.035 -25.521 -12.858  0.00  0.00    +0.122 C 
ATOM     29  C   UNL     1      36.974 -25.660 -15.028  0.00  0.00    +0.072 C 
ATOM     30  C   UNL     1      37.284 -23.018 -12.642  0.00  0.00    -0.020 C 
ATOM     31  C   UNL     1      35.989 -25.423 -11.784  0.00  0.00    -0.004 C 
ATOM     32  C   UNL     1      36.568 -23.069 -11.503  0.00  0.00    -0.004 C 
ATOM     33  C   UNL     1      35.802 -24.254 -11.142  0.00  0.00    -0.003 C 
ENDBRANCH  24  26
ENDBRANCH  19  24
ENDBRANCH  18  19
ENDBRANCH   1  18
TORSDOF 7
ENDMDL
MODEL 2
REMARK VINA RESULT:     -12.0      4.104      7.622
REMARK  Name = 49866474
REMARK  7 active torsions:
REMARK  status: ('A' for Active; 'I' for Inactive)
REMARK    1  A    between atoms: O_1  and  C_3
REMARK    2  A    between atoms: O_1  and  C_18
REMARK    3  A    between atoms: C_4  and  C_10
REMARK    4  A    between atoms: C_18  and  C_19
REMARK    5  A    between atoms: C_19  and  N_20
REMARK    6  A    between atoms: C_19  and  C_24
REMARK    7  A    between atoms: C_24  and  C_26
REMARK                            x       y       z     vdW  Elec       q    Type
REMARK                         _______ _______ _______ _____ _____    ______ ____
ROOT
ATOM      1  O   UNL     1      33.112 -18.579 -24.039  0.00  0.00    -0.476 OA
ENDROOT
BRANCH   1   3
ATOM      2  N   UNL     1      31.883 -17.667 -27.363  0.00  0.00    -0.239 NA
ATOM      3  C   UNL     1      32.812 -17.812 -25.135  0.00  0.00    +0.158 C 
ATOM      4  C   UNL     1      32.788 -15.700 -26.286  0.00  0.00    +0.022 C 
ATOM      5  C   UNL     1      33.106 -16.454 -25.161  0.00  0.00    +0.040 C 
ATOM      6  C   UNL     1      32.207 -18.366 -26.252  0.00  0.00    +0.136 C 
ATOM      7  C   UNL     1      32.184 -16.348 -27.351  0.00  0.00    +0.099 C 
BRANCH   4  10
ATOM      8  N   UNL     1      33.867 -10.268 -26.217  0.00  0.00    -0.236 N 
ATOM      9  N   UNL     1      33.759  -9.932 -24.920  0.00  0.00    -0.180 NA
ATOM     10  C   UNL     1      33.080 -14.287 -26.343  0.00  0.00    +0.002 C 
ATOM     11  C   UNL     1      33.356 -12.162 -25.237  0.00  0.00    +0.035 C 
ATOM     12  C   UNL     1      33.072 -13.535 -25.160  0.00  0.00    +0.003 C 
ATOM     13  C   UNL     1      33.636 -11.592 -26.475  0.00  0.00    +0.067 C 
ATOM     14  C   UNL     1      33.365 -13.690 -27.571  0.00  0.00    +0.001 C 
ATOM     15  C   UNL     1      33.650 -12.324 -27.664  0.00  0.00    +0.016 C 
ATOM     16  C   UNL     1      33.450 -11.086 -24.328  0.00  0.00    +0.119 C 
ATOM     17  H   UNL     1      34.092  -9.618 -26.921  0.00  0.00    +0.174 HD
ENDBRANCH   4  10
ENDBRANCH   1   3
BRANCH   1  18
ATOM     18  C   UNL     1      34.385 -19.212 -24.028  0.00  0.00    +0.184 C 
BRANCH  18  19
ATOM     19  C   UNL     1      35.216 -18.722 -22.836  0.00  0.00    -0.017 C 
BRANCH  19  20
ATOM     20  N   UNL     1      35.777 -17.411 -23.175  0.00  0.00    +0.384 N 
ATOM     21  H   UNL     1      36.732 -17.528 -23.516  0.00  0.00    -0.089 HD
ATOM     22  H   UNL     1      35.782 -16.818 -22.346  0.00  0.00    -0.089 HD
ATOM     23  H   UNL     1      35.209 -16.976 -23.902  0.00  0.00    -0.089 HD
ENDBRANCH  19  20
BRANCH  19  24
ATOM     24  C   UNL     1      34.392 -18.596 -21.531  0.00  0.00    +0.006 C 
BRANCH  24  26
ATOM     25  N   UNL     1      32.354 -21.368 -20.022  0.00  0.00    -0.234 NA
ATOM     26  C   UNL     1      33.985 -19.882 -20.935  0.00  0.00    -0.024 C 
ATOM     27  C   UNL     1      34.634 -20.836 -20.267  0.00  0.00    +0.065 C 
ATOM     28  C   UNL     1      33.706 -21.925 -19.807  0.00  0.00    +0.122 C 
ATOM     29  C   UNL     1      32.591 -20.291 -20.713  0.00  0.00    +0.072 C 
ATOM     30  C   UNL     1      36.000 -20.873 -19.812  0.00  0.00    -0.020 C 
ATOM     31  C   UNL     1      33.994 -22.339 -18.392  0.00  0.00    -0.004 C 
ATOM     32  C   UNL     1      36.279 -21.531 -18.672  0.00  0.00    -0.004 C 
ATOM     33  C   UNL     1      35.228 -22.161 -17.884  0.00  0.00    -0.003 C 
ENDBRANCH  24  26
ENDBRANCH  19  24
ENDBRANCH  18  19
ENDBRANCH   1  18
TORSDOF 7
ENDMDL
MODEL 3
REMARK VINA RESULT:     -12.0      3.107     10.711
REMARK  Name = 49866474
REMARK  7 active torsions:
REMARK  status: ('A' for Active; 'I' for Inactive)
REMARK    1  A    between atoms: O_1  and  C_3
REMARK    2  A    between atoms: O_1  and  C_18
REMARK    3  A    between atoms: C_4  and  C_10
REMARK    4  A    between atoms: C_18  and  C_19
REMARK    5  A    between atoms: C_19  and  N_20
REMARK    6  A    between atoms: C_19  and  C_24
REMARK    7  A    between atoms: C_24  and  C_26
REMARK                            x       y       z     vdW  Elec       q    Type
REMARK                         _______ _______ _______ _____ _____    ______ ____
ROOT
ATOM      1  O   UNL     1      34.960 -21.590 -19.953  0.00  0.00    -0.476 OA
ENDROOT
BRANCH   1   3
ATOM      2  N   UNL     1      36.447 -22.187 -16.663  0.00  0.00    -0.239 NA
ATOM      3  C   UNL     1      35.074 -21.978 -18.643  0.00  0.00    +0.158 C 
ATOM      4  C   UNL     1      34.143 -22.920 -16.635  0.00  0.00    +0.022 C 
ATOM      5  C   UNL     1      33.997 -22.537 -17.964  0.00  0.00    +0.040 C 
ATOM      6  C   UNL     1      36.267 -21.826 -17.954  0.00  0.00    +0.136 C 
ATOM      7  C   UNL     1      35.377 -22.725 -16.036  0.00  0.00    +0.099 C 
BRANCH   4  10
ATOM      8  N   UNL     1      29.747 -25.074 -14.043  0.00  0.00    -0.236 N 
ATOM      9  N   UNL     1      28.728 -24.848 -14.890  0.00  0.00    -0.180 NA
ATOM     10  C   UNL     1      33.043 -23.502 -15.903  0.00  0.00    +0.002 C 
ATOM     11  C   UNL     1      30.700 -24.045 -15.729  0.00  0.00    +0.035 C 
ATOM     12  C   UNL     1      31.756 -23.475 -16.458  0.00  0.00    +0.003 C 
ATOM     13  C   UNL     1      30.958 -24.616 -14.488  0.00  0.00    +0.067 C 
ATOM     14  C   UNL     1      33.274 -24.082 -14.655  0.00  0.00    +0.001 C 
ATOM     15  C   UNL     1      32.232 -24.653 -13.918  0.00  0.00    +0.016 C 
ATOM     16  C   UNL     1      29.312 -24.223 -15.914  0.00  0.00    +0.119 C 
ATOM     17  H   UNL     1      29.633 -25.530 -13.178  0.00  0.00    +0.174 HD
ENDBRANCH   4  10
ENDBRANCH   1   3
BRANCH   1  18
ATOM     18  C   UNL     1      34.044 -20.540 -20.233  0.00  0.00    +0.184 C 
BRANCH  18  19
ATOM     19  C   UNL     1      34.735 -19.423 -21.024  0.00  0.00    -0.017 C 
BRANCH  19  20
ATOM     20  N   UNL     1      36.122 -19.323 -20.561  0.00  0.00    +0.384 N 
ATOM     21  H   UNL     1      36.264 -19.954 -19.772  0.00  0.00    -0.089 HD
ATOM     22  H   UNL     1      36.316 -18.366 -20.270  0.00  0.00    -0.089 HD
ATOM     23  H   UNL     1      36.753 -19.582 -21.320  0.00  0.00    -0.089 HD
ENDBRANCH  19  20
BRANCH  19  24
ATOM     24  C   UNL     1      34.729 -19.668 -22.553  0.00  0.00    +0.006 C 
BRANCH  24  26
ATOM     25  N   UNL     1      34.579 -16.073 -23.632  0.00  0.00    -0.234 NA
ATOM     26  C   UNL     1      34.625 -18.445 -23.371  0.00  0.00    -0.024 C 
ATOM     27  C   UNL     1      34.106 -18.179 -24.570  0.00  0.00    +0.065 C 
ATOM     28  C   UNL     1      34.202 -16.718 -24.906  0.00  0.00    +0.122 C 
ATOM     29  C   UNL     1      34.871 -17.086 -22.870  0.00  0.00    +0.072 C 
ATOM     30  C   UNL     1      33.359 -19.032 -25.458  0.00  0.00    -0.020 C 
ATOM     31  C   UNL     1      32.928 -16.203 -25.515  0.00  0.00    -0.004 C 
ATOM     32  C   UNL     1      32.410 -18.477 -26.234  0.00  0.00    -0.004 C 
ATOM     33  C   UNL     1      32.105 -17.054 -26.157  0.00  0.00    -0.003 C 
ENDBRANCH  24  26
ENDBRANCH  19  24
ENDBRANCH  18  19
ENDBRANCH   1  18
TORSDOF 7
ENDMDL
MODEL 4
REMARK VINA RESULT:     -12.0      1.748      2.337
REMARK  Name = 49866474
REMARK  7 active torsions:
REMARK  status: ('A' for Active; 'I' for Inactive)
REMARK    1  A    between atoms: O_1  and  C_3
REMARK    2  A    between atoms: O_1  and  C_18
REMARK    3  A    between atoms: C_4  and  C_10
REMARK    4  A    between atoms: C_18  and  C_19
REMARK    5  A    between atoms: C_19  and  N_20
REMARK    6  A    between atoms: C_19  and  C_24
REMARK    7  A    between atoms: C_24  and  C_26
REMARK                            x       y       z     vdW  Elec       q    Type
REMARK                         _______ _______ _______ _____ _____    ______ ____
ROOT
ATOM      1  O   UNL     1      32.839 -22.130 -18.840  0.00  0.00    -0.476 OA
ENDROOT
BRANCH   1   3
ATOM      2  N   UNL     1      36.291 -21.025 -19.340  0.00  0.00    -0.239 NA
ATOM      3  C   UNL     1      33.912 -21.458 -19.364  0.00  0.00    +0.158 C 
ATOM      4  C   UNL     1      34.859 -19.891 -20.924  0.00  0.00    +0.022 C 
ATOM      5  C   UNL     1      33.751 -20.558 -20.412  0.00  0.00    +0.040 C 
ATOM      6  C   UNL     1      35.191 -21.654 -18.868  0.00  0.00    +0.136 C 
ATOM      7  C   UNL     1      36.095 -20.158 -20.359  0.00  0.00    +0.099 C 
BRANCH   4  10
ATOM      8  N   UNL     1      34.277 -16.506 -25.270  0.00  0.00    -0.236 N 
ATOM      9  N   UNL     1      33.931 -17.326 -26.276  0.00  0.00    -0.180 NA
ATOM     10  C   UNL     1      34.724 -18.951 -22.012  0.00  0.00    +0.002 C 
ATOM     11  C   UNL     1      34.239 -18.486 -24.328  0.00  0.00    +0.035 C 
ATOM     12  C   UNL     1      34.362 -19.416 -23.283  0.00  0.00    +0.003 C 
ATOM     13  C   UNL     1      34.476 -17.139 -24.073  0.00  0.00    +0.067 C 
ATOM     14  C   UNL     1      34.957 -17.594 -21.784  0.00  0.00    +0.001 C 
ATOM     15  C   UNL     1      34.838 -16.655 -22.814  0.00  0.00    +0.016 C 
ATOM     16  C   UNL     1      33.908 -18.529 -25.699  0.00  0.00    +0.119 C 
ATOM     17  H   UNL     1      34.378 -15.533 -25.383  0.00  0.00    +0.174 HD
ENDBRANCH   4  10
ENDBRANCH   1   3
BRANCH   1  18
ATOM     18  C   UNL     1      33.117 -23.335 -18.138  0.00  0.00    +0.184 C 
BRANCH  18  19
ATOM     19  C   UNL     1      32.953 -23.126 -16.628  0.00  0.00    -0.017 C 
BRANCH  19  20
ATOM     20  N   UNL     1      31.521 -23.158 -16.313  0.00  0.00    +0.384 N 
ATOM     21  H   UNL     1      31.321 -22.490 -15.569  0.00  0.00    -0.089 HD
ATOM     22  H   UNL     1      31.262 -24.095 -16.008  0.00  0.00    -0.089 HD
ATOM     23  H   UNL     1      30.985 -22.911 -17.145  0.00  0.00    -0.089 HD
ENDBRANCH  19  20
BRANCH  19  24
ATOM     24  C   UNL     1      33.680 -24.200 -15.783  0.00  0.00    +0.006 C 
BRANCH  24  26
ATOM     25  N   UNL     1      37.200 -23.129 -15.021  0.00  0.00    -0.234 NA
ATOM     26  C   UNL     1      34.887 -23.719 -15.085  0.00  0.00    -0.024 C 
ATOM     27  C   UNL     1      35.263 -23.690 -13.806  0.00  0.00    +0.065 C 
ATOM     28  C   UNL     1      36.657 -23.151 -13.647  0.00  0.00    +0.122 C 
ATOM     29  C   UNL     1      36.150 -23.373 -15.751  0.00  0.00    +0.072 C 
ATOM     30  C   UNL     1      34.609 -24.233 -12.643  0.00  0.00    -0.020 C 
ATOM     31  C   UNL     1      37.459 -23.963 -12.670  0.00  0.00    -0.004 C 
ATOM     32  C   UNL     1      35.372 -24.682 -11.629  0.00  0.00    -0.004 C 
ATOM     33  C   UNL     1      36.827 -24.664 -11.710  0.00  0.00    -0.003 C 
ENDBRANCH  24  26
ENDBRANCH  19  24
ENDBRANCH  18  19
ENDBRANCH   1  18
TORSDOF 7
ENDMDL
MODEL 5
REMARK VINA RESULT:     -11.9      5.182     11.878
REMARK  Name = 49866474
REMARK  7 active torsions:
REMARK  status: ('A' for Active; 'I' for Inactive)
REMARK    1  A    between atoms: O_1  and  C_3
REMARK    2  A    between atoms: O_1  and  C_18
REMARK    3  A    between atoms: C_4  and  C_10
REMARK    4  A    between atoms: C_18  and  C_19
REMARK    5  A    between atoms: C_19  and  N_20
REMARK    6  A    between atoms: C_19  and  C_24
REMARK    7  A    between atoms: C_24  and  C_26
REMARK                            x       y       z     vdW  Elec       q    Type
REMARK                         _______ _______ _______ _____ _____    ______ ____
ROOT
ATOM      1  O   UNL     1      34.937 -15.058 -23.267  0.00  0.00    -0.476 OA
ENDROOT
BRANCH   1   3
ATOM      2  N   UNL     1      34.355 -18.219 -25.015  0.00  0.00    -0.239 NA
ATOM      3  C   UNL     1      34.700 -16.393 -23.468  0.00  0.00    +0.158 C 
ATOM      4  C   UNL     1      34.328 -18.617 -22.630  0.00  0.00    +0.022 C 
ATOM      5  C   UNL     1      34.567 -17.267 -22.395  0.00  0.00    +0.040 C 
ATOM      6  C   UNL     1      34.586 -16.915 -24.747  0.00  0.00    +0.136 C 
ATOM      7  C   UNL     1      34.232 -19.039 -23.946  0.00  0.00    +0.099 C 
BRANCH   4  10
ATOM      8  N   UNL     1      34.069 -22.198 -18.413  0.00  0.00    -0.236 N 
ATOM      9  N   UNL     1      35.354 -22.394 -18.074  0.00  0.00    -0.180 NA
ATOM     10  C   UNL     1      34.185 -19.550 -21.537  0.00  0.00    +0.002 C 
ATOM     11  C   UNL     1      35.170 -20.929 -19.822  0.00  0.00    +0.035 C 
ATOM     12  C   UNL     1      35.330 -20.022 -20.882  0.00  0.00    +0.003 C 
ATOM     13  C   UNL     1      33.889 -21.330 -19.456  0.00  0.00    +0.067 C 
ATOM     14  C   UNL     1      32.912 -19.968 -21.149  0.00  0.00    +0.001 C 
ATOM     15  C   UNL     1      32.736 -20.871 -20.095  0.00  0.00    +0.016 C 
ATOM     16  C   UNL     1      36.020 -21.620 -18.932  0.00  0.00    +0.119 C 
ATOM     17  H   UNL     1      33.320 -22.641 -17.951  0.00  0.00    +0.174 HD
ENDBRANCH   4  10
ENDBRANCH   1   3
BRANCH   1  18
ATOM     18  C   UNL     1      34.080 -14.385 -22.354  0.00  0.00    +0.184 C 
BRANCH  18  19
ATOM     19  C   UNL     1      33.267 -13.306 -23.078  0.00  0.00    -0.017 C 
BRANCH  19  20
ATOM     20  N   UNL     1      32.758 -13.877 -24.329  0.00  0.00    +0.384 N 
ATOM     21  H   UNL     1      31.947 -13.343 -24.641  0.00  0.00    -0.089 HD
ATOM     22  H   UNL     1      32.489 -14.847 -24.175  0.00  0.00    -0.089 HD
ATOM     23  H   UNL     1      33.487 -13.835 -25.042  0.00  0.00    -0.089 HD
ENDBRANCH  19  20
BRANCH  19  24
ATOM     24  C   UNL     1      32.076 -12.779 -22.242  0.00  0.00    +0.006 C 
BRANCH  24  26
ATOM     25  N   UNL     1      32.412  -9.147 -23.144  0.00  0.00    -0.234 NA
ATOM     26  C   UNL     1      31.865 -11.321 -22.323  0.00  0.00    -0.024 C 
ATOM     27  C   UNL     1      31.286 -10.427 -21.520  0.00  0.00    +0.065 C 
ATOM     28  C   UNL     1      31.419  -9.030 -22.057  0.00  0.00    +0.122 C 
ATOM     29  C   UNL     1      32.542 -10.435 -23.279  0.00  0.00    +0.072 C 
ATOM     30  C   UNL     1      30.730 -10.598 -20.202  0.00  0.00    -0.020 C 
ATOM     31  C   UNL     1      31.786  -8.052 -20.976  0.00  0.00    -0.004 C 
ATOM     32  C   UNL     1      30.804  -9.570 -19.337  0.00  0.00    -0.004 C 
ATOM     33  C   UNL     1      31.465  -8.322 -19.697  0.00  0.00    -0.003 C 
ENDBRANCH  24  26
ENDBRANCH  19  24
ENDBRANCH  18  19
ENDBRANCH   1  18
TORSDOF 7
ENDMDL
MODEL 6
REMARK VINA RESULT:     -11.8      1.896     11.072
REMARK  Name = 49866474
REMARK  7 active torsions:
REMARK  status: ('A' for Active; 'I' for Inactive)
REMARK    1  A    between atoms: O_1  and  C_3
REMARK    2  A    between atoms: O_1  and  C_18
REMARK    3  A    between atoms: C_4  and  C_10
REMARK    4  A    between atoms: C_18  and  C_19
REMARK    5  A    between atoms: C_19  and  N_20
REMARK    6  A    between atoms: C_19  and  C_24
REMARK    7  A    between atoms: C_24  and  C_26
REMARK                            x       y       z     vdW  Elec       q    Type
REMARK                         _______ _______ _______ _____ _____    ______ ____
ROOT
ATOM      1  O   UNL     1      34.920 -21.306 -19.522  0.00  0.00    -0.476 OA
ENDROOT
BRANCH   1   3
ATOM      2  N   UNL     1      32.529 -23.169 -17.472  0.00  0.00    -0.239 NA
ATOM      3  C   UNL     1      34.412 -22.030 -18.475  0.00  0.00    +0.158 C 
ATOM      4  C   UNL     1      34.662 -23.102 -16.336  0.00  0.00    +0.022 C 
ATOM      5  C   UNL     1      35.205 -22.365 -17.383  0.00  0.00    +0.040 C 
ATOM      6  C   UNL     1      33.092 -22.452 -18.471  0.00  0.00    +0.136 C 
ATOM      7  C   UNL     1      33.332 -23.476 -16.428  0.00  0.00    +0.099 C 
BRANCH   4  10
ATOM      8  N   UNL     1      37.488 -24.476 -11.774  0.00  0.00    -0.236 N 
ATOM      9  N   UNL     1      36.558 -24.475 -10.804  0.00  0.00    -0.180 NA
ATOM     10  C   UNL     1      35.461 -23.465 -15.189  0.00  0.00    +0.002 C 
ATOM     11  C   UNL     1      35.645 -23.931 -12.830  0.00  0.00    +0.035 C 
ATOM     12  C   UNL     1      34.850 -23.578 -13.933  0.00  0.00    +0.003 C 
ATOM     13  C   UNL     1      37.005 -24.157 -13.014  0.00  0.00    +0.067 C 
ATOM     14  C   UNL     1      36.828 -23.698 -15.345  0.00  0.00    +0.001 C 
ATOM     15  C   UNL     1      37.632 -24.050 -14.257  0.00  0.00    +0.016 C 
ATOM     16  C   UNL     1      35.439 -24.144 -11.450  0.00  0.00    +0.119 C 
ATOM     17  H   UNL     1      38.435 -24.688 -11.608  0.00  0.00    +0.174 HD
ENDBRANCH   4  10
ENDBRANCH   1   3
BRANCH   1  18
ATOM     18  C   UNL     1      34.001 -20.506 -20.254  0.00  0.00    +0.184 C 
BRANCH  18  19
ATOM     19  C   UNL     1      34.743 -19.406 -21.023  0.00  0.00    -0.017 C 
BRANCH  19  20
ATOM     20  N   UNL     1      36.129 -19.368 -20.547  0.00  0.00    +0.384 N 
ATOM     21  H   UNL     1      36.620 -18.592 -20.991  0.00  0.00    -0.089 HD
ATOM     22  H   UNL     1      36.593 -20.244 -20.783  0.00  0.00    -0.089 HD
ATOM     23  H   UNL     1      36.137 -19.241 -19.535  0.00  0.00    -0.089 HD
ENDBRANCH  19  20
BRANCH  19  24
ATOM     24  C   UNL     1      34.741 -19.628 -22.555  0.00  0.00    +0.006 C 
BRANCH  24  26
ATOM     25  N   UNL     1      34.644 -16.015 -23.578  0.00  0.00    -0.234 NA
ATOM     26  C   UNL     1      34.667 -18.391 -23.355  0.00  0.00    -0.024 C 
ATOM     27  C   UNL     1      34.182 -18.102 -24.563  0.00  0.00    +0.065 C 
ATOM     28  C   UNL     1      34.297 -16.636 -24.873  0.00  0.00    +0.122 C 
ATOM     29  C   UNL     1      34.908 -17.043 -22.825  0.00  0.00    +0.072 C 
ATOM     30  C   UNL     1      33.454 -18.936 -25.485  0.00  0.00    -0.020 C 
ATOM     31  C   UNL     1      33.043 -16.103 -25.507  0.00  0.00    -0.004 C 
ATOM     32  C   UNL     1      32.530 -18.360 -26.277  0.00  0.00    -0.004 C 
ATOM     33  C   UNL     1      32.233 -16.937 -26.185  0.00  0.00    -0.003 C 
ENDBRANCH  24  26
ENDBRANCH  19  24
ENDBRANCH  18  19
ENDBRANCH   1  18
TORSDOF 7
ENDMDL
MODEL 7
REMARK VINA RESULT:     -11.7      2.262     10.538
REMARK  Name = 49866474
REMARK  7 active torsions:
REMARK  status: ('A' for Active; 'I' for Inactive)
REMARK    1  A    between atoms: O_1  and  C_3
REMARK    2  A    between atoms: O_1  and  C_18
REMARK    3  A    between atoms: C_4  and  C_10
REMARK    4  A    between atoms: C_18  and  C_19
REMARK    5  A    between atoms: C_19  and  N_20
REMARK    6  A    between atoms: C_19  and  C_24
REMARK    7  A    between atoms: C_24  and  C_26
REMARK                            x       y       z     vdW  Elec       q    Type
REMARK                         _______ _______ _______ _____ _____    ______ ____
ROOT
ATOM      1  O   UNL     1      32.405 -22.231 -18.792  0.00  0.00    -0.476 OA
ENDROOT
BRANCH   1   3
ATOM      2  N   UNL     1      30.791 -23.261 -15.674  0.00  0.00    -0.239 NA
ATOM      3  C   UNL     1      32.254 -22.733 -17.526  0.00  0.00    +0.158 C 
ATOM      4  C   UNL     1      33.161 -23.721 -15.529  0.00  0.00    +0.022 C 
ATOM      5  C   UNL     1      33.345 -23.215 -16.811  0.00  0.00    +0.040 C 
ATOM      6  C   UNL     1      31.010 -22.778 -16.918  0.00  0.00    +0.136 C 
ATOM      7  C   UNL     1      31.876 -23.722 -15.011  0.00  0.00    +0.099 C 
BRANCH   4  10
ATOM      8  N   UNL     1      37.330 -25.524 -12.359  0.00  0.00    -0.236 N 
ATOM      9  N   UNL     1      37.088 -24.971 -11.159  0.00  0.00    -0.180 NA
ATOM     10  C   UNL     1      34.274 -24.229 -14.762  0.00  0.00    +0.002 C 
ATOM     11  C   UNL     1      35.488 -24.380 -12.684  0.00  0.00    +0.035 C 
ATOM     12  C   UNL     1      34.397 -23.876 -13.411  0.00  0.00    +0.003 C 
ATOM     13  C   UNL     1      36.407 -25.208 -13.319  0.00  0.00    +0.067 C 
ATOM     14  C   UNL     1      35.211 -25.062 -15.374  0.00  0.00    +0.001 C 
ATOM     15  C   UNL     1      36.302 -25.571 -14.663  0.00  0.00    +0.016 C 
ATOM     16  C   UNL     1      35.966 -24.277 -11.360  0.00  0.00    +0.119 C 
ATOM     17  H   UNL     1      38.105 -26.106 -12.534  0.00  0.00    +0.174 HD
ENDBRANCH   4  10
ENDBRANCH   1   3
BRANCH   1  18
ATOM     18  C   UNL     1      33.680 -22.395 -19.400  0.00  0.00    +0.184 C 
BRANCH  18  19
ATOM     19  C   UNL     1      34.277 -21.032 -19.770  0.00  0.00    -0.017 C 
BRANCH  19  20
ATOM     20  N   UNL     1      35.676 -21.234 -20.158  0.00  0.00    +0.384 N 
ATOM     21  H   UNL     1      36.078 -21.988 -19.601  0.00  0.00    -0.089 HD
ATOM     22  H   UNL     1      36.201 -20.375 -19.997  0.00  0.00    -0.089 HD
ATOM     23  H   UNL     1      35.722 -21.481 -21.147  0.00  0.00    -0.089 HD
ENDBRANCH  19  20
BRANCH  19  24
ATOM     24  C   UNL     1      33.527 -20.334 -20.931  0.00  0.00    +0.006 C 
BRANCH  24  26
ATOM     25  N   UNL     1      35.105 -16.977 -21.524  0.00  0.00    -0.234 NA
ATOM     26  C   UNL     1      34.255 -19.208 -21.544  0.00  0.00    -0.024 C 
ATOM     27  C   UNL     1      34.547 -18.874 -22.801  0.00  0.00    +0.065 C 
ATOM     28  C   UNL     1      35.261 -17.553 -22.875  0.00  0.00    +0.122 C 
ATOM     29  C   UNL     1      34.621 -17.972 -20.839  0.00  0.00    +0.072 C 
ATOM     30  C   UNL     1      34.144 -19.497 -24.036  0.00  0.00    -0.020 C 
ATOM     31  C   UNL     1      34.726 -16.695 -23.987  0.00  0.00    -0.004 C 
ATOM     32  C   UNL     1      33.967 -18.719 -25.120  0.00  0.00    -0.004 C 
ATOM     33  C   UNL     1      34.136 -17.273 -25.050  0.00  0.00    -0.003 C 
ENDBRANCH  24  26
ENDBRANCH  19  24
ENDBRANCH  18  19
ENDBRANCH   1  18
TORSDOF 7
ENDMDL
MODEL 8
REMARK VINA RESULT:     -11.6      3.608      8.915
REMARK  Name = 49866474
REMARK  7 active torsions:
REMARK  status: ('A' for Active; 'I' for Inactive)
REMARK    1  A    between atoms: O_1  and  C_3
REMARK    2  A    between atoms: O_1  and  C_18
REMARK    3  A    between atoms: C_4  and  C_10
REMARK    4  A    between atoms: C_18  and  C_19
REMARK    5  A    between atoms: C_19  and  N_20
REMARK    6  A    between atoms: C_19  and  C_24
REMARK    7  A    between atoms: C_24  and  C_26
REMARK                            x       y       z     vdW  Elec       q    Type
REMARK                         _______ _______ _______ _____ _____    ______ ____
ROOT
ATOM      1  O   UNL     1      36.128 -23.843 -16.177  0.00  0.00    -0.476 OA
ENDROOT
BRANCH   1   3
ATOM      2  N   UNL     1      34.560 -24.005 -12.875  0.00  0.00    -0.239 NA
ATOM      3  C   UNL     1      35.152 -23.919 -15.219  0.00  0.00    +0.158 C 
ATOM      4  C   UNL     1      32.839 -24.060 -14.573  0.00  0.00    +0.022 C 
ATOM      5  C   UNL     1      33.808 -23.985 -15.568  0.00  0.00    +0.040 C 
ATOM      6  C   UNL     1      35.473 -23.933 -13.870  0.00  0.00    +0.136 C 
ATOM      7  C   UNL     1      33.263 -24.067 -13.254  0.00  0.00    +0.099 C 
BRANCH   4  10
ATOM      8  N   UNL     1      27.488 -24.085 -16.002  0.00  0.00    -0.236 N 
ATOM      9  N   UNL     1      27.362 -23.019 -16.810  0.00  0.00    -0.180 NA
ATOM     10  C   UNL     1      31.435 -24.129 -14.904  0.00  0.00    +0.002 C 
ATOM     11  C   UNL     1      29.513 -23.248 -16.063  0.00  0.00    +0.035 C 
ATOM     12  C   UNL     1      30.881 -23.164 -15.755  0.00  0.00    +0.003 C 
ATOM     13  C   UNL     1      28.754 -24.278 -15.520  0.00  0.00    +0.067 C 
ATOM     14  C   UNL     1      30.650 -25.153 -14.372  0.00  0.00    +0.001 C 
ATOM     15  C   UNL     1      29.287 -25.249 -14.670  0.00  0.00    +0.016 C 
ATOM     16  C   UNL     1      28.596 -22.513 -16.845  0.00  0.00    +0.119 C 
ATOM     17  H   UNL     1      26.734 -24.677 -15.777  0.00  0.00    +0.174 HD
ENDBRANCH   4  10
ENDBRANCH   1   3
BRANCH   1  18
ATOM     18  C   UNL     1      36.901 -22.651 -16.213  0.00  0.00    +0.184 C 
BRANCH  18  19
ATOM     19  C   UNL     1      36.228 -21.603 -17.108  0.00  0.00    -0.017 C 
BRANCH  19  20
ATOM     20  N   UNL     1      37.148 -20.473 -17.263  0.00  0.00    +0.384 N 
ATOM     21  H   UNL     1      37.980 -20.630 -16.694  0.00  0.00    -0.089 HD
ATOM     22  H   UNL     1      36.687 -19.615 -16.962  0.00  0.00    -0.089 HD
ATOM     23  H   UNL     1      37.419 -20.387 -18.243  0.00  0.00    -0.089 HD
ENDBRANCH  19  20
BRANCH  19  24
ATOM     24  C   UNL     1      35.856 -22.148 -18.509  0.00  0.00    +0.006 C 
BRANCH  24  26
ATOM     25  N   UNL     1      32.642 -21.118 -20.157  0.00  0.00    -0.234 NA
ATOM     26  C   UNL     1      34.821 -21.372 -19.216  0.00  0.00    -0.024 C 
ATOM     27  C   UNL     1      34.855 -20.327 -20.042  0.00  0.00    +0.065 C 
ATOM     28  C   UNL     1      33.485 -19.971 -20.548  0.00  0.00    +0.122 C 
ATOM     29  C   UNL     1      33.422 -21.796 -19.367  0.00  0.00    +0.072 C 
ATOM     30  C   UNL     1      35.987 -19.641 -20.611  0.00  0.00    -0.020 C 
ATOM     31  C   UNL     1      33.497 -19.674 -22.021  0.00  0.00    -0.004 C 
ATOM     32  C   UNL     1      35.863 -19.106 -21.840  0.00  0.00    -0.004 C 
ATOM     33  C   UNL     1      34.631 -19.246 -22.606  0.00  0.00    -0.003 C 
ENDBRANCH  24  26
ENDBRANCH  19  24
ENDBRANCH  18  19
ENDBRANCH   1  18
TORSDOF 7
ENDMDL
MODEL 9
REMARK VINA RESULT:     -11.5      7.863     13.024
REMARK  Name = 49866474
REMARK  7 active torsions:
REMARK  status: ('A' for Active; 'I' for Inactive)
REMARK    1  A    between atoms: O_1  and  C_3
REMARK    2  A    between atoms: O_1  and  C_18
REMARK    3  A    between atoms: C_4  and  C_10
REMARK    4  A    between atoms: C_18  and  C_19
REMARK    5  A    between atoms: C_19  and  N_20
REMARK    6  A    between atoms: C_19  and  C_24
REMARK    7  A    between atoms: C_24  and  C_26
REMARK                            x       y       z     vdW  Elec       q    Type
REMARK                         _______ _______ _______ _____ _____    ______ ____
ROOT
ATOM      1  O   UNL     1      33.742 -10.090 -24.805  0.00  0.00    -0.476 OA
ENDROOT
BRANCH   1   3
ATOM      2  N   UNL     1      32.703 -13.244 -26.341  0.00  0.00    -0.239 NA
ATOM      3  C   UNL     1      33.536 -11.435 -24.970  0.00  0.00    +0.158 C 
ATOM      4  C   UNL     1      33.703 -13.704 -24.188  0.00  0.00    +0.022 C 
ATOM      5  C   UNL     1      33.924 -12.345 -23.993  0.00  0.00    +0.040 C 
ATOM      6  C   UNL     1      32.935 -11.931 -26.116  0.00  0.00    +0.136 C 
ATOM      7  C   UNL     1      33.095 -14.098 -25.369  0.00  0.00    +0.099 C 
BRANCH   4  10
ATOM      8  N   UNL     1      35.250 -17.610 -20.579  0.00  0.00    -0.236 N 
ATOM      9  N   UNL     1      35.549 -18.667 -21.353  0.00  0.00    -0.180 NA
ATOM     10  C   UNL     1      34.095 -14.673 -23.192  0.00  0.00    +0.002 C 
ATOM     11  C   UNL     1      34.869 -16.881 -22.612  0.00  0.00    +0.035 C 
ATOM     12  C   UNL     1      34.493 -15.953 -23.597  0.00  0.00    +0.003 C 
ATOM     13  C   UNL     1      34.835 -16.506 -21.273  0.00  0.00    +0.067 C 
ATOM     14  C   UNL     1      34.070 -14.323 -21.841  0.00  0.00    +0.001 C 
ATOM     15  C   UNL     1      34.441 -15.236 -20.849  0.00  0.00    +0.016 C 
ATOM     16  C   UNL     1      35.316 -18.220 -22.588  0.00  0.00    +0.119 C 
ATOM     17  H   UNL     1      35.324 -17.628 -19.598  0.00  0.00    +0.174 HD
ENDBRANCH   4  10
ENDBRANCH   1   3
BRANCH   1  18
ATOM     18  C   UNL     1      32.673  -9.227 -25.171  0.00  0.00    +0.184 C 
BRANCH  18  19
ATOM     19  C   UNL     1      32.704  -7.948 -24.326  0.00  0.00    -0.017 C 
BRANCH  19  20
ATOM     20  N   UNL     1      31.324  -7.595 -23.978  0.00  0.00    +0.384 N 
ATOM     21  H   UNL     1      30.973  -6.901 -24.638  0.00  0.00    -0.089 HD
ATOM     22  H   UNL     1      31.299  -7.210 -23.035  0.00  0.00    -0.089 HD
ATOM     23  H   UNL     1      30.739  -8.430 -24.020  0.00  0.00    -0.089 HD
ENDBRANCH  19  20
BRANCH  19  24
ATOM     24  C   UNL     1      33.530  -8.098 -23.026  0.00  0.00    +0.006 C 
BRANCH  24  26
ATOM     25  N   UNL     1      32.197  -7.753 -19.530  0.00  0.00    -0.234 NA
ATOM     26  C   UNL     1      32.725  -8.266 -21.801  0.00  0.00    -0.024 C 
ATOM     27  C   UNL     1      31.950  -9.245 -21.334  0.00  0.00    +0.065 C 
ATOM     28  C   UNL     1      31.412  -8.926 -19.968  0.00  0.00    +0.122 C 
ATOM     29  C   UNL     1      32.829  -7.406 -20.614  0.00  0.00    +0.072 C 
ATOM     30  C   UNL     1      31.712 -10.562 -21.867  0.00  0.00    -0.020 C 
ATOM     31  C   UNL     1      31.494 -10.111 -19.048  0.00  0.00    -0.004 C 
ATOM     32  C   UNL     1      31.477 -11.569 -21.005  0.00  0.00    -0.004 C 
ATOM     33  C   UNL     1      31.501 -11.355 -19.564  0.00  0.00    -0.003 C 
ENDBRANCH  24  26
ENDBRANCH  19  24
ENDBRANCH  18  19
ENDBRANCH   1  18
TORSDOF 7
ENDMDL
