MODEL 1
REMARK VINA RESULT:     -12.3      0.000      0.000
REMARK  Name = 3478
REMARK  7 active torsions:
REMARK  status: ('A' for Active; 'I' for Inactive)
REMARK    1  A    between atoms: C_1  and  S_7
REMARK    2  A    between atoms: C_2  and  C_22
REMARK    3  A    between atoms: S_7  and  N_12
REMARK    4  A    between atoms: N_11  and  C_16
REMARK    5  A    between atoms: C_22  and  C_23
REMARK    6  A    between atoms: C_23  and  N_25
REMARK    7  A    between atoms: C_26  and  C_30
REMARK                            x       y       z     vdW  Elec       q    Type
REMARK                         _______ _______ _______ _____ _____    ______ ____
ROOT
ATOM      1  C   UNL     1      33.987 -21.519 -19.471  0.00  0.00    +0.125 C 
ATOM      2  C   UNL     1      35.104 -19.456 -20.980  0.00  0.00    -0.020 C 
ATOM      3  C   UNL     1      33.164 -20.668 -20.208  0.00  0.00    +0.020 C 
ATOM      4  C   UNL     1      35.370 -21.338 -19.488  0.00  0.00    +0.020 C 
ATOM      5  C   UNL     1      33.721 -19.637 -20.962  0.00  0.00    -0.003 C 
ATOM      6  C   UNL     1      35.928 -20.305 -20.243  0.00  0.00    -0.003 C 
ENDROOT
BRANCH   1   7
ATOM      7  S   UNL     1      33.280 -22.826 -18.515  0.00  0.00    +0.077 S 
ATOM      8  O   UNL     1      33.414 -24.059 -19.267  0.00  0.00    -0.150 OA
ATOM      9  O   UNL     1      31.974 -22.368 -18.080  0.00  0.00    -0.150 OA
BRANCH   7  12
ATOM     10  O   UNL     1      33.145 -24.320 -15.795  0.00  0.00    -0.251 OA
ATOM     11  N   UNL     1      35.156 -23.448 -15.062  0.00  0.00    -0.289 N 
ATOM     12  N   UNL     1      34.340 -22.863 -17.175  0.00  0.00    -0.169 N 
ATOM     13  C   UNL     1      34.132 -23.612 -15.973  0.00  0.00    +0.319 C 
ATOM     14  H   UNL     1      35.907 -22.856 -15.300  0.00  0.00    +0.151 HD
ATOM     15  H   UNL     1      35.162 -22.323 -17.234  0.00  0.00    +0.178 HD
BRANCH  11  16
ATOM     16  C   UNL     1      35.177 -24.106 -13.775  0.00  0.00    +0.073 C 
ATOM     17  C   UNL     1      35.974 -23.290 -12.751  0.00  0.00    +0.020 C 
ATOM     18  C   UNL     1      35.723 -25.533 -13.894  0.00  0.00    +0.020 C 
ATOM     19  C   UNL     1      37.478 -23.323 -13.020  0.00  0.00    +0.002 C 
ATOM     20  C   UNL     1      37.228 -25.563 -14.162  0.00  0.00    +0.002 C 
ATOM     21  C   UNL     1      38.000 -24.754 -13.124  0.00  0.00    +0.000 C 
ENDBRANCH  11  16
ENDBRANCH   7  12
ENDBRANCH   1   7
BRANCH   2  22
ATOM     22  C   UNL     1      35.702 -18.353 -21.787  0.00  0.00    +0.048 C 
BRANCH  22  23
ATOM     23  C   UNL     1      35.700 -18.627 -23.296  0.00  0.00    +0.094 C 
BRANCH  23  25
ATOM     24  O   UNL     1      33.056 -18.395 -24.392  0.00  0.00    -0.269 OA
ATOM     25  N   UNL     1      35.177 -17.520 -24.052  0.00  0.00    -0.300 N 
ATOM     26  C   UNL     1      33.878 -17.496 -24.545  0.00  0.00    +0.261 C 
ATOM     27  H   UNL     1      35.764 -16.749 -24.227  0.00  0.00    +0.150 HD
BRANCH  26  30
ATOM     28  N   UNL     1      33.299 -16.470 -26.649  0.00  0.00    -0.262 NA
ATOM     29  N   UNL     1      33.017 -13.960 -25.428  0.00  0.00    -0.270 NA
ATOM     30  C   UNL     1      33.500 -16.292 -25.329  0.00  0.00    +0.132 C 
ATOM     31  C   UNL     1      33.361 -15.060 -24.728  0.00  0.00    +0.174 C 
ATOM     32  C   UNL     1      32.818 -14.137 -26.749  0.00  0.00    +0.057 C 
ATOM     33  C   UNL     1      32.956 -15.370 -27.349  0.00  0.00    +0.166 C 
ATOM     34  C   UNL     1      32.436 -12.943 -27.554  0.00  0.00    +0.049 C 
ENDBRANCH  26  30
ENDBRANCH  23  25
ENDBRANCH  22  23
ENDBRANCH   2  22
TORSDOF 7
ENDMDL
MODEL 2
REMARK VINA RESULT:     -11.9      3.073      3.958
REMARK  Name = 3478
REMARK  7 active torsions:
REMARK  status: ('A' for Active; 'I' for Inactive)
REMARK    1  A    between atoms: C_1  and  S_7
REMARK    2  A    between atoms: C_2  and  C_22
REMARK    3  A    between atoms: S_7  and  N_12
REMARK    4  A    between atoms: N_11  and  C_16
REMARK    5  A    between atoms: C_22  and  C_23
REMARK    6  A    between atoms: C_23  and  N_25
REMARK    7  A    between atoms: C_26  and  C_30
REMARK                            x       y       z     vdW  Elec       q    Type
REMARK                         _______ _______ _______ _____ _____    ______ ____
ROOT
ATOM      1  C   UNL     1      34.069 -21.574 -19.682  0.00  0.00    +0.125 C 
ATOM      2  C   UNL     1      34.545 -19.300 -21.225  0.00  0.00    -0.020 C 
ATOM      3  C   UNL     1      35.376 -21.139 -19.899  0.00  0.00    +0.020 C 
ATOM      4  C   UNL     1      32.999 -20.873 -20.237  0.00  0.00    +0.020 C 
ATOM      5  C   UNL     1      35.614 -20.002 -20.671  0.00  0.00    -0.003 C 
ATOM      6  C   UNL     1      33.237 -19.736 -21.010  0.00  0.00    -0.003 C 
ENDROOT
BRANCH   1   7
ATOM      7  S   UNL     1      33.768 -23.016 -18.704  0.00  0.00    +0.077 S 
ATOM      8  O   UNL     1      34.692 -23.003 -17.586  0.00  0.00    -0.150 OA
ATOM      9  O   UNL     1      33.732 -24.142 -19.616  0.00  0.00    -0.150 OA
BRANCH   7  12
ATOM     10  O   UNL     1      32.498 -23.201 -15.876  0.00  0.00    -0.251 OA
ATOM     11  N   UNL     1      30.418 -22.514 -16.615  0.00  0.00    -0.289 N 
ATOM     12  N   UNL     1      32.187 -22.701 -18.136  0.00  0.00    -0.169 N 
ATOM     13  C   UNL     1      31.751 -22.838 -16.780  0.00  0.00    +0.319 C 
ATOM     14  H   UNL     1      29.902 -22.233 -17.406  0.00  0.00    +0.151 HD
ATOM     15  H   UNL     1      31.521 -22.400 -18.796  0.00  0.00    +0.178 HD
BRANCH  11  16
ATOM     16  C   UNL     1      29.747 -22.569 -15.336  0.00  0.00    +0.073 C 
ATOM     17  C   UNL     1      30.318 -23.690 -14.461  0.00  0.00    +0.020 C 
ATOM     18  C   UNL     1      28.233 -22.722 -15.515  0.00  0.00    +0.020 C 
ATOM     19  C   UNL     1      29.922 -25.080 -14.958  0.00  0.00    +0.002 C 
ATOM     20  C   UNL     1      27.839 -24.113 -16.011  0.00  0.00    +0.002 C 
ATOM     21  C   UNL     1      28.410 -25.211 -15.118  0.00  0.00    +0.000 C 
ENDBRANCH  11  16
ENDBRANCH   7  12
ENDBRANCH   1   7
BRANCH   2  22
ATOM     22  C   UNL     1      34.798 -18.084 -22.051  0.00  0.00    +0.048 C 
BRANCH  22  23
ATOM     23  C   UNL     1      34.508 -18.286 -23.544  0.00  0.00    +0.094 C 
BRANCH  23  25
ATOM     24  O   UNL     1      34.220 -17.830 -26.364  0.00  0.00    -0.269 OA
ATOM     25  N   UNL     1      34.034 -17.084 -24.175  0.00  0.00    -0.300 N 
ATOM     26  C   UNL     1      33.928 -16.953 -25.555  0.00  0.00    +0.261 C 
ATOM     27  H   UNL     1      33.775 -16.322 -23.607  0.00  0.00    +0.150 HD
BRANCH  26  30
ATOM     28  N   UNL     1      33.255 -15.528 -27.381  0.00  0.00    -0.262 NA
ATOM     29  N   UNL     1      32.772 -13.392 -25.628  0.00  0.00    -0.270 NA
ATOM     30  C   UNL     1      33.447 -15.638 -26.052  0.00  0.00    +0.132 C 
ATOM     31  C   UNL     1      33.209 -14.589 -25.190  0.00  0.00    +0.174 C 
ATOM     32  C   UNL     1      32.581 -13.281 -26.958  0.00  0.00    +0.057 C 
ATOM     33  C   UNL     1      32.818 -14.330 -27.819  0.00  0.00    +0.166 C 
ATOM     34  C   UNL     1      32.097 -11.972 -27.477  0.00  0.00    +0.049 C 
ENDBRANCH  26  30
ENDBRANCH  23  25
ENDBRANCH  22  23
ENDBRANCH   2  22
TORSDOF 7
ENDMDL
MODEL 3
REMARK VINA RESULT:     -11.8      3.085     12.456
REMARK  Name = 3478
REMARK  7 active torsions:
REMARK  status: ('A' for Active; 'I' for Inactive)
REMARK    1  A    between atoms: C_1  and  S_7
REMARK    2  A    between atoms: C_2  and  C_22
REMARK    3  A    between atoms: S_7  and  N_12
REMARK    4  A    between atoms: N_11  and  C_16
REMARK    5  A    between atoms: C_22  and  C_23
REMARK    6  A    between atoms: C_23  and  N_25
REMARK    7  A    between atoms: C_26  and  C_30
REMARK                            x       y       z     vdW  Elec       q    Type
REMARK                         _______ _______ _______ _____ _____    ______ ____
ROOT
ATOM      1  C   UNL     1      34.019 -17.229 -24.171  0.00  0.00    +0.125 C 
ATOM      2  C   UNL     1      35.211 -18.506 -21.996  0.00  0.00    -0.020 C 
ATOM      3  C   UNL     1      34.601 -16.475 -23.152  0.00  0.00    +0.020 C 
ATOM      4  C   UNL     1      34.033 -18.622 -24.103  0.00  0.00    +0.020 C 
ATOM      5  C   UNL     1      35.197 -17.113 -22.064  0.00  0.00    -0.003 C 
ATOM      6  C   UNL     1      34.628 -19.261 -23.014  0.00  0.00    -0.003 C 
ENDROOT
BRANCH   1   7
ATOM      7  S   UNL     1      33.264 -16.420 -25.550  0.00  0.00    +0.077 S 
ATOM      8  O   UNL     1      31.888 -16.868 -25.637  0.00  0.00    -0.150 OA
ATOM      9  O   UNL     1      34.164 -16.583 -26.675  0.00  0.00    -0.150 OA
BRANCH   7  12
ATOM     10  O   UNL     1      32.948 -13.741 -27.089  0.00  0.00    -0.251 OA
ATOM     11  N   UNL     1      33.211 -12.458 -25.184  0.00  0.00    -0.289 N 
ATOM     12  N   UNL     1      33.299 -14.792 -25.032  0.00  0.00    -0.169 N 
ATOM     13  C   UNL     1      33.136 -13.650 -25.879  0.00  0.00    +0.319 C 
ATOM     14  H   UNL     1      33.366 -12.491 -24.211  0.00  0.00    +0.151 HD
ATOM     15  H   UNL     1      33.442 -14.626 -24.072  0.00  0.00    +0.178 HD
BRANCH  11  16
ATOM     16  C   UNL     1      33.072 -11.167 -25.818  0.00  0.00    +0.073 C 
ATOM     17  C   UNL     1      34.381 -10.740 -26.492  0.00  0.00    +0.020 C 
ATOM     18  C   UNL     1      32.593 -10.110 -24.817  0.00  0.00    +0.020 C 
ATOM     19  C   UNL     1      35.460 -10.355 -25.480  0.00  0.00    +0.002 C 
ATOM     20  C   UNL     1      33.674  -9.726 -23.808  0.00  0.00    +0.002 C 
ATOM     21  C   UNL     1      34.963  -9.294 -24.502  0.00  0.00    +0.000 C 
ENDBRANCH  11  16
ENDBRANCH   7  12
ENDBRANCH   1   7
BRANCH   2  22
ATOM     22  C   UNL     1      35.848 -19.189 -20.833  0.00  0.00    +0.048 C 
BRANCH  22  23
ATOM     23  C   UNL     1      35.254 -20.572 -20.535  0.00  0.00    +0.094 C 
BRANCH  23  25
ATOM     24  O   UNL     1      34.012 -22.711 -19.076  0.00  0.00    -0.269 OA
ATOM     25  N   UNL     1      35.636 -21.062 -19.238  0.00  0.00    -0.300 N 
ATOM     26  C   UNL     1      34.973 -22.108 -18.606  0.00  0.00    +0.261 C 
ATOM     27  H   UNL     1      36.399 -20.640 -18.779  0.00  0.00    +0.150 HD
BRANCH  26  30
ATOM     28  N   UNL     1      34.665 -23.250 -16.504  0.00  0.00    -0.262 NA
ATOM     29  N   UNL     1      37.170 -22.383 -15.585  0.00  0.00    -0.270 NA
ATOM     30  C   UNL     1      35.474 -22.478 -17.257  0.00  0.00    +0.132 C 
ATOM     31  C   UNL     1      36.704 -22.053 -16.807  0.00  0.00    +0.174 C 
ATOM     32  C   UNL     1      36.361 -23.154 -14.831  0.00  0.00    +0.057 C 
ATOM     33  C   UNL     1      35.131 -23.580 -15.283  0.00  0.00    +0.166 C 
ATOM     34  C   UNL     1      36.844 -23.539 -13.477  0.00  0.00    +0.049 C 
ENDBRANCH  26  30
ENDBRANCH  23  25
ENDBRANCH  22  23
ENDBRANCH   2  22
TORSDOF 7
ENDMDL
MODEL 4
REMARK VINA RESULT:     -11.5      3.038     12.206
REMARK  Name = 3478
REMARK  7 active torsions:
REMARK  status: ('A' for Active; 'I' for Inactive)
REMARK    1  A    between atoms: C_1  and  S_7
REMARK    2  A    between atoms: C_2  and  C_22
REMARK    3  A    between atoms: S_7  and  N_12
REMARK    4  A    between atoms: N_11  and  C_16
REMARK    5  A    between atoms: C_22  and  C_23
REMARK    6  A    between atoms: C_23  and  N_25
REMARK    7  A    between atoms: C_26  and  C_30
REMARK                            x       y       z     vdW  Elec       q    Type
REMARK                         _______ _______ _______ _____ _____    ______ ____
ROOT
ATOM      1  C   UNL     1      34.047 -17.446 -23.928  0.00  0.00    +0.125 C 
ATOM      2  C   UNL     1      34.970 -18.773 -21.655  0.00  0.00    -0.020 C 
ATOM      3  C   UNL     1      34.764 -16.749 -22.955  0.00  0.00    +0.020 C 
ATOM      4  C   UNL     1      33.792 -18.807 -23.765  0.00  0.00    +0.020 C 
ATOM      5  C   UNL     1      35.225 -17.412 -21.819  0.00  0.00    -0.003 C 
ATOM      6  C   UNL     1      34.253 -19.471 -22.628  0.00  0.00    -0.003 C 
ENDROOT
BRANCH   1   7
ATOM      7  S   UNL     1      33.463 -16.604 -25.369  0.00  0.00    +0.077 S 
ATOM      8  O   UNL     1      32.066 -16.945 -25.555  0.00  0.00    -0.150 OA
ATOM      9  O   UNL     1      34.428 -16.856 -26.422  0.00  0.00    -0.150 OA
BRANCH   7  12
ATOM     10  O   UNL     1      32.689 -13.937 -26.759  0.00  0.00    -0.251 OA
ATOM     11  N   UNL     1      33.402 -12.645 -24.980  0.00  0.00    -0.289 N 
ATOM     12  N   UNL     1      33.587 -14.975 -24.869  0.00  0.00    -0.169 N 
ATOM     13  C   UNL     1      33.182 -13.838 -25.639  0.00  0.00    +0.319 C 
ATOM     14  H   UNL     1      33.804 -12.672 -24.081  0.00  0.00    +0.151 HD
ATOM     15  H   UNL     1      33.969 -14.803 -23.978  0.00  0.00    +0.178 HD
BRANCH  11  16
ATOM     16  C   UNL     1      33.070 -11.358 -25.550  0.00  0.00    +0.073 C 
ATOM     17  C   UNL     1      34.201 -10.844 -26.447  0.00  0.00    +0.020 C 
ATOM     18  C   UNL     1      32.725 -10.343 -24.455  0.00  0.00    +0.020 C 
ATOM     19  C   UNL     1      35.427 -10.402 -25.647  0.00  0.00    +0.002 C 
ATOM     20  C   UNL     1      33.953  -9.902 -23.658  0.00  0.00    +0.002 C 
ATOM     21  C   UNL     1      35.060  -9.384 -24.571  0.00  0.00    +0.000 C 
ENDBRANCH  11  16
ENDBRANCH   7  12
ENDBRANCH   1   7
BRANCH   2  22
ATOM     22  C   UNL     1      35.463 -19.484 -20.440  0.00  0.00    +0.048 C 
BRANCH  22  23
ATOM     23  C   UNL     1      35.348 -21.011 -20.535  0.00  0.00    +0.094 C 
BRANCH  23  25
ATOM     24  O   UNL     1      32.809 -22.213 -19.944  0.00  0.00    -0.269 OA
ATOM     25  N   UNL     1      34.949 -21.607 -19.288  0.00  0.00    -0.300 N 
ATOM     26  C   UNL     1      33.692 -22.167 -19.093  0.00  0.00    +0.261 C 
ATOM     27  H   UNL     1      35.593 -21.618 -18.542  0.00  0.00    +0.150 HD
BRANCH  26  30
ATOM     28  N   UNL     1      34.503 -23.002 -16.980  0.00  0.00    -0.262 NA
ATOM     29  N   UNL     1      31.886 -23.424 -16.063  0.00  0.00    -0.270 NA
ATOM     30  C   UNL     1      33.426 -22.718 -17.739  0.00  0.00    +0.132 C 
ATOM     31  C   UNL     1      32.141 -22.925 -17.289  0.00  0.00    +0.174 C 
ATOM     32  C   UNL     1      32.963 -23.709 -15.303  0.00  0.00    +0.057 C 
ATOM     33  C   UNL     1      34.249 -23.501 -15.754  0.00  0.00    +0.166 C 
ATOM     34  C   UNL     1      32.719 -24.261 -13.942  0.00  0.00    +0.049 C 
ENDBRANCH  26  30
ENDBRANCH  23  25
ENDBRANCH  22  23
ENDBRANCH   2  22
TORSDOF 7
ENDMDL
MODEL 5
REMARK VINA RESULT:     -11.4      3.707     12.508
REMARK  Name = 3478
REMARK  7 active torsions:
REMARK  status: ('A' for Active; 'I' for Inactive)
REMARK    1  A    between atoms: C_1  and  S_7
REMARK    2  A    between atoms: C_2  and  C_22
REMARK    3  A    between atoms: S_7  and  N_12
REMARK    4  A    between atoms: N_11  and  C_16
REMARK    5  A    between atoms: C_22  and  C_23
REMARK    6  A    between atoms: C_23  and  N_25
REMARK    7  A    between atoms: C_26  and  C_30
REMARK                            x       y       z     vdW  Elec       q    Type
REMARK                         _______ _______ _______ _____ _____    ______ ____
ROOT
ATOM      1  C   UNL     1      33.091 -16.481 -25.872  0.00  0.00    +0.125 C 
ATOM      2  C   UNL     1      34.013 -18.373 -24.041  0.00  0.00    -0.020 C 
ATOM      3  C   UNL     1      33.773 -16.070 -24.726  0.00  0.00    +0.020 C 
ATOM      4  C   UNL     1      32.870 -17.838 -26.102  0.00  0.00    +0.020 C 
ATOM      5  C   UNL     1      34.233 -17.015 -23.811  0.00  0.00    -0.003 C 
ATOM      6  C   UNL     1      33.331 -18.785 -25.185  0.00  0.00    -0.003 C 
ENDROOT
BRANCH   1   7
ATOM      7  S   UNL     1      32.507 -15.282 -27.032  0.00  0.00    +0.077 S 
ATOM      8  O   UNL     1      31.089 -15.507 -27.238  0.00  0.00    -0.150 OA
ATOM      9  O   UNL     1      33.426 -15.303 -28.154  0.00  0.00    -0.150 OA
BRANCH   7  12
ATOM     10  O   UNL     1      32.736 -12.315 -27.921  0.00  0.00    -0.251 OA
ATOM     11  N   UNL     1      32.999 -11.545 -25.757  0.00  0.00    -0.289 N 
ATOM     12  N   UNL     1      32.729 -13.837 -26.149  0.00  0.00    -0.169 N 
ATOM     13  C   UNL     1      32.818 -12.525 -26.714  0.00  0.00    +0.319 C 
ATOM     14  H   UNL     1      33.053 -11.817 -24.812  0.00  0.00    +0.151 HD
ATOM     15  H   UNL     1      32.803 -13.912 -25.170  0.00  0.00    +0.178 HD
BRANCH  11  16
ATOM     16  C   UNL     1      33.113 -10.141 -26.080  0.00  0.00    +0.073 C 
ATOM     17  C   UNL     1      34.536  -9.791 -26.529  0.00  0.00    +0.020 C 
ATOM     18  C   UNL     1      32.671  -9.267 -24.902  0.00  0.00    +0.020 C 
ATOM     19  C   UNL     1      35.535  -9.814 -25.372  0.00  0.00    +0.002 C 
ATOM     20  C   UNL     1      33.673  -9.291 -23.747  0.00  0.00    +0.002 C 
ATOM     21  C   UNL     1      35.079  -8.929 -24.216  0.00  0.00    +0.000 C 
ENDBRANCH  11  16
ENDBRANCH   7  12
ENDBRANCH   1   7
BRANCH   2  22
ATOM     22  C   UNL     1      34.505 -19.385 -23.062  0.00  0.00    +0.048 C 
BRANCH  22  23
ATOM     23  C   UNL     1      34.802 -18.802 -21.675  0.00  0.00    +0.094 C 
BRANCH  23  25
ATOM     24  O   UNL     1      32.451 -20.282 -20.952  0.00  0.00    -0.269 OA
ATOM     25  N   UNL     1      34.695 -19.788 -20.633  0.00  0.00    -0.300 N 
ATOM     26  C   UNL     1      33.509 -20.457 -20.353  0.00  0.00    +0.261 C 
ATOM     27  H   UNL     1      35.494 -19.997 -20.096  0.00  0.00    +0.150 HD
BRANCH  26  30
ATOM     28  N   UNL     1      32.371 -21.867 -18.762  0.00  0.00    -0.262 NA
ATOM     29  N   UNL     1      34.809 -22.730 -17.676  0.00  0.00    -0.270 NA
ATOM     30  C   UNL     1      33.556 -21.426 -19.229  0.00  0.00    +0.132 C 
ATOM     31  C   UNL     1      34.754 -21.850 -18.696  0.00  0.00    +0.174 C 
ATOM     32  C   UNL     1      33.625 -23.171 -17.208  0.00  0.00    +0.057 C 
ATOM     33  C   UNL     1      32.427 -22.747 -17.742  0.00  0.00    +0.166 C 
ATOM     34  C   UNL     1      33.648 -24.144 -16.083  0.00  0.00    +0.049 C 
ENDBRANCH  26  30
ENDBRANCH  23  25
ENDBRANCH  22  23
ENDBRANCH   2  22
TORSDOF 7
ENDMDL
MODEL 6
REMARK VINA RESULT:     -11.2      3.783      4.820
REMARK  Name = 3478
REMARK  7 active torsions:
REMARK  status: ('A' for Active; 'I' for Inactive)
REMARK    1  A    between atoms: C_1  and  S_7
REMARK    2  A    between atoms: C_2  and  C_22
REMARK    3  A    between atoms: S_7  and  N_12
REMARK    4  A    between atoms: N_11  and  C_16
REMARK    5  A    between atoms: C_22  and  C_23
REMARK    6  A    between atoms: C_23  and  N_25
REMARK    7  A    between atoms: C_26  and  C_30
REMARK                            x       y       z     vdW  Elec       q    Type
REMARK                         _______ _______ _______ _____ _____    ______ ____
ROOT
ATOM      1  C   UNL     1      33.991 -21.504 -19.785  0.00  0.00    +0.125 C 
ATOM      2  C   UNL     1      34.351 -19.223 -21.350  0.00  0.00    -0.020 C 
ATOM      3  C   UNL     1      32.884 -20.820 -20.288  0.00  0.00    +0.020 C 
ATOM      4  C   UNL     1      35.278 -21.047 -20.065  0.00  0.00    +0.020 C 
ATOM      5  C   UNL     1      33.064 -19.680 -21.070  0.00  0.00    -0.003 C 
ATOM      6  C   UNL     1      35.459 -19.906 -20.848  0.00  0.00    -0.003 C 
ENDROOT
BRANCH   1   7
ATOM      7  S   UNL     1      33.763 -22.949 -18.794  0.00  0.00    +0.077 S 
ATOM      8  O   UNL     1      34.707 -22.896 -17.694  0.00  0.00    -0.150 OA
ATOM      9  O   UNL     1      33.752 -24.082 -19.700  0.00  0.00    -0.150 OA
BRANCH   7  12
ATOM     10  O   UNL     1      32.565 -23.123 -15.933  0.00  0.00    -0.251 OA
ATOM     11  N   UNL     1      30.441 -22.545 -16.640  0.00  0.00    -0.289 N 
ATOM     12  N   UNL     1      32.183 -22.690 -18.196  0.00  0.00    -0.169 N 
ATOM     13  C   UNL     1      31.783 -22.814 -16.828  0.00  0.00    +0.319 C 
ATOM     14  H   UNL     1      29.896 -22.306 -17.425  0.00  0.00    +0.151 HD
ATOM     15  H   UNL     1      31.490 -22.435 -18.848  0.00  0.00    +0.178 HD
BRANCH  11  16
ATOM     16  C   UNL     1      29.802 -22.600 -15.345  0.00  0.00    +0.073 C 
ATOM     17  C   UNL     1      30.368 -23.744 -14.497  0.00  0.00    +0.020 C 
ATOM     18  C   UNL     1      28.280 -22.714 -15.486  0.00  0.00    +0.020 C 
ATOM     19  C   UNL     1      29.926 -25.118 -14.999  0.00  0.00    +0.002 C 
ATOM     20  C   UNL     1      27.841 -24.089 -15.987  0.00  0.00    +0.002 C 
ATOM     21  C   UNL     1      28.408 -25.211 -15.121  0.00  0.00    +0.000 C 
ENDBRANCH  11  16
ENDBRANCH   7  12
ENDBRANCH   1   7
BRANCH   2  22
ATOM     22  C   UNL     1      34.544 -18.004 -22.187  0.00  0.00    +0.048 C 
BRANCH  22  23
ATOM     23  C   UNL     1      35.175 -16.832 -21.425  0.00  0.00    +0.094 C 
BRANCH  23  25
ATOM     24  O   UNL     1      34.771 -14.749 -23.359  0.00  0.00    -0.269 OA
ATOM     25  N   UNL     1      34.280 -15.712 -21.307  0.00  0.00    -0.300 N 
ATOM     26  C   UNL     1      34.150 -14.748 -22.300  0.00  0.00    +0.261 C 
ATOM     27  H   UNL     1      33.738 -15.624 -20.489  0.00  0.00    +0.150 HD
BRANCH  26  30
ATOM     28  N   UNL     1      32.678 -13.599 -20.773  0.00  0.00    -0.262 NA
ATOM     29  N   UNL     1      32.026 -11.693 -22.726  0.00  0.00    -0.270 NA
ATOM     30  C   UNL     1      33.203 -13.639 -22.014  0.00  0.00    +0.132 C 
ATOM     31  C   UNL     1      32.884 -12.703 -22.973  0.00  0.00    +0.174 C 
ATOM     32  C   UNL     1      31.500 -11.652 -21.486  0.00  0.00    +0.057 C 
ATOM     33  C   UNL     1      31.820 -12.589 -20.526  0.00  0.00    +0.166 C 
ATOM     34  C   UNL     1      30.549 -10.549 -21.177  0.00  0.00    +0.049 C 
ENDBRANCH  26  30
ENDBRANCH  23  25
ENDBRANCH  22  23
ENDBRANCH   2  22
TORSDOF 7
ENDMDL
MODEL 7
REMARK VINA RESULT:     -11.0      2.379     11.884
REMARK  Name = 3478
REMARK  7 active torsions:
REMARK  status: ('A' for Active; 'I' for Inactive)
REMARK    1  A    between atoms: C_1  and  S_7
REMARK    2  A    between atoms: C_2  and  C_22
REMARK    3  A    between atoms: S_7  and  N_12
REMARK    4  A    between atoms: N_11  and  C_16
REMARK    5  A    between atoms: C_22  and  C_23
REMARK    6  A    between atoms: C_23  and  N_25
REMARK    7  A    between atoms: C_26  and  C_30
REMARK                            x       y       z     vdW  Elec       q    Type
REMARK                         _______ _______ _______ _____ _____    ______ ____
ROOT
ATOM      1  C   UNL     1      34.616 -20.017 -20.323  0.00  0.00    +0.125 C 
ATOM      2  C   UNL     1      33.459 -22.146 -18.942  0.00  0.00    -0.020 C 
ATOM      3  C   UNL     1      35.423 -20.932 -19.648  0.00  0.00    +0.020 C 
ATOM      4  C   UNL     1      33.230 -20.165 -20.308  0.00  0.00    +0.020 C 
ATOM      5  C   UNL     1      34.845 -21.996 -18.957  0.00  0.00    -0.003 C 
ATOM      6  C   UNL     1      32.651 -21.230 -19.616  0.00  0.00    -0.003 C 
ENDROOT
BRANCH   1   7
ATOM      7  S   UNL     1      35.349 -18.667 -21.199  0.00  0.00    +0.077 S 
ATOM      8  O   UNL     1      36.583 -19.136 -21.798  0.00  0.00    -0.150 OA
ATOM      9  O   UNL     1      35.354 -17.534 -20.295  0.00  0.00    -0.150 OA
BRANCH   7  12
ATOM     10  O   UNL     1      35.529 -18.798 -24.297  0.00  0.00    -0.251 OA
ATOM     11  N   UNL     1      33.306 -18.235 -24.586  0.00  0.00    -0.289 N 
ATOM     12  N   UNL     1      34.188 -18.404 -22.425  0.00  0.00    -0.169 N 
ATOM     13  C   UNL     1      34.432 -18.503 -23.832  0.00  0.00    +0.319 C 
ATOM     14  H   UNL     1      32.470 -18.007 -24.117  0.00  0.00    +0.151 HD
ATOM     15  H   UNL     1      33.276 -18.165 -22.141  0.00  0.00    +0.178 HD
BRANCH  11  16
ATOM     16  C   UNL     1      33.298 -18.276 -26.031  0.00  0.00    +0.073 C 
ATOM     17  C   UNL     1      33.944 -17.018 -26.622  0.00  0.00    +0.020 C 
ATOM     18  C   UNL     1      31.877 -18.475 -26.569  0.00  0.00    +0.020 C 
ATOM     19  C   UNL     1      33.070 -15.776 -26.449  0.00  0.00    +0.002 C 
ATOM     20  C   UNL     1      31.006 -17.231 -26.396  0.00  0.00    +0.002 C 
ATOM     21  C   UNL     1      31.664 -15.995 -27.002  0.00  0.00    +0.000 C 
ENDBRANCH  11  16
ENDBRANCH   7  12
ENDBRANCH   1   7
BRANCH   2  22
ATOM     22  C   UNL     1      32.840 -23.284 -18.203  0.00  0.00    +0.048 C 
BRANCH  22  23
ATOM     23  C   UNL     1      33.116 -23.257 -16.694  0.00  0.00    +0.094 C 
BRANCH  23  25
ATOM     24  O   UNL     1      33.896 -24.625 -14.293  0.00  0.00    -0.269 OA
ATOM     25  N   UNL     1      34.431 -23.743 -16.371  0.00  0.00    -0.300 N 
ATOM     26  C   UNL     1      34.717 -24.397 -15.178  0.00  0.00    +0.261 C 
ATOM     27  H   UNL     1      35.158 -23.606 -17.021  0.00  0.00    +0.150 HD
BRANCH  26  30
ATOM     28  N   UNL     1      36.346 -26.121 -14.745  0.00  0.00    -0.262 NA
ATOM     29  N   UNL     1      38.447 -24.267 -14.873  0.00  0.00    -0.270 NA
ATOM     30  C   UNL     1      36.130 -24.813 -14.984  0.00  0.00    +0.132 C 
ATOM     31  C   UNL     1      37.161 -23.902 -15.048  0.00  0.00    +0.174 C 
ATOM     32  C   UNL     1      38.664 -25.575 -14.634  0.00  0.00    +0.057 C 
ATOM     33  C   UNL     1      37.632 -26.486 -14.571  0.00  0.00    +0.166 C 
ATOM     34  C   UNL     1      40.073 -26.015 -14.437  0.00  0.00    +0.049 C 
ENDBRANCH  26  30
ENDBRANCH  23  25
ENDBRANCH  22  23
ENDBRANCH   2  22
TORSDOF 7
ENDMDL
MODEL 8
REMARK VINA RESULT:     -10.9      5.083     12.894
REMARK  Name = 3478
REMARK  7 active torsions:
REMARK  status: ('A' for Active; 'I' for Inactive)
REMARK    1  A    between atoms: C_1  and  S_7
REMARK    2  A    between atoms: C_2  and  C_22
REMARK    3  A    between atoms: S_7  and  N_12
REMARK    4  A    between atoms: N_11  and  C_16
REMARK    5  A    between atoms: C_22  and  C_23
REMARK    6  A    between atoms: C_23  and  N_25
REMARK    7  A    between atoms: C_26  and  C_30
REMARK                            x       y       z     vdW  Elec       q    Type
REMARK                         _______ _______ _______ _____ _____    ______ ____
ROOT
ATOM      1  C   UNL     1      33.111 -13.841 -26.245  0.00  0.00    +0.125 C 
ATOM      2  C   UNL     1      33.335 -16.428 -25.227  0.00  0.00    -0.020 C 
ATOM      3  C   UNL     1      33.010 -14.939 -27.100  0.00  0.00    +0.020 C 
ATOM      4  C   UNL     1      33.324 -14.037 -24.881  0.00  0.00    +0.020 C 
ATOM      5  C   UNL     1      33.123 -16.232 -26.592  0.00  0.00    -0.003 C 
ATOM      6  C   UNL     1      33.437 -15.331 -24.372  0.00  0.00    -0.003 C 
ENDROOT
BRANCH   1   7
ATOM      7  S   UNL     1      32.969 -12.201 -26.891  0.00  0.00    +0.077 S 
ATOM      8  O   UNL     1      31.666 -12.073 -27.513  0.00  0.00    -0.150 OA
ATOM      9  O   UNL     1      34.177 -11.944 -27.651  0.00  0.00    -0.150 OA
BRANCH   7  12
ATOM     10  O   UNL     1      32.862  -9.140 -26.378  0.00  0.00    -0.251 OA
ATOM     11  N   UNL     1      32.993  -9.382 -24.083  0.00  0.00    -0.289 N 
ATOM     12  N   UNL     1      33.003 -11.280 -25.452  0.00  0.00    -0.169 N 
ATOM     13  C   UNL     1      32.946  -9.852 -25.381  0.00  0.00    +0.319 C 
ATOM     14  H   UNL     1      33.061 -10.036 -23.349  0.00  0.00    +0.151 HD
ATOM     15  H   UNL     1      33.067 -11.772 -24.601  0.00  0.00    +0.178 HD
BRANCH  11  16
ATOM     16  C   UNL     1      32.945  -7.976 -23.752  0.00  0.00    +0.073 C 
ATOM     17  C   UNL     1      33.513  -7.719 -22.352  0.00  0.00    +0.020 C 
ATOM     18  C   UNL     1      31.521  -7.427 -23.883  0.00  0.00    +0.020 C 
ATOM     19  C   UNL     1      32.585  -8.219 -21.245  0.00  0.00    +0.002 C 
ATOM     20  C   UNL     1      30.596  -7.928 -22.774  0.00  0.00    +0.002 C 
ATOM     21  C   UNL     1      31.176  -7.650 -21.390  0.00  0.00    +0.000 C 
ENDBRANCH  11  16
ENDBRANCH   7  12
ENDBRANCH   1   7
BRANCH   2  22
ATOM     22  C   UNL     1      33.455 -17.812 -24.682  0.00  0.00    +0.048 C 
BRANCH  22  23
ATOM     23  C   UNL     1      34.502 -17.942 -23.568  0.00  0.00    +0.094 C 
BRANCH  23  25
ATOM     24  O   UNL     1      35.538 -18.211 -20.904  0.00  0.00    -0.269 OA
ATOM     25  N   UNL     1      34.156 -18.958 -22.611  0.00  0.00    -0.300 N 
ATOM     26  C   UNL     1      34.712 -19.010 -21.338  0.00  0.00    +0.261 C 
ATOM     27  H   UNL     1      33.500 -19.646 -22.868  0.00  0.00    +0.150 HD
BRANCH  26  30
ATOM     28  N   UNL     1      35.231 -20.775 -19.778  0.00  0.00    -0.262 NA
ATOM     29  N   UNL     1      32.533 -21.527 -19.624  0.00  0.00    -0.270 NA
ATOM     30  C   UNL     1      34.271 -20.138 -20.477  0.00  0.00    +0.132 C 
ATOM     31  C   UNL     1      32.946 -20.506 -20.402  0.00  0.00    +0.174 C 
ATOM     32  C   UNL     1      33.492 -22.166 -18.926  0.00  0.00    +0.057 C 
ATOM     33  C   UNL     1      34.818 -21.796 -19.001  0.00  0.00    +0.166 C 
ATOM     34  C   UNL     1      33.072 -23.298 -18.055  0.00  0.00    +0.049 C 
ENDBRANCH  26  30
ENDBRANCH  23  25
ENDBRANCH  22  23
ENDBRANCH   2  22
TORSDOF 7
ENDMDL
MODEL 9
REMARK VINA RESULT:     -10.9      1.497      1.910
REMARK  Name = 3478
REMARK  7 active torsions:
REMARK  status: ('A' for Active; 'I' for Inactive)
REMARK    1  A    between atoms: C_1  and  S_7
REMARK    2  A    between atoms: C_2  and  C_22
REMARK    3  A    between atoms: S_7  and  N_12
REMARK    4  A    between atoms: N_11  and  C_16
REMARK    5  A    between atoms: C_22  and  C_23
REMARK    6  A    between atoms: C_23  and  N_25
REMARK    7  A    between atoms: C_26  and  C_30
REMARK                            x       y       z     vdW  Elec       q    Type
REMARK                         _______ _______ _______ _____ _____    ______ ____
ROOT
ATOM      1  C   UNL     1      34.068 -22.083 -18.572  0.00  0.00    +0.125 C 
ATOM      2  C   UNL     1      35.478 -20.384 -20.275  0.00  0.00    -0.020 C 
ATOM      3  C   UNL     1      35.444 -21.922 -18.414  0.00  0.00    +0.020 C 
ATOM      4  C   UNL     1      33.396 -21.395 -19.581  0.00  0.00    +0.020 C 
ATOM      5  C   UNL     1      36.150 -21.073 -19.266  0.00  0.00    -0.003 C 
ATOM      6  C   UNL     1      34.102 -20.545 -20.434  0.00  0.00    -0.003 C 
ENDROOT
BRANCH   1   7
ATOM      7  S   UNL     1      33.173 -23.160 -17.492  0.00  0.00    +0.077 S 
ATOM      8  O   UNL     1      33.338 -24.518 -17.972  0.00  0.00    -0.150 OA
ATOM      9  O   UNL     1      31.849 -22.590 -17.335  0.00  0.00    -0.150 OA
BRANCH   7  12
ATOM     10  O   UNL     1      33.679 -25.068 -15.094  0.00  0.00    -0.251 OA
ATOM     11  N   UNL     1      34.950 -23.514 -13.949  0.00  0.00    -0.289 N 
ATOM     12  N   UNL     1      34.047 -22.963 -16.037  0.00  0.00    -0.169 N 
ATOM     13  C   UNL     1      34.187 -23.954 -15.013  0.00  0.00    +0.319 C 
ATOM     14  H   UNL     1      35.314 -22.599 -13.979  0.00  0.00    +0.151 HD
ATOM     15  H   UNL     1      34.492 -22.097 -15.890  0.00  0.00    +0.178 HD
BRANCH  11  16
ATOM     16  C   UNL     1      35.238 -24.335 -12.795  0.00  0.00    +0.073 C 
ATOM     17  C   UNL     1      35.821 -23.496 -11.652  0.00  0.00    +0.020 C 
ATOM     18  C   UNL     1      36.168 -25.496 -13.163  0.00  0.00    +0.020 C 
ATOM     19  C   UNL     1      37.251 -23.037 -11.937  0.00  0.00    +0.002 C 
ATOM     20  C   UNL     1      37.597 -25.033 -13.445  0.00  0.00    +0.002 C 
ATOM     21  C   UNL     1      38.160 -24.210 -12.289  0.00  0.00    +0.000 C 
ENDBRANCH  11  16
ENDBRANCH   7  12
ENDBRANCH   1   7
BRANCH   2  22
ATOM     22  C   UNL     1      36.232 -19.475 -21.187  0.00  0.00    +0.048 C 
BRANCH  22  23
ATOM     23  C   UNL     1      35.615 -18.075 -21.303  0.00  0.00    +0.094 C 
BRANCH  23  25
ATOM     24  O   UNL     1      34.715 -15.592 -22.429  0.00  0.00    -0.269 OA
ATOM     25  N   UNL     1      34.876 -17.904 -22.525  0.00  0.00    -0.300 N 
ATOM     26  C   UNL     1      34.480 -16.657 -22.994  0.00  0.00    +0.261 C 
ATOM     27  H   UNL     1      34.640 -18.704 -23.050  0.00  0.00    +0.150 HD
BRANCH  26  30
ATOM     28  N   UNL     1      33.149 -17.824 -24.632  0.00  0.00    -0.262 NA
ATOM     29  N   UNL     1      32.844 -15.486 -26.152  0.00  0.00    -0.270 NA
ATOM     30  C   UNL     1      33.700 -16.652 -24.258  0.00  0.00    +0.132 C 
ATOM     31  C   UNL     1      33.550 -15.504 -25.004  0.00  0.00    +0.174 C 
ATOM     32  C   UNL     1      32.293 -16.658 -26.528  0.00  0.00    +0.057 C 
ATOM     33  C   UNL     1      32.443 -17.807 -25.781  0.00  0.00    +0.166 C 
ATOM     34  C   UNL     1      31.505 -16.676 -27.791  0.00  0.00    +0.049 C 
ENDBRANCH  26  30
ENDBRANCH  23  25
ENDBRANCH  22  23
ENDBRANCH   2  22
TORSDOF 7
ENDMDL
