MODEL 1
REMARK VINA RESULT:     -12.6      0.000      0.000
REMARK  Name = 9826451
REMARK  9 active torsions:
REMARK  status: ('A' for Active; 'I' for Inactive)
REMARK    1  A    between atoms: C_1  and  N_2
REMARK    2  A    between atoms: C_1  and  C_19
REMARK    3  A    between atoms: C_8  and  O_10
REMARK    4  A    between atoms: O_10  and  C_11
REMARK    5  A    between atoms: C_14  and  O_17
REMARK    6  A    between atoms: C_19  and  O_20
REMARK    7  A    between atoms: O_20  and  C_24
REMARK    8  A    between atoms: C_21  and  C_27
REMARK    9  A    between atoms: C_27  and  C_32
REMARK                            x       y       z     vdW  Elec       q    Type
REMARK                         _______ _______ _______ _____ _____    ______ ____
ROOT
ATOM      1  C   UNL     1      35.786 -21.967 -17.698  0.00  0.00    +0.139 C 
ENDROOT
BRANCH   1   2
ATOM      2  N   UNL     1      34.606 -22.628 -17.196  0.00  0.00    -0.291 N 
ATOM      3  C   UNL     1      33.455 -22.778 -18.087  0.00  0.00    +0.113 C 
ATOM      4  N   UNL     1      35.618 -22.961 -15.080  0.00  0.00    -0.233 NA
ATOM      5  N   UNL     1      34.385 -24.064 -13.329  0.00  0.00    -0.214 NA
ATOM      6  C   UNL     1      34.543 -23.111 -15.882  0.00  0.00    +0.115 C 
ATOM      7  C   UNL     1      33.369 -23.718 -15.484  0.00  0.00    +0.146 C 
ATOM      8  C   UNL     1      33.347 -24.180 -14.183  0.00  0.00    +0.210 C 
ATOM      9  C   UNL     1      35.472 -23.453 -13.835  0.00  0.00    +0.254 C 
BRANCH   8  10
ATOM     10  O   UNL     1      32.218 -24.796 -13.711  0.00  0.00    -0.440 OA
BRANCH  10  11
ATOM     11  C   UNL     1      31.011 -24.414 -14.262  0.00  0.00    +0.147 C 
ATOM     12  C   UNL     1      30.087 -25.382 -14.658  0.00  0.00    +0.041 C 
ATOM     13  C   UNL     1      30.714 -23.060 -14.424  0.00  0.00    +0.041 C 
ATOM     14  C   UNL     1      28.572 -23.643 -15.375  0.00  0.00    +0.139 C 
ATOM     15  C   UNL     1      28.868 -24.996 -15.214  0.00  0.00    +0.040 C 
ATOM     16  C   UNL     1      29.495 -22.675 -14.979  0.00  0.00    +0.040 C 
BRANCH  14  17
ATOM     17  O   UNL     1      27.381 -23.266 -15.917  0.00  0.00    -0.471 OA
ATOM     18  C   UNL     1      27.407 -22.754 -17.249  0.00  0.00    +0.252 C 
ENDBRANCH  14  17
ENDBRANCH  10  11
ENDBRANCH   8  10
ENDBRANCH   1   2
BRANCH   1  19
ATOM     19  C   UNL     1      35.647 -21.716 -19.190  0.00  0.00    +0.227 C 
BRANCH  19  20
ATOM     20  O   UNL     1      36.002 -20.365 -19.479  0.00  0.00    -0.474 OA
BRANCH  20  24
ATOM     21  C   UNL     1      34.436 -18.699 -22.943  0.00  0.00    -0.021 C 
ATOM     22  C   UNL     1      35.798 -18.584 -22.669  0.00  0.00    -0.001 C 
ATOM     23  C   UNL     1      33.599 -19.373 -22.053  0.00  0.00    -0.001 C 
ATOM     24  C   UNL     1      35.489 -19.818 -20.615  0.00  0.00    +0.139 C 
ATOM     25  C   UNL     1      36.325 -19.144 -21.505  0.00  0.00    +0.037 C 
ATOM     26  C   UNL     1      34.126 -19.932 -20.889  0.00  0.00    +0.037 C 
BRANCH  21  27
ATOM     27  C   UNL     1      33.868 -18.094 -24.201  0.00  0.00    +0.047 C 
BRANCH  27  32
ATOM     28  S   UNL     1      34.269 -15.618 -23.062  0.00  0.00    -0.048 S 
ATOM     29  O   UNL     1      33.641 -16.538 -26.757  0.00  0.00    -0.274 OA
ATOM     30  O   UNL     1      33.027 -13.341 -23.483  0.00  0.00    -0.263 OA
ATOM     31  N   UNL     1      33.249 -14.817 -25.262  0.00  0.00    -0.246 N 
ATOM     32  C   UNL     1      34.462 -16.727 -24.492  0.00  0.00    +0.137 C 
ATOM     33  C   UNL     1      33.749 -16.047 -25.639  0.00  0.00    +0.239 C 
ATOM     34  C   UNL     1      33.410 -14.393 -23.970  0.00  0.00    +0.279 C 
ATOM     35  H   UNL     1      32.781 -14.251 -25.917  0.00  0.00    +0.158 HD
ENDBRANCH  27  32
ENDBRANCH  21  27
ENDBRANCH  20  24
ENDBRANCH  19  20
ENDBRANCH   1  19
TORSDOF 9
ENDMDL
MODEL 2
REMARK VINA RESULT:     -12.3      5.216      9.886
REMARK  Name = 9826451
REMARK  9 active torsions:
REMARK  status: ('A' for Active; 'I' for Inactive)
REMARK    1  A    between atoms: C_1  and  N_2
REMARK    2  A    between atoms: C_1  and  C_19
REMARK    3  A    between atoms: C_8  and  O_10
REMARK    4  A    between atoms: O_10  and  C_11
REMARK    5  A    between atoms: C_14  and  O_17
REMARK    6  A    between atoms: C_19  and  O_20
REMARK    7  A    between atoms: O_20  and  C_24
REMARK    8  A    between atoms: C_21  and  C_27
REMARK    9  A    between atoms: C_27  and  C_32
REMARK                            x       y       z     vdW  Elec       q    Type
REMARK                         _______ _______ _______ _____ _____    ______ ____
ROOT
ATOM      1  C   UNL     1      33.430 -14.535 -24.857  0.00  0.00    +0.139 C 
ENDROOT
BRANCH   1   2
ATOM      2  N   UNL     1      34.005 -15.221 -23.725  0.00  0.00    -0.291 N 
ATOM      3  C   UNL     1      34.316 -14.448 -22.522  0.00  0.00    +0.113 C 
ATOM      4  N   UNL     1      33.982 -17.285 -24.887  0.00  0.00    -0.233 NA
ATOM      5  N   UNL     1      34.822 -19.270 -23.810  0.00  0.00    -0.214 NA
ATOM      6  C   UNL     1      34.278 -16.595 -23.766  0.00  0.00    +0.115 C 
ATOM      7  C   UNL     1      34.840 -17.165 -22.641  0.00  0.00    +0.146 C 
ATOM      8  C   UNL     1      35.093 -18.520 -22.722  0.00  0.00    +0.210 C 
ATOM      9  C   UNL     1      34.276 -18.598 -24.841  0.00  0.00    +0.254 C 
BRANCH   8  10
ATOM     10  O   UNL     1      35.650 -19.160 -21.646  0.00  0.00    -0.440 OA
BRANCH  10  11
ATOM     11  C   UNL     1      34.821 -19.957 -20.883  0.00  0.00    +0.147 C 
ATOM     12  C   UNL     1      33.441 -19.753 -20.906  0.00  0.00    +0.041 C 
ATOM     13  C   UNL     1      35.363 -20.967 -20.087  0.00  0.00    +0.041 C 
ATOM     14  C   UNL     1      33.146 -21.568 -19.339  0.00  0.00    +0.139 C 
ATOM     15  C   UNL     1      32.604 -20.559 -20.135  0.00  0.00    +0.040 C 
ATOM     16  C   UNL     1      34.526 -21.773 -19.317  0.00  0.00    +0.040 C 
BRANCH  14  17
ATOM     17  O   UNL     1      32.329 -22.355 -18.587  0.00  0.00    -0.471 OA
ATOM     18  C   UNL     1      32.938 -23.111 -17.541  0.00  0.00    +0.252 C 
ENDBRANCH  14  17
ENDBRANCH  10  11
ENDBRANCH   8  10
ENDBRANCH   1   2
BRANCH   1  19
ATOM     19  C   UNL     1      32.871 -13.191 -24.422  0.00  0.00    +0.227 C 
BRANCH  19  20
ATOM     20  O   UNL     1      33.797 -12.159 -24.760  0.00  0.00    -0.474 OA
BRANCH  20  24
ATOM     21  C   UNL     1      33.310  -8.489 -22.884  0.00  0.00    -0.021 C 
ATOM     22  C   UNL     1      32.416  -9.528 -22.627  0.00  0.00    -0.001 C 
ATOM     23  C   UNL     1      34.368  -8.684 -23.773  0.00  0.00    -0.001 C 
ATOM     24  C   UNL     1      33.636 -10.956 -24.145  0.00  0.00    +0.139 C 
ATOM     25  C   UNL     1      32.578 -10.761 -23.257  0.00  0.00    +0.037 C 
ATOM     26  C   UNL     1      34.530  -9.917 -24.403  0.00  0.00    +0.037 C 
BRANCH  21  27
ATOM     27  C   UNL     1      33.133  -7.157 -22.203  0.00  0.00    +0.047 C 
BRANCH  27  32
ATOM     28  S   UNL     1      30.533  -6.295 -22.494  0.00  0.00    -0.048 S 
ATOM     29  O   UNL     1      32.733  -6.408 -19.325  0.00  0.00    -0.274 OA
ATOM     30  O   UNL     1      29.333  -4.174 -21.509  0.00  0.00    -0.263 OA
ATOM     31  N   UNL     1      31.014  -5.169 -20.253  0.00  0.00    -0.246 N 
ATOM     32  C   UNL     1      31.812  -7.071 -21.459  0.00  0.00    +0.137 C 
ATOM     33  C   UNL     1      31.927  -6.203 -20.226  0.00  0.00    +0.239 C 
ATOM     34  C   UNL     1      30.186  -5.030 -21.335  0.00  0.00    +0.279 C 
ATOM     35  H   UNL     1      30.959  -4.536 -19.500  0.00  0.00    +0.158 HD
ENDBRANCH  27  32
ENDBRANCH  21  27
ENDBRANCH  20  24
ENDBRANCH  19  20
ENDBRANCH   1  19
TORSDOF 9
ENDMDL
MODEL 3
REMARK VINA RESULT:     -12.1      2.509      4.970
REMARK  Name = 9826451
REMARK  9 active torsions:
REMARK  status: ('A' for Active; 'I' for Inactive)
REMARK    1  A    between atoms: C_1  and  N_2
REMARK    2  A    between atoms: C_1  and  C_19
REMARK    3  A    between atoms: C_8  and  O_10
REMARK    4  A    between atoms: O_10  and  C_11
REMARK    5  A    between atoms: C_14  and  O_17
REMARK    6  A    between atoms: C_19  and  O_20
REMARK    7  A    between atoms: O_20  and  C_24
REMARK    8  A    between atoms: C_21  and  C_27
REMARK    9  A    between atoms: C_27  and  C_32
REMARK                            x       y       z     vdW  Elec       q    Type
REMARK                         _______ _______ _______ _____ _____    ______ ____
ROOT
ATOM      1  C   UNL     1      33.673 -21.730 -19.495  0.00  0.00    +0.139 C 
ENDROOT
BRANCH   1   2
ATOM      2  N   UNL     1      34.340 -22.164 -18.290  0.00  0.00    -0.291 N 
ATOM      3  C   UNL     1      35.787 -21.975 -18.186  0.00  0.00    +0.113 C 
ATOM      4  N   UNL     1      32.299 -22.927 -17.362  0.00  0.00    -0.233 NA
ATOM      5  N   UNL     1      32.288 -23.940 -15.176  0.00  0.00    -0.214 NA
ATOM      6  C   UNL     1      33.633 -22.765 -17.241  0.00  0.00    +0.115 C 
ATOM      7  C   UNL     1      34.355 -23.160 -16.133  0.00  0.00    +0.146 C 
ATOM      8  C   UNL     1      33.622 -23.748 -15.121  0.00  0.00    +0.210 C 
ATOM      9  C   UNL     1      31.699 -23.513 -16.309  0.00  0.00    +0.254 C 
BRANCH   8  10
ATOM     10  O   UNL     1      34.266 -24.168 -13.987  0.00  0.00    -0.440 OA
BRANCH  10  11
ATOM     11  C   UNL     1      35.466 -24.832 -14.147  0.00  0.00    +0.147 C 
ATOM     12  C   UNL     1      35.540 -25.947 -14.982  0.00  0.00    +0.041 C 
ATOM     13  C   UNL     1      36.605 -24.387 -13.474  0.00  0.00    +0.041 C 
ATOM     14  C   UNL     1      37.890 -26.173 -14.471  0.00  0.00    +0.139 C 
ATOM     15  C   UNL     1      36.752 -26.618 -15.144  0.00  0.00    +0.040 C 
ATOM     16  C   UNL     1      37.816 -25.057 -13.637  0.00  0.00    +0.040 C 
BRANCH  14  17
ATOM     17  O   UNL     1      39.073 -26.827 -14.630  0.00  0.00    -0.471 OA
ATOM     18  C   UNL     1      40.258 -26.032 -14.648  0.00  0.00    +0.252 C 
ENDBRANCH  14  17
ENDBRANCH  10  11
ENDBRANCH   8  10
ENDBRANCH   1   2
BRANCH   1  19
ATOM     19  C   UNL     1      34.666 -21.055 -20.426  0.00  0.00    +0.227 C 
BRANCH  19  20
ATOM     20  O   UNL     1      34.641 -19.646 -20.205  0.00  0.00    -0.474 OA
BRANCH  20  24
ATOM     21  C   UNL     1      34.600 -17.205 -23.562  0.00  0.00    -0.021 C 
ATOM     22  C   UNL     1      34.227 -18.544 -23.669  0.00  0.00    -0.001 C 
ATOM     23  C   UNL     1      34.987 -16.686 -22.326  0.00  0.00    -0.001 C 
ATOM     24  C   UNL     1      34.628 -18.846 -21.306  0.00  0.00    +0.139 C 
ATOM     25  C   UNL     1      34.241 -19.365 -22.542  0.00  0.00    +0.037 C 
ATOM     26  C   UNL     1      35.002 -17.506 -21.199  0.00  0.00    +0.037 C 
BRANCH  21  27
ATOM     27  C   UNL     1      34.585 -16.319 -24.781  0.00  0.00    +0.047 C 
BRANCH  27  32
ATOM     28  S   UNL     1      32.808 -15.748 -26.807  0.00  0.00    -0.048 S 
ATOM     29  O   UNL     1      33.412 -13.880 -23.485  0.00  0.00    -0.274 OA
ATOM     30  O   UNL     1      32.188 -13.447 -27.916  0.00  0.00    -0.263 OA
ATOM     31  N   UNL     1      32.766 -13.464 -25.666  0.00  0.00    -0.246 N 
ATOM     32  C   UNL     1      33.210 -15.725 -25.033  0.00  0.00    +0.137 C 
ATOM     33  C   UNL     1      33.151 -14.272 -24.617  0.00  0.00    +0.239 C 
ATOM     34  C   UNL     1      32.531 -14.022 -26.895  0.00  0.00    +0.279 C 
ATOM     35  H   UNL     1      32.661 -12.494 -25.533  0.00  0.00    +0.158 HD
ENDBRANCH  27  32
ENDBRANCH  21  27
ENDBRANCH  20  24
ENDBRANCH  19  20
ENDBRANCH   1  19
TORSDOF 9
ENDMDL
MODEL 4
REMARK VINA RESULT:     -11.9      3.897     11.296
REMARK  Name = 9826451
REMARK  9 active torsions:
REMARK  status: ('A' for Active; 'I' for Inactive)
REMARK    1  A    between atoms: C_1  and  N_2
REMARK    2  A    between atoms: C_1  and  C_19
REMARK    3  A    between atoms: C_8  and  O_10
REMARK    4  A    between atoms: O_10  and  C_11
REMARK    5  A    between atoms: C_14  and  O_17
REMARK    6  A    between atoms: C_19  and  O_20
REMARK    7  A    between atoms: O_20  and  C_24
REMARK    8  A    between atoms: C_21  and  C_27
REMARK    9  A    between atoms: C_27  and  C_32
REMARK                            x       y       z     vdW  Elec       q    Type
REMARK                         _______ _______ _______ _____ _____    ______ ____
ROOT
ATOM      1  C   UNL     1      33.660 -22.335 -19.510  0.00  0.00    +0.139 C 
ENDROOT
BRANCH   1   2
ATOM      2  N   UNL     1      33.485 -21.024 -20.088  0.00  0.00    -0.291 N 
ATOM      3  C   UNL     1      32.124 -20.513 -20.263  0.00  0.00    +0.113 C 
ATOM      4  N   UNL     1      35.825 -20.745 -20.319  0.00  0.00    -0.233 NA
ATOM      5  N   UNL     1      36.696 -18.718 -21.285  0.00  0.00    -0.214 NA
ATOM      6  C   UNL     1      34.581 -20.251 -20.491  0.00  0.00    +0.115 C 
ATOM      7  C   UNL     1      34.319 -19.015 -21.046  0.00  0.00    +0.146 C 
ATOM      8  C   UNL     1      35.426 -18.285 -21.429  0.00  0.00    +0.210 C 
ATOM      9  C   UNL     1      36.820 -19.938 -20.732  0.00  0.00    +0.254 C 
BRANCH   8  10
ATOM     10  O   UNL     1      35.249 -17.046 -21.988  0.00  0.00    -0.440 OA
BRANCH  10  11
ATOM     11  C   UNL     1      34.699 -16.995 -23.253  0.00  0.00    +0.147 C 
ATOM     12  C   UNL     1      34.195 -15.792 -23.747  0.00  0.00    +0.041 C 
ATOM     13  C   UNL     1      34.649 -18.147 -24.039  0.00  0.00    +0.041 C 
ATOM     14  C   UNL     1      33.590 -16.892 -25.811  0.00  0.00    +0.139 C 
ATOM     15  C   UNL     1      33.641 -15.740 -25.026  0.00  0.00    +0.040 C 
ATOM     16  C   UNL     1      34.095 -18.095 -25.317  0.00  0.00    +0.040 C 
BRANCH  14  17
ATOM     17  O   UNL     1      33.050 -16.841 -27.059  0.00  0.00    -0.471 OA
ATOM     18  C   UNL     1      31.628 -16.916 -27.156  0.00  0.00    +0.252 C 
ENDBRANCH  14  17
ENDBRANCH  10  11
ENDBRANCH   8  10
ENDBRANCH   1   2
BRANCH   1  19
ATOM     19  C   UNL     1      32.980 -22.401 -18.153  0.00  0.00    +0.227 C 
BRANCH  19  20
ATOM     20  O   UNL     1      33.346 -23.613 -17.497  0.00  0.00    -0.474 OA
BRANCH  20  24
ATOM     21  C   UNL     1      35.619 -23.285 -14.040  0.00  0.00    -0.021 C 
ATOM     22  C   UNL     1      34.379 -23.921 -14.001  0.00  0.00    -0.001 C 
ATOM     23  C   UNL     1      36.096 -22.759 -15.241  0.00  0.00    -0.001 C 
ATOM     24  C   UNL     1      34.091 -23.506 -16.363  0.00  0.00    +0.139 C 
ATOM     25  C   UNL     1      33.614 -24.032 -15.162  0.00  0.00    +0.037 C 
ATOM     26  C   UNL     1      35.331 -22.869 -16.402  0.00  0.00    +0.037 C 
BRANCH  21  27
ATOM     27  C   UNL     1      36.444 -23.167 -12.785  0.00  0.00    +0.047 C 
BRANCH  27  32
ATOM     28  S   UNL     1      38.204 -24.841 -14.084  0.00  0.00    -0.048 S 
ATOM     29  O   UNL     1      35.723 -25.633 -11.235  0.00  0.00    -0.274 OA
ATOM     30  O   UNL     1      37.864 -27.289 -14.977  0.00  0.00    -0.263 OA
ATOM     31  N   UNL     1      36.708 -26.644 -13.068  0.00  0.00    -0.246 N 
ATOM     32  C   UNL     1      37.316 -24.390 -12.561  0.00  0.00    +0.137 C 
ATOM     33  C   UNL     1      36.487 -25.600 -12.194  0.00  0.00    +0.239 C 
ATOM     34  C   UNL     1      37.566 -26.470 -14.121  0.00  0.00    +0.279 C 
ATOM     35  H   UNL     1      36.252 -27.507 -12.936  0.00  0.00    +0.158 HD
ENDBRANCH  27  32
ENDBRANCH  21  27
ENDBRANCH  20  24
ENDBRANCH  19  20
ENDBRANCH   1  19
TORSDOF 9
ENDMDL
MODEL 5
REMARK VINA RESULT:     -11.9      3.151     12.411
REMARK  Name = 9826451
REMARK  9 active torsions:
REMARK  status: ('A' for Active; 'I' for Inactive)
REMARK    1  A    between atoms: C_1  and  N_2
REMARK    2  A    between atoms: C_1  and  C_19
REMARK    3  A    between atoms: C_8  and  O_10
REMARK    4  A    between atoms: O_10  and  C_11
REMARK    5  A    between atoms: C_14  and  O_17
REMARK    6  A    between atoms: C_19  and  O_20
REMARK    7  A    between atoms: O_20  and  C_24
REMARK    8  A    between atoms: C_21  and  C_27
REMARK    9  A    between atoms: C_27  and  C_32
REMARK                            x       y       z     vdW  Elec       q    Type
REMARK                         _______ _______ _______ _____ _____    ______ ____
ROOT
ATOM      1  C   UNL     1      33.893 -18.722 -23.161  0.00  0.00    +0.139 C 
ENDROOT
BRANCH   1   2
ATOM      2  N   UNL     1      34.101 -17.579 -24.017  0.00  0.00    -0.291 N 
ATOM      3  C   UNL     1      35.147 -16.619 -23.661  0.00  0.00    +0.113 C 
ATOM      4  N   UNL     1      32.361 -18.271 -25.468  0.00  0.00    -0.233 NA
ATOM      5  N   UNL     1      31.813 -16.935 -27.396  0.00  0.00    -0.214 NA
ATOM      6  C   UNL     1      33.319 -17.371 -25.161  0.00  0.00    +0.115 C 
ATOM      7  C   UNL     1      33.579 -16.244 -25.913  0.00  0.00    +0.146 C 
ATOM      8  C   UNL     1      32.787 -16.076 -27.031  0.00  0.00    +0.210 C 
ATOM      9  C   UNL     1      31.656 -17.995 -26.581  0.00  0.00    +0.254 C 
BRANCH   8  10
ATOM     10  O   UNL     1      32.984 -14.981 -27.831  0.00  0.00    -0.440 OA
BRANCH  10  11
ATOM     11  C   UNL     1      33.251 -13.779 -27.206  0.00  0.00    +0.147 C 
ATOM     12  C   UNL     1      34.019 -12.811 -27.853  0.00  0.00    +0.041 C 
ATOM     13  C   UNL     1      32.751 -13.532 -25.927  0.00  0.00    +0.041 C 
ATOM     14  C   UNL     1      33.789 -11.351 -25.943  0.00  0.00    +0.139 C 
ATOM     15  C   UNL     1      34.288 -11.597 -27.222  0.00  0.00    +0.040 C 
ATOM     16  C   UNL     1      33.019 -12.318 -25.296  0.00  0.00    +0.040 C 
BRANCH  14  17
ATOM     17  O   UNL     1      34.051 -10.165 -25.327  0.00  0.00    -0.471 OA
ATOM     18  C   UNL     1      35.420  -9.782 -25.209  0.00  0.00    +0.252 C 
ENDBRANCH  14  17
ENDBRANCH  10  11
ENDBRANCH   8  10
ENDBRANCH   1   2
BRANCH   1  19
ATOM     19  C   UNL     1      34.286 -18.382 -21.733  0.00  0.00    +0.227 C 
BRANCH  19  20
ATOM     20  O   UNL     1      35.195 -19.366 -21.244  0.00  0.00    -0.474 OA
BRANCH  20  24
ATOM     21  C   UNL     1      33.633 -22.329 -18.792  0.00  0.00    -0.021 C 
ATOM     22  C   UNL     1      35.014 -22.167 -18.897  0.00  0.00    -0.001 C 
ATOM     23  C   UNL     1      32.776 -21.494 -19.511  0.00  0.00    -0.001 C 
ATOM     24  C   UNL     1      34.683 -20.338 -20.440  0.00  0.00    +0.139 C 
ATOM     25  C   UNL     1      35.539 -21.172 -19.721  0.00  0.00    +0.037 C 
ATOM     26  C   UNL     1      33.301 -20.500 -20.335  0.00  0.00    +0.037 C 
BRANCH  21  27
ATOM     27  C   UNL     1      33.066 -23.404 -17.902  0.00  0.00    +0.047 C 
BRANCH  27  32
ATOM     28  S   UNL     1      33.480 -23.726 -15.197  0.00  0.00    -0.048 S 
ATOM     29  O   UNL     1      30.283 -22.648 -17.072  0.00  0.00    -0.274 OA
ATOM     30  O   UNL     1      31.957 -24.850 -13.374  0.00  0.00    -0.263 OA
ATOM     31  N   UNL     1      30.927 -23.776 -15.157  0.00  0.00    -0.246 N 
ATOM     32  C   UNL     1      32.634 -22.856 -16.553  0.00  0.00    +0.137 C 
ATOM     33  C   UNL     1      31.155 -23.066 -16.318  0.00  0.00    +0.239 C 
ATOM     34  C   UNL     1      31.992 -24.214 -14.416  0.00  0.00    +0.279 C 
ATOM     35  H   UNL     1      30.006 -23.966 -14.865  0.00  0.00    +0.158 HD
ENDBRANCH  27  32
ENDBRANCH  21  27
ENDBRANCH  20  24
ENDBRANCH  19  20
ENDBRANCH   1  19
TORSDOF 9
ENDMDL
MODEL 6
REMARK VINA RESULT:     -11.7      3.500     12.408
REMARK  Name = 9826451
REMARK  9 active torsions:
REMARK  status: ('A' for Active; 'I' for Inactive)
REMARK    1  A    between atoms: C_1  and  N_2
REMARK    2  A    between atoms: C_1  and  C_19
REMARK    3  A    between atoms: C_8  and  O_10
REMARK    4  A    between atoms: O_10  and  C_11
REMARK    5  A    between atoms: C_14  and  O_17
REMARK    6  A    between atoms: C_19  and  O_20
REMARK    7  A    between atoms: O_20  and  C_24
REMARK    8  A    between atoms: C_21  and  C_27
REMARK    9  A    between atoms: C_27  and  C_32
REMARK                            x       y       z     vdW  Elec       q    Type
REMARK                         _______ _______ _______ _____ _____    ______ ____
ROOT
ATOM      1  C   UNL     1      35.328 -18.257 -23.563  0.00  0.00    +0.139 C 
ENDROOT
BRANCH   1   2
ATOM      2  N   UNL     1      34.569 -17.227 -24.231  0.00  0.00    -0.291 N 
ATOM      3  C   UNL     1      34.116 -17.469 -25.601  0.00  0.00    +0.113 C 
ATOM      4  N   UNL     1      34.702 -15.814 -22.335  0.00  0.00    -0.233 NA
ATOM      5  N   UNL     1      33.680 -13.633 -22.398  0.00  0.00    -0.214 NA
ATOM      6  C   UNL     1      34.273 -16.012 -23.599  0.00  0.00    +0.115 C 
ATOM      7  C   UNL     1      33.553 -15.080 -24.318  0.00  0.00    +0.146 C 
ATOM      8  C   UNL     1      33.283 -13.897 -23.660  0.00  0.00    +0.210 C 
ATOM      9  C   UNL     1      34.375 -14.621 -21.804  0.00  0.00    +0.254 C 
BRANCH   8  10
ATOM     10  O   UNL     1      32.572 -12.920 -24.307  0.00  0.00    -0.440 OA
BRANCH  10  11
ATOM     11  C   UNL     1      33.214 -11.722 -24.548  0.00  0.00    +0.147 C 
ATOM     12  C   UNL     1      32.840 -10.576 -23.846  0.00  0.00    +0.041 C 
ATOM     13  C   UNL     1      34.238 -11.658 -25.494  0.00  0.00    +0.041 C 
ATOM     14  C   UNL     1      34.512  -9.302 -25.035  0.00  0.00    +0.139 C 
ATOM     15  C   UNL     1      33.489  -9.366 -24.089  0.00  0.00    +0.040 C 
ATOM     16  C   UNL     1      34.887 -10.448 -25.737  0.00  0.00    +0.040 C 
BRANCH  14  17
ATOM     17  O   UNL     1      35.147  -8.121 -25.272  0.00  0.00    -0.471 OA
ATOM     18  C   UNL     1      34.641  -7.313 -26.334  0.00  0.00    +0.252 C 
ENDBRANCH  14  17
ENDBRANCH  10  11
ENDBRANCH   8  10
ENDBRANCH   1   2
BRANCH   1  19
ATOM     19  C   UNL     1      34.409 -19.107 -22.701  0.00  0.00    +0.227 C 
BRANCH  19  20
ATOM     20  O   UNL     1      34.885 -19.107 -21.357  0.00  0.00    -0.474 OA
BRANCH  20  24
ATOM     21  C   UNL     1      33.591 -22.186 -18.893  0.00  0.00    -0.021 C 
ATOM     22  C   UNL     1      32.661 -21.373 -19.539  0.00  0.00    -0.001 C 
ATOM     23  C   UNL     1      34.957 -21.965 -19.074  0.00  0.00    -0.001 C 
ATOM     24  C   UNL     1      34.460 -20.116 -20.549  0.00  0.00    +0.139 C 
ATOM     25  C   UNL     1      33.095 -20.338 -20.367  0.00  0.00    +0.037 C 
ATOM     26  C   UNL     1      35.391 -20.930 -19.901  0.00  0.00    +0.037 C 
BRANCH  21  27
ATOM     27  C   UNL     1      33.121 -23.304 -17.999  0.00  0.00    +0.047 C 
BRANCH  27  32
ATOM     28  S   UNL     1      33.540 -23.606 -15.293  0.00  0.00    -0.048 S 
ATOM     29  O   UNL     1      30.288 -22.743 -17.183  0.00  0.00    -0.274 OA
ATOM     30  O   UNL     1      32.088 -24.838 -13.482  0.00  0.00    -0.263 OA
ATOM     31  N   UNL     1      30.997 -23.830 -15.268  0.00  0.00    -0.246 N 
ATOM     32  C   UNL     1      32.645 -22.791 -16.651  0.00  0.00    +0.137 C 
ATOM     33  C   UNL     1      31.182 -23.103 -16.425  0.00  0.00    +0.239 C 
ATOM     34  C   UNL     1      32.085 -24.197 -14.522  0.00  0.00    +0.279 C 
ATOM     35  H   UNL     1      30.089 -24.084 -14.982  0.00  0.00    +0.158 HD
ENDBRANCH  27  32
ENDBRANCH  21  27
ENDBRANCH  20  24
ENDBRANCH  19  20
ENDBRANCH   1  19
TORSDOF 9
ENDMDL
MODEL 7
REMARK VINA RESULT:     -11.7      2.306      5.008
REMARK  Name = 9826451
REMARK  9 active torsions:
REMARK  status: ('A' for Active; 'I' for Inactive)
REMARK    1  A    between atoms: C_1  and  N_2
REMARK    2  A    between atoms: C_1  and  C_19
REMARK    3  A    between atoms: C_8  and  O_10
REMARK    4  A    between atoms: O_10  and  C_11
REMARK    5  A    between atoms: C_14  and  O_17
REMARK    6  A    between atoms: C_19  and  O_20
REMARK    7  A    between atoms: O_20  and  C_24
REMARK    8  A    between atoms: C_21  and  C_27
REMARK    9  A    between atoms: C_27  and  C_32
REMARK                            x       y       z     vdW  Elec       q    Type
REMARK                         _______ _______ _______ _____ _____    ______ ____
ROOT
ATOM      1  C   UNL     1      32.819 -22.618 -18.002  0.00  0.00    +0.139 C 
ENDROOT
BRANCH   1   2
ATOM      2  N   UNL     1      33.656 -22.946 -16.872  0.00  0.00    -0.291 N 
ATOM      3  C   UNL     1      35.104 -22.773 -17.000  0.00  0.00    +0.113 C 
ATOM      4  N   UNL     1      31.773 -23.583 -15.584  0.00  0.00    -0.233 NA
ATOM      5  N   UNL     1      32.083 -24.383 -13.333  0.00  0.00    -0.214 NA
ATOM      6  C   UNL     1      33.111 -23.432 -15.677  0.00  0.00    +0.115 C 
ATOM      7  C   UNL     1      33.988 -23.732 -14.654  0.00  0.00    +0.146 C 
ATOM      8  C   UNL     1      33.411 -24.209 -13.493  0.00  0.00    +0.210 C 
ATOM      9  C   UNL     1      31.334 -24.055 -14.402  0.00  0.00    +0.254 C 
BRANCH   8  10
ATOM     10  O   UNL     1      34.215 -24.529 -12.431  0.00  0.00    -0.440 OA
BRANCH  10  11
ATOM     11  C   UNL     1      35.568 -24.657 -12.675  0.00  0.00    +0.147 C 
ATOM     12  C   UNL     1      36.034 -25.671 -13.512  0.00  0.00    +0.041 C 
ATOM     13  C   UNL     1      36.470 -23.771 -12.084  0.00  0.00    +0.041 C 
ATOM     14  C   UNL     1      38.301 -24.915 -13.168  0.00  0.00    +0.139 C 
ATOM     15  C   UNL     1      37.400 -25.800 -13.759  0.00  0.00    +0.040 C 
ATOM     16  C   UNL     1      37.836 -23.900 -12.331  0.00  0.00    +0.040 C 
BRANCH  14  17
ATOM     17  O   UNL     1      39.635 -25.040 -13.409  0.00  0.00    -0.471 OA
ATOM     18  C   UNL     1      40.021 -25.791 -14.559  0.00  0.00    +0.252 C 
ENDBRANCH  14  17
ENDBRANCH  10  11
ENDBRANCH   8  10
ENDBRANCH   1   2
BRANCH   1  19
ATOM     19  C   UNL     1      33.669 -22.463 -19.252  0.00  0.00    +0.227 C 
BRANCH  19  20
ATOM     20  O   UNL     1      34.521 -21.328 -19.109  0.00  0.00    -0.474 OA
BRANCH  20  24
ATOM     21  C   UNL     1      34.981 -18.877 -22.427  0.00  0.00    -0.021 C 
ATOM     22  C   UNL     1      33.722 -19.384 -22.103  0.00  0.00    -0.001 C 
ATOM     23  C   UNL     1      36.085 -19.195 -21.636  0.00  0.00    -0.001 C 
ATOM     24  C   UNL     1      34.672 -20.525 -20.198  0.00  0.00    +0.139 C 
ATOM     25  C   UNL     1      33.567 -20.208 -20.989  0.00  0.00    +0.037 C 
ATOM     26  C   UNL     1      35.930 -20.019 -20.522  0.00  0.00    +0.037 C 
BRANCH  21  27
ATOM     27  C   UNL     1      35.147 -17.987 -23.632  0.00  0.00    +0.047 C 
BRANCH  27  32
ATOM     28  S   UNL     1      33.372 -17.938 -25.738  0.00  0.00    -0.048 S 
ATOM     29  O   UNL     1      34.253 -15.153 -23.216  0.00  0.00    -0.274 OA
ATOM     30  O   UNL     1      32.943 -16.079 -27.546  0.00  0.00    -0.263 OA
ATOM     31  N   UNL     1      33.584 -15.413 -25.415  0.00  0.00    -0.246 N 
ATOM     32  C   UNL     1      33.829 -17.373 -24.069  0.00  0.00    +0.137 C 
ATOM     33  C   UNL     1      33.922 -15.866 -24.156  0.00  0.00    +0.239 C 
ATOM     34  C   UNL     1      33.260 -16.318 -26.391  0.00  0.00    +0.279 C 
ATOM     35  H   UNL     1      33.577 -14.448 -25.609  0.00  0.00    +0.158 HD
ENDBRANCH  27  32
ENDBRANCH  21  27
ENDBRANCH  20  24
ENDBRANCH  19  20
ENDBRANCH   1  19
TORSDOF 9
ENDMDL
MODEL 8
REMARK VINA RESULT:     -11.6      4.367     12.070
REMARK  Name = 9826451
REMARK  9 active torsions:
REMARK  status: ('A' for Active; 'I' for Inactive)
REMARK    1  A    between atoms: C_1  and  N_2
REMARK    2  A    between atoms: C_1  and  C_19
REMARK    3  A    between atoms: C_8  and  O_10
REMARK    4  A    between atoms: O_10  and  C_11
REMARK    5  A    between atoms: C_14  and  O_17
REMARK    6  A    between atoms: C_19  and  O_20
REMARK    7  A    between atoms: O_20  and  C_24
REMARK    8  A    between atoms: C_21  and  C_27
REMARK    9  A    between atoms: C_27  and  C_32
REMARK                            x       y       z     vdW  Elec       q    Type
REMARK                         _______ _______ _______ _____ _____    ______ ____
ROOT
ATOM      1  C   UNL     1      35.540 -19.167 -21.014  0.00  0.00    +0.139 C 
ENDROOT
BRANCH   1   2
ATOM      2  N   UNL     1      35.144 -18.348 -22.134  0.00  0.00    -0.291 N 
ATOM      3  C   UNL     1      35.077 -18.962 -23.461  0.00  0.00    +0.113 C 
ATOM      4  N   UNL     1      34.907 -16.447 -20.741  0.00  0.00    -0.233 NA
ATOM      5  N   UNL     1      34.237 -14.341 -21.700  0.00  0.00    -0.214 NA
ATOM      6  C   UNL     1      34.838 -16.990 -21.975  0.00  0.00    +0.115 C 
ATOM      7  C   UNL     1      34.482 -16.281 -23.104  0.00  0.00    +0.146 C 
ATOM      8  C   UNL     1      34.189 -14.947 -22.904  0.00  0.00    +0.210 C 
ATOM      9  C   UNL     1      34.598 -15.138 -20.677  0.00  0.00    +0.254 C 
BRANCH   8  10
ATOM     10  O   UNL     1      33.825 -14.175 -23.977  0.00  0.00    -0.440 OA
BRANCH  10  11
ATOM     11  C   UNL     1      33.396 -12.889 -23.716  0.00  0.00    +0.147 C 
ATOM     12  C   UNL     1      34.029 -11.805 -24.323  0.00  0.00    +0.041 C 
ATOM     13  C   UNL     1      32.326 -12.674 -22.846  0.00  0.00    +0.041 C 
ATOM     14  C   UNL     1      32.526 -10.292 -23.190  0.00  0.00    +0.139 C 
ATOM     15  C   UNL     1      33.595 -10.506 -24.060  0.00  0.00    +0.040 C 
ATOM     16  C   UNL     1      31.891 -11.376 -22.584  0.00  0.00    +0.040 C 
BRANCH  14  17
ATOM     17  O   UNL     1      32.101  -9.024 -22.934  0.00  0.00    -0.471 OA
ATOM     18  C   UNL     1      32.384  -8.493 -21.640  0.00  0.00    +0.252 C 
ENDBRANCH  14  17
ENDBRANCH  10  11
ENDBRANCH   8  10
ENDBRANCH   1   2
BRANCH   1  19
ATOM     19  C   UNL     1      34.404 -20.096 -20.620  0.00  0.00    +0.227 C 
BRANCH  19  20
ATOM     20  O   UNL     1      34.919 -21.407 -20.395  0.00  0.00    -0.474 OA
BRANCH  20  24
ATOM     21  C   UNL     1      35.668 -22.496 -16.460  0.00  0.00    -0.021 C 
ATOM     22  C   UNL     1      34.444 -22.810 -17.050  0.00  0.00    -0.001 C 
ATOM     23  C   UNL     1      36.641 -21.815 -17.193  0.00  0.00    -0.001 C 
ATOM     24  C   UNL     1      35.164 -21.764 -19.104  0.00  0.00    +0.139 C 
ATOM     25  C   UNL     1      34.191 -22.444 -18.372  0.00  0.00    +0.037 C 
ATOM     26  C   UNL     1      36.388 -21.449 -18.514  0.00  0.00    +0.037 C 
BRANCH  21  27
ATOM     27  C   UNL     1      35.939 -22.891 -15.032  0.00  0.00    +0.047 C 
BRANCH  27  32
ATOM     28  S   UNL     1      35.347 -25.135 -13.548  0.00  0.00    -0.048 S 
ATOM     29  O   UNL     1      38.661 -24.135 -15.253  0.00  0.00    -0.274 OA
ATOM     30  O   UNL     1      36.745 -26.348 -11.682  0.00  0.00    -0.263 OA
ATOM     31  N   UNL     1      37.892 -25.300 -13.409  0.00  0.00    -0.246 N 
ATOM     32  C   UNL     1      36.281 -24.365 -14.907  0.00  0.00    +0.137 C 
ATOM     33  C   UNL     1      37.741 -24.568 -14.569  0.00  0.00    +0.239 C 
ATOM     34  C   UNL     1      36.780 -25.702 -12.718  0.00  0.00    +0.279 C 
ATOM     35  H   UNL     1      38.791 -25.529 -13.081  0.00  0.00    +0.158 HD
ENDBRANCH  27  32
ENDBRANCH  21  27
ENDBRANCH  20  24
ENDBRANCH  19  20
ENDBRANCH   1  19
TORSDOF 9
ENDMDL
MODEL 9
REMARK VINA RESULT:     -11.5      4.287     12.486
REMARK  Name = 9826451
REMARK  9 active torsions:
REMARK  status: ('A' for Active; 'I' for Inactive)
REMARK    1  A    between atoms: C_1  and  N_2
REMARK    2  A    between atoms: C_1  and  C_19
REMARK    3  A    between atoms: C_8  and  O_10
REMARK    4  A    between atoms: O_10  and  C_11
REMARK    5  A    between atoms: C_14  and  O_17
REMARK    6  A    between atoms: C_19  and  O_20
REMARK    7  A    between atoms: O_20  and  C_24
REMARK    8  A    between atoms: C_21  and  C_27
REMARK    9  A    between atoms: C_27  and  C_32
REMARK                            x       y       z     vdW  Elec       q    Type
REMARK                         _______ _______ _______ _____ _____    ______ ____
ROOT
ATOM      1  C   UNL     1      33.697 -19.646 -21.885  0.00  0.00    +0.139 C 
ENDROOT
BRANCH   1   2
ATOM      2  N   UNL     1      34.268 -18.646 -22.756  0.00  0.00    -0.291 N 
ATOM      3  C   UNL     1      35.476 -17.945 -22.319  0.00  0.00    +0.113 C 
ATOM      4  N   UNL     1      32.570 -18.994 -24.371  0.00  0.00    -0.233 NA
ATOM      5  N   UNL     1      32.571 -17.698 -26.401  0.00  0.00    -0.214 NA
ATOM      6  C   UNL     1      33.684 -18.333 -23.990  0.00  0.00    +0.115 C 
ATOM      7  C   UNL     1      34.291 -17.354 -24.751  0.00  0.00    +0.146 C 
ATOM      8  C   UNL     1      33.684 -17.076 -25.960  0.00  0.00    +0.210 C 
ATOM      9  C   UNL     1      32.074 -18.631 -25.569  0.00  0.00    +0.254 C 
BRANCH   8  10
ATOM     10  O   UNL     1      34.227 -16.117 -26.774  0.00  0.00    -0.440 OA
BRANCH  10  11
ATOM     11  C   UNL     1      33.735 -14.832 -26.656  0.00  0.00    +0.147 C 
ATOM     12  C   UNL     1      33.363 -14.339 -25.406  0.00  0.00    +0.041 C 
ATOM     13  C   UNL     1      33.610 -14.027 -27.789  0.00  0.00    +0.041 C 
ATOM     14  C   UNL     1      32.742 -12.236 -26.420  0.00  0.00    +0.139 C 
ATOM     15  C   UNL     1      32.866 -13.041 -25.287  0.00  0.00    +0.040 C 
ATOM     16  C   UNL     1      33.115 -12.729 -27.671  0.00  0.00    +0.040 C 
BRANCH  14  17
ATOM     17  O   UNL     1      32.258 -10.969 -26.305  0.00  0.00    -0.471 OA
ATOM     18  C   UNL     1      32.989 -10.067 -25.476  0.00  0.00    +0.252 C 
ENDBRANCH  14  17
ENDBRANCH  10  11
ENDBRANCH   8  10
ENDBRANCH   1   2
BRANCH   1  19
ATOM     19  C   UNL     1      34.698 -20.033 -20.810  0.00  0.00    +0.227 C 
BRANCH  19  20
ATOM     20  O   UNL     1      34.426 -21.360 -20.364  0.00  0.00    -0.474 OA
BRANCH  20  24
ATOM     21  C   UNL     1      35.844 -22.422 -16.610  0.00  0.00    -0.021 C 
ATOM     22  C   UNL     1      34.555 -22.789 -16.998  0.00  0.00    -0.001 C 
ATOM     23  C   UNL     1      36.656 -21.697 -17.484  0.00  0.00    -0.001 C 
ATOM     24  C   UNL     1      34.891 -21.708 -19.133  0.00  0.00    +0.139 C 
ATOM     25  C   UNL     1      34.078 -22.432 -18.260  0.00  0.00    +0.037 C 
ATOM     26  C   UNL     1      36.179 -21.340 -18.744  0.00  0.00    +0.037 C 
BRANCH  21  27
ATOM     27  C   UNL     1      36.358 -22.808 -15.247  0.00  0.00    +0.047 C 
BRANCH  27  32
ATOM     28  S   UNL     1      35.429 -24.974 -13.822  0.00  0.00    -0.048 S 
ATOM     29  O   UNL     1      38.939 -24.338 -15.296  0.00  0.00    -0.274 OA
ATOM     30  O   UNL     1      36.561 -26.331 -11.876  0.00  0.00    -0.263 OA
ATOM     31  N   UNL     1      37.926 -25.413 -13.516  0.00  0.00    -0.246 N 
ATOM     32  C   UNL     1      36.529 -24.310 -15.110  0.00  0.00    +0.137 C 
ATOM     33  C   UNL     1      37.933 -24.670 -14.678  0.00  0.00    +0.239 C 
ATOM     34  C   UNL     1      36.734 -25.692 -12.902  0.00  0.00    +0.279 C 
ATOM     35  H   UNL     1      38.772 -25.738 -13.130  0.00  0.00    +0.158 HD
ENDBRANCH  27  32
ENDBRANCH  21  27
ENDBRANCH  20  24
ENDBRANCH  19  20
ENDBRANCH   1  19
TORSDOF 9
ENDMDL
