MODEL 1
REMARK VINA RESULT:     -13.4      0.000      0.000
REMARK  Name = 71351
REMARK  4 active torsions:
REMARK  status: ('A' for Active; 'I' for Inactive)
REMARK    1  A    between atoms: N_1  and  C_18
REMARK    2  A    between atoms: C_2  and  C_11
REMARK    3  A    between atoms: C_18  and  C_19
REMARK    4  A    between atoms: C_19  and  C_23
REMARK                            x       y       z     vdW  Elec       q    Type
REMARK                         _______ _______ _______ _____ _____    ______ ____
ROOT
ATOM      1  N   UNL     1      33.975 -19.971 -20.786  0.00  0.00    +0.387 N 
ATOM      2  C   UNL     1      33.853 -22.211 -18.897  0.00  0.00    +0.039 C 
ATOM      3  C   UNL     1      32.663 -21.267 -19.135  0.00  0.00    -0.017 C 
ATOM      4  C   UNL     1      35.168 -21.492 -19.240  0.00  0.00    -0.017 C 
ATOM      5  C   UNL     1      32.705 -20.667 -20.543  0.00  0.00    -0.077 C 
ATOM      6  C   UNL     1      35.116 -20.884 -20.644  0.00  0.00    -0.077 C 
ATOM      7  H   UNL     1      34.070 -19.236 -20.085  0.00  0.00    -0.080 HD
ENDROOT
BRANCH   2  11
ATOM      8  F   UNL     1      30.456 -24.458 -13.545  0.00  0.00    -0.204 F 
ATOM      9  O   UNL     1      34.681 -23.594 -15.674  0.00  0.00    -0.354 OA
ATOM     10  N   UNL     1      35.021 -23.069 -16.915  0.00  0.00    -0.081 NA
ATOM     11  C   UNL     1      33.859 -22.804 -17.506  0.00  0.00    +0.100 A 
ATOM     12  C   UNL     1      32.750 -23.131 -16.710  0.00  0.00    +0.054 A 
ATOM     13  C   UNL     1      33.326 -23.630 -15.555  0.00  0.00    +0.179 A 
ATOM     14  C   UNL     1      31.352 -23.075 -16.806  0.00  0.00    +0.007 C 
ATOM     15  C   UNL     1      32.607 -24.091 -14.456  0.00  0.00    +0.070 C 
ATOM     16  C   UNL     1      30.595 -23.532 -15.718  0.00  0.00    +0.030 C 
ATOM     17  C   UNL     1      31.214 -24.031 -14.566  0.00  0.00    +0.143 C 
ENDBRANCH   2  11
BRANCH   1  18
ATOM     18  C   UNL     1      33.974 -19.354 -22.113  0.00  0.00    -0.076 C 
BRANCH  18  19
ATOM     19  C   UNL     1      35.102 -18.337 -22.212  0.00  0.00    -0.007 C 
BRANCH  19  23
ATOM     20  O   UNL     1      34.381 -18.065 -24.877  0.00  0.00    -0.274 OA
ATOM     21  N   UNL     1      33.846 -15.795 -24.728  0.00  0.00    -0.211 N 
ATOM     22  N   UNL     1      34.018 -14.704 -22.626  0.00  0.00    -0.395 NA
ATOM     23  C   UNL     1      34.599 -17.034 -22.761  0.00  0.00    +0.123 C 
ATOM     24  C   UNL     1      34.444 -15.886 -22.074  0.00  0.00    +0.097 C 
ATOM     25  C   UNL     1      34.270 -17.028 -24.223  0.00  0.00    +0.241 C 
ATOM     26  C   UNL     1      33.739 -14.676 -23.894  0.00  0.00    +0.188 C 
ATOM     27  C   UNL     1      34.705 -15.779 -20.594  0.00  0.00    +0.062 C 
ATOM     28  C   UNL     1      33.272 -13.390 -24.524  0.00  0.00    +0.023 C 
ATOM     29  C   UNL     1      33.530 -15.703 -26.079  0.00  0.00    +0.074 C 
ATOM     30  C   UNL     1      32.986 -13.380 -25.834  0.00  0.00    +0.001 C 
ATOM     31  C   UNL     1      33.115 -14.562 -26.636  0.00  0.00    +0.016 C 
ATOM     32  C   UNL     1      33.150 -12.176 -23.654  0.00  0.00    +0.035 C 
ENDBRANCH  19  23
ENDBRANCH  18  19
ENDBRANCH   1  18
TORSDOF 4
ENDMDL
MODEL 2
REMARK VINA RESULT:     -13.3      3.800     10.792
REMARK  Name = 71351
REMARK  4 active torsions:
REMARK  status: ('A' for Active; 'I' for Inactive)
REMARK    1  A    between atoms: N_1  and  C_18
REMARK    2  A    between atoms: C_2  and  C_11
REMARK    3  A    between atoms: C_18  and  C_19
REMARK    4  A    between atoms: C_19  and  C_23
REMARK                            x       y       z     vdW  Elec       q    Type
REMARK                         _______ _______ _______ _____ _____    ______ ____
ROOT
ATOM      1  N   UNL     1      34.541 -18.296 -21.946  0.00  0.00    +0.387 N 
ATOM      2  C   UNL     1      34.398 -17.070 -24.607  0.00  0.00    +0.039 C 
ATOM      3  C   UNL     1      34.295 -16.247 -23.312  0.00  0.00    -0.017 C 
ATOM      4  C   UNL     1      33.958 -18.518 -24.341  0.00  0.00    -0.017 C 
ATOM      5  C   UNL     1      35.036 -16.930 -22.160  0.00  0.00    -0.077 C 
ATOM      6  C   UNL     1      34.712 -19.118 -23.151  0.00  0.00    -0.077 C 
ATOM      7  H   UNL     1      33.543 -18.241 -21.742  0.00  0.00    -0.080 HD
ENDROOT
BRANCH   2  11
ATOM      8  F   UNL     1      31.646 -11.623 -27.434  0.00  0.00    -0.204 F 
ATOM      9  O   UNL     1      32.651 -16.321 -27.669  0.00  0.00    -0.354 OA
ATOM     10  N   UNL     1      33.304 -17.189 -26.802  0.00  0.00    -0.081 NA
ATOM     11  C   UNL     1      33.655 -16.437 -25.761  0.00  0.00    +0.100 A 
ATOM     12  C   UNL     1      33.264 -15.096 -25.896  0.00  0.00    +0.054 A 
ATOM     13  C   UNL     1      32.630 -15.073 -27.126  0.00  0.00    +0.179 A 
ATOM     14  C   UNL     1      33.358 -13.909 -25.154  0.00  0.00    +0.007 C 
ATOM     15  C   UNL     1      32.065 -13.936 -27.696  0.00  0.00    +0.070 C 
ATOM     16  C   UNL     1      32.800 -12.743 -25.699  0.00  0.00    +0.030 C 
ATOM     17  C   UNL     1      32.167 -12.759 -26.947  0.00  0.00    +0.143 C 
ENDBRANCH   2  11
BRANCH   1  18
ATOM     18  C   UNL     1      35.220 -18.913 -20.805  0.00  0.00    -0.076 C 
BRANCH  18  19
ATOM     19  C   UNL     1      35.213 -20.428 -20.957  0.00  0.00    -0.007 C 
BRANCH  19  23
ATOM     20  O   UNL     1      36.413 -21.673 -18.788  0.00  0.00    -0.274 OA
ATOM     21  N   UNL     1      34.411 -22.358 -17.795  0.00  0.00    -0.211 N 
ATOM     22  N   UNL     1      32.352 -21.762 -18.818  0.00  0.00    -0.395 NA
ATOM     23  C   UNL     1      34.401 -21.070 -19.871  0.00  0.00    +0.123 C 
ATOM     24  C   UNL     1      33.056 -21.129 -19.811  0.00  0.00    +0.097 C 
ATOM     25  C   UNL     1      35.183 -21.725 -18.774  0.00  0.00    +0.241 C 
ATOM     26  C   UNL     1      33.013 -22.346 -17.864  0.00  0.00    +0.188 C 
ATOM     27  C   UNL     1      32.164 -20.475 -20.833  0.00  0.00    +0.062 C 
ATOM     28  C   UNL     1      32.263 -23.050 -16.764  0.00  0.00    +0.023 C 
ATOM     29  C   UNL     1      35.062 -22.997 -16.746  0.00  0.00    +0.074 C 
ATOM     30  C   UNL     1      32.962 -23.645 -15.786  0.00  0.00    +0.001 C 
ATOM     31  C   UNL     1      34.396 -23.621 -15.771  0.00  0.00    +0.016 C 
ATOM     32  C   UNL     1      30.766 -23.055 -16.814  0.00  0.00    +0.035 C 
ENDBRANCH  19  23
ENDBRANCH  18  19
ENDBRANCH   1  18
TORSDOF 4
ENDMDL
MODEL 3
REMARK VINA RESULT:     -13.3      1.093      2.049
REMARK  Name = 71351
REMARK  4 active torsions:
REMARK  status: ('A' for Active; 'I' for Inactive)
REMARK    1  A    between atoms: N_1  and  C_18
REMARK    2  A    between atoms: C_2  and  C_11
REMARK    3  A    between atoms: C_18  and  C_19
REMARK    4  A    between atoms: C_19  and  C_23
REMARK                            x       y       z     vdW  Elec       q    Type
REMARK                         _______ _______ _______ _____ _____    ______ ____
ROOT
ATOM      1  N   UNL     1      33.696 -19.883 -20.996  0.00  0.00    +0.387 N 
ATOM      2  C   UNL     1      34.000 -22.096 -19.095  0.00  0.00    +0.039 C 
ATOM      3  C   UNL     1      32.713 -21.259 -19.189  0.00  0.00    -0.017 C 
ATOM      4  C   UNL     1      35.195 -21.274 -19.602  0.00  0.00    -0.017 C 
ATOM      5  C   UNL     1      32.529 -20.679 -20.593  0.00  0.00    -0.077 C 
ATOM      6  C   UNL     1      34.920 -20.694 -20.992  0.00  0.00    -0.077 C 
ATOM      7  H   UNL     1      33.814 -19.132 -20.315  0.00  0.00    -0.080 HD
ENDROOT
BRANCH   2  11
ATOM      8  F   UNL     1      31.501 -24.707 -13.423  0.00  0.00    -0.204 F 
ATOM      9  O   UNL     1      35.332 -23.314 -15.976  0.00  0.00    -0.354 OA
ATOM     10  N   UNL     1      35.469 -22.764 -17.245  0.00  0.00    -0.081 NA
ATOM     11  C   UNL     1      34.227 -22.664 -17.713  0.00  0.00    +0.100 A 
ATOM     12  C   UNL     1      33.260 -23.127 -16.807  0.00  0.00    +0.054 A 
ATOM     13  C   UNL     1      34.013 -23.530 -15.718  0.00  0.00    +0.179 A 
ATOM     14  C   UNL     1      31.864 -23.259 -16.758  0.00  0.00    +0.007 C 
ATOM     15  C   UNL     1      33.479 -24.068 -14.551  0.00  0.00    +0.070 C 
ATOM     16  C   UNL     1      31.292 -23.799 -15.598  0.00  0.00    +0.030 C 
ATOM     17  C   UNL     1      32.086 -24.196 -14.516  0.00  0.00    +0.143 C 
ENDBRANCH   2  11
BRANCH   1  18
ATOM     18  C   UNL     1      33.479 -19.289 -22.316  0.00  0.00    -0.076 C 
BRANCH  18  19
ATOM     19  C   UNL     1      34.694 -18.466 -22.719  0.00  0.00    -0.007 C 
BRANCH  19  23
ATOM     20  O   UNL     1      34.741 -15.841 -21.824  0.00  0.00    -0.274 OA
ATOM     21  N   UNL     1      33.930 -14.918 -23.812  0.00  0.00    -0.211 N 
ATOM     22  N   UNL     1      33.487 -16.351 -25.654  0.00  0.00    -0.395 NA
ATOM     23  C   UNL     1      34.296 -17.325 -23.608  0.00  0.00    +0.123 C 
ATOM     24  C   UNL     1      33.881 -17.419 -24.887  0.00  0.00    +0.097 C 
ATOM     25  C   UNL     1      34.347 -15.965 -22.984  0.00  0.00    +0.241 C 
ATOM     26  C   UNL     1      33.514 -15.165 -25.126  0.00  0.00    +0.188 C 
ATOM     27  C   UNL     1      33.825 -18.726 -25.634  0.00  0.00    +0.062 C 
ATOM     28  C   UNL     1      33.084 -13.977 -25.946  0.00  0.00    +0.023 C 
ATOM     29  C   UNL     1      33.939 -13.624 -23.304  0.00  0.00    +0.074 C 
ATOM     30  C   UNL     1      33.121 -12.759 -25.386  0.00  0.00    +0.001 C 
ATOM     31  C   UNL     1      33.558 -12.572 -24.033  0.00  0.00    +0.016 C 
ATOM     32  C   UNL     1      32.633 -14.212 -27.355  0.00  0.00    +0.035 C 
ENDBRANCH  19  23
ENDBRANCH  18  19
ENDBRANCH   1  18
TORSDOF 4
ENDMDL
MODEL 4
REMARK VINA RESULT:     -13.0      1.970      2.435
REMARK  Name = 71351
REMARK  4 active torsions:
REMARK  status: ('A' for Active; 'I' for Inactive)
REMARK    1  A    between atoms: N_1  and  C_18
REMARK    2  A    between atoms: C_2  and  C_11
REMARK    3  A    between atoms: C_18  and  C_19
REMARK    4  A    between atoms: C_19  and  C_23
REMARK                            x       y       z     vdW  Elec       q    Type
REMARK                         _______ _______ _______ _____ _____    ______ ____
ROOT
ATOM      1  N   UNL     1      33.907 -19.372 -21.278  0.00  0.00    +0.387 N 
ATOM      2  C   UNL     1      33.894 -21.732 -19.536  0.00  0.00    +0.039 C 
ATOM      3  C   UNL     1      32.655 -20.843 -19.730  0.00  0.00    -0.017 C 
ATOM      4  C   UNL     1      35.169 -20.920 -19.816  0.00  0.00    -0.017 C 
ATOM      5  C   UNL     1      32.676 -20.152 -21.096  0.00  0.00    -0.077 C 
ATOM      6  C   UNL     1      35.097 -20.228 -21.179  0.00  0.00    -0.077 C 
ATOM      7  H   UNL     1      33.955 -18.680 -20.530  0.00  0.00    -0.080 HD
ENDROOT
BRANCH   2  11
ATOM      8  F   UNL     1      37.251 -23.382 -13.947  0.00  0.00    -0.204 F 
ATOM      9  O   UNL     1      33.177 -23.533 -16.498  0.00  0.00    -0.354 OA
ATOM     10  N   UNL     1      32.825 -23.024 -17.743  0.00  0.00    -0.081 NA
ATOM     11  C   UNL     1      33.920 -22.411 -18.185  0.00  0.00    +0.100 A 
ATOM     12  C   UNL     1      34.995 -22.487 -17.286  0.00  0.00    +0.054 A 
ATOM     13  C   UNL     1      34.471 -23.210 -16.228  0.00  0.00    +0.179 A 
ATOM     14  C   UNL     1      36.325 -22.049 -17.220  0.00  0.00    +0.007 C 
ATOM     15  C   UNL     1      35.181 -23.543 -15.078  0.00  0.00    +0.070 C 
ATOM     16  C   UNL     1      37.070 -22.365 -16.075  0.00  0.00    +0.030 C 
ATOM     17  C   UNL     1      36.506 -23.098 -15.025  0.00  0.00    +0.143 C 
ENDBRANCH   2  11
BRANCH   1  18
ATOM     18  C   UNL     1      33.884 -18.673 -22.564  0.00  0.00    -0.076 C 
BRANCH  18  19
ATOM     19  C   UNL     1      34.985 -17.623 -22.601  0.00  0.00    -0.007 C 
BRANCH  19  23
ATOM     20  O   UNL     1      34.194 -17.311 -25.241  0.00  0.00    -0.274 OA
ATOM     21  N   UNL     1      33.645 -15.048 -25.039  0.00  0.00    -0.211 N 
ATOM     22  N   UNL     1      33.863 -13.992 -22.923  0.00  0.00    -0.395 NA
ATOM     23  C   UNL     1      34.458 -16.315 -23.115  0.00  0.00    +0.123 C 
ATOM     24  C   UNL     1      34.312 -15.180 -22.403  0.00  0.00    +0.097 C 
ATOM     25  C   UNL     1      34.091 -16.287 -24.567  0.00  0.00    +0.241 C 
ATOM     26  C   UNL     1      33.551 -13.945 -24.183  0.00  0.00    +0.188 C 
ATOM     27  C   UNL     1      34.610 -15.097 -20.929  0.00  0.00    +0.062 C 
ATOM     28  C   UNL     1      33.058 -12.652 -24.778  0.00  0.00    +0.023 C 
ATOM     29  C   UNL     1      33.293 -14.936 -26.380  0.00  0.00    +0.074 C 
ATOM     30  C   UNL     1      32.738 -12.622 -26.080  0.00  0.00    +0.001 C 
ATOM     31  C   UNL     1      32.856 -13.789 -26.906  0.00  0.00    +0.016 C 
ATOM     32  C   UNL     1      32.948 -11.455 -23.885  0.00  0.00    +0.035 C 
ENDBRANCH  19  23
ENDBRANCH  18  19
ENDBRANCH   1  18
TORSDOF 4
ENDMDL
MODEL 5
REMARK VINA RESULT:     -12.8      4.195     10.956
REMARK  Name = 71351
REMARK  4 active torsions:
REMARK  status: ('A' for Active; 'I' for Inactive)
REMARK    1  A    between atoms: N_1  and  C_18
REMARK    2  A    between atoms: C_2  and  C_11
REMARK    3  A    between atoms: C_18  and  C_19
REMARK    4  A    between atoms: C_19  and  C_23
REMARK                            x       y       z     vdW  Elec       q    Type
REMARK                         _______ _______ _______ _____ _____    ______ ____
ROOT
ATOM      1  N   UNL     1      34.693 -18.707 -23.904  0.00  0.00    +0.387 N 
ATOM      2  C   UNL     1      33.324 -16.435 -25.157  0.00  0.00    +0.039 C 
ATOM      3  C   UNL     1      33.426 -17.812 -25.833  0.00  0.00    -0.017 C 
ATOM      4  C   UNL     1      34.483 -16.254 -24.163  0.00  0.00    -0.017 C 
ATOM      5  C   UNL     1      33.548 -18.932 -24.797  0.00  0.00    -0.077 C 
ATOM      6  C   UNL     1      34.565 -17.431 -23.187  0.00  0.00    -0.077 C 
ATOM      7  H   UNL     1      35.536 -18.662 -24.478  0.00  0.00    -0.080 HD
ENDROOT
BRANCH   2  11
ATOM      8  F   UNL     1      32.817  -9.845 -26.397  0.00  0.00    -0.204 F 
ATOM      9  O   UNL     1      33.135 -14.338 -28.081  0.00  0.00    -0.354 OA
ATOM     10  N   UNL     1      33.235 -15.575 -27.455  0.00  0.00    -0.081 NA
ATOM     11  C   UNL     1      33.228 -15.301 -26.152  0.00  0.00    +0.100 A 
ATOM     12  C   UNL     1      33.127 -13.928 -25.879  0.00  0.00    +0.054 A 
ATOM     13  C   UNL     1      33.072 -13.358 -27.139  0.00  0.00    +0.179 A 
ATOM     14  C   UNL     1      33.076 -13.096 -24.751  0.00  0.00    +0.007 C 
ATOM     15  C   UNL     1      32.967 -11.991 -27.377  0.00  0.00    +0.070 C 
ATOM     16  C   UNL     1      32.970 -11.713 -24.954  0.00  0.00    +0.030 C 
ATOM     17  C   UNL     1      32.918 -11.173 -26.244  0.00  0.00    +0.143 C 
ENDBRANCH   2  11
BRANCH   1  18
ATOM     18  C   UNL     1      34.829 -19.815 -22.958  0.00  0.00    -0.076 C 
BRANCH  18  19
ATOM     19  C   UNL     1      33.885 -19.610 -21.782  0.00  0.00    -0.007 C 
BRANCH  19  23
ATOM     20  O   UNL     1      32.192 -21.298 -20.375  0.00  0.00    -0.274 OA
ATOM     21  N   UNL     1      33.772 -21.893 -18.759  0.00  0.00    -0.211 N 
ATOM     22  N   UNL     1      35.974 -21.018 -18.920  0.00  0.00    -0.395 NA
ATOM     23  C   UNL     1      34.357 -20.372 -20.579  0.00  0.00    +0.123 C 
ATOM     24  C   UNL     1      35.595 -20.335 -20.048  0.00  0.00    +0.097 C 
ATOM     25  C   UNL     1      33.328 -21.227 -19.905  0.00  0.00    +0.241 C 
ATOM     26  C   UNL     1      35.093 -21.755 -18.315  0.00  0.00    +0.188 C 
ATOM     27  C   UNL     1      36.722 -19.544 -20.659  0.00  0.00    +0.062 C 
ATOM     28  C   UNL     1      35.485 -22.513 -17.073  0.00  0.00    +0.023 C 
ATOM     29  C   UNL     1      32.875 -22.701 -18.069  0.00  0.00    +0.074 C 
ATOM     30  C   UNL     1      34.563 -23.272 -16.463  0.00  0.00    +0.001 C 
ATOM     31  C   UNL     1      33.224 -23.372 -16.968  0.00  0.00    +0.016 C 
ATOM     32  C   UNL     1      36.891 -22.383 -16.575  0.00  0.00    +0.035 C 
ENDBRANCH  19  23
ENDBRANCH  18  19
ENDBRANCH   1  18
TORSDOF 4
ENDMDL
MODEL 6
REMARK VINA RESULT:     -12.8      3.402      6.025
REMARK  Name = 71351
REMARK  4 active torsions:
REMARK  status: ('A' for Active; 'I' for Inactive)
REMARK    1  A    between atoms: N_1  and  C_18
REMARK    2  A    between atoms: C_2  and  C_11
REMARK    3  A    between atoms: C_18  and  C_19
REMARK    4  A    between atoms: C_19  and  C_23
REMARK                            x       y       z     vdW  Elec       q    Type
REMARK                         _______ _______ _______ _____ _____    ______ ____
ROOT
ATOM      1  N   UNL     1      34.632 -14.752 -22.994  0.00  0.00    +0.387 N 
ATOM      2  C   UNL     1      34.406 -17.378 -21.704  0.00  0.00    +0.039 C 
ATOM      3  C   UNL     1      34.727 -16.096 -20.917  0.00  0.00    -0.017 C 
ATOM      4  C   UNL     1      34.841 -17.213 -23.169  0.00  0.00    -0.017 C 
ATOM      5  C   UNL     1      34.149 -14.860 -21.610  0.00  0.00    -0.077 C 
ATOM      6  C   UNL     1      34.257 -15.935 -23.780  0.00  0.00    -0.077 C 
ATOM      7  H   UNL     1      35.651 -14.701 -22.969  0.00  0.00    -0.080 HD
ENDROOT
BRANCH   2  11
ATOM      8  F   UNL     1      33.473 -23.412 -18.886  0.00  0.00    -0.204 F 
ATOM      9  O   UNL     1      36.500 -19.952 -20.297  0.00  0.00    -0.354 OA
ATOM     10  N   UNL     1      36.303 -18.718 -20.906  0.00  0.00    -0.081 NA
ATOM     11  C   UNL     1      34.985 -18.618 -21.061  0.00  0.00    +0.100 A 
ATOM     12  C   UNL     1      34.288 -19.737 -20.581  0.00  0.00    +0.054 A 
ATOM     13  C   UNL     1      35.296 -20.558 -20.105  0.00  0.00    +0.179 A 
ATOM     14  C   UNL     1      32.956 -20.167 -20.483  0.00  0.00    +0.007 C 
ATOM     15  C   UNL     1      35.085 -21.804 -19.524  0.00  0.00    +0.070 C 
ATOM     16  C   UNL     1      32.706 -21.419 -19.903  0.00  0.00    +0.030 C 
ATOM     17  C   UNL     1      33.752 -22.221 -19.434  0.00  0.00    +0.143 C 
ENDBRANCH   2  11
BRANCH   1  18
ATOM     18  C   UNL     1      34.116 -13.536 -23.622  0.00  0.00    -0.076 C 
BRANCH  18  19
ATOM     19  C   UNL     1      32.647 -13.354 -23.269  0.00  0.00    -0.007 C 
BRANCH  19  23
ATOM     20  O   UNL     1      33.103 -11.093 -24.811  0.00  0.00    -0.274 OA
ATOM     21  N   UNL     1      32.506  -9.568 -23.144  0.00  0.00    -0.211 N 
ATOM     22  N   UNL     1      31.757 -10.387 -21.045  0.00  0.00    -0.395 NA
ATOM     23  C   UNL     1      32.392 -11.974 -22.737  0.00  0.00    +0.123 C 
ATOM     24  C   UNL     1      31.938 -11.667 -21.506  0.00  0.00    +0.097 C 
ATOM     25  C   UNL     1      32.705 -10.847 -23.672  0.00  0.00    +0.241 C 
ATOM     26  C   UNL     1      32.034  -9.397 -21.837  0.00  0.00    +0.188 C 
ATOM     27  C   UNL     1      31.552 -12.713 -20.493  0.00  0.00    +0.062 C 
ATOM     28  C   UNL     1      31.846  -7.983 -21.353  0.00  0.00    +0.023 C 
ATOM     29  C   UNL     1      32.782  -8.466 -23.947  0.00  0.00    +0.074 C 
ATOM     30  C   UNL     1      32.134  -6.972 -22.186  0.00  0.00    +0.001 C 
ATOM     31  C   UNL     1      32.614  -7.214 -23.516  0.00  0.00    +0.016 C 
ATOM     32  C   UNL     1      31.343  -7.770 -19.958  0.00  0.00    +0.035 C 
ENDBRANCH  19  23
ENDBRANCH  18  19
ENDBRANCH   1  18
TORSDOF 4
ENDMDL
MODEL 7
REMARK VINA RESULT:     -12.8      1.637      2.263
REMARK  Name = 71351
REMARK  4 active torsions:
REMARK  status: ('A' for Active; 'I' for Inactive)
REMARK    1  A    between atoms: N_1  and  C_18
REMARK    2  A    between atoms: C_2  and  C_11
REMARK    3  A    between atoms: C_18  and  C_19
REMARK    4  A    between atoms: C_19  and  C_23
REMARK                            x       y       z     vdW  Elec       q    Type
REMARK                         _______ _______ _______ _____ _____    ______ ____
ROOT
ATOM      1  N   UNL     1      33.979 -18.758 -22.294  0.00  0.00    +0.387 N 
ATOM      2  C   UNL     1      34.771 -20.878 -20.429  0.00  0.00    +0.039 C 
ATOM      3  C   UNL     1      33.362 -20.261 -20.427  0.00  0.00    -0.017 C 
ATOM      4  C   UNL     1      35.779 -19.877 -21.016  0.00  0.00    -0.017 C 
ATOM      5  C   UNL     1      32.988 -19.729 -21.813  0.00  0.00    -0.077 C 
ATOM      6  C   UNL     1      35.315 -19.360 -22.381  0.00  0.00    -0.077 C 
ATOM      7  H   UNL     1      34.022 -17.992 -21.621  0.00  0.00    -0.080 HD
ENDROOT
BRANCH   2  11
ATOM      8  F   UNL     1      33.304 -24.343 -14.854  0.00  0.00    -0.204 F 
ATOM      9  O   UNL     1      36.460 -21.715 -17.357  0.00  0.00    -0.354 OA
ATOM     10  N   UNL     1      36.399 -21.107 -18.606  0.00  0.00    -0.081 NA
ATOM     11  C   UNL     1      35.184 -21.392 -19.068  0.00  0.00    +0.100 A 
ATOM     12  C   UNL     1      34.426 -22.169 -18.179  0.00  0.00    +0.054 A 
ATOM     13  C   UNL     1      35.281 -22.349 -17.106  0.00  0.00    +0.179 A 
ATOM     14  C   UNL     1      33.146 -22.740 -18.134  0.00  0.00    +0.007 C 
ATOM     15  C   UNL     1      34.961 -23.069 -15.960  0.00  0.00    +0.070 C 
ATOM     16  C   UNL     1      32.789 -23.474 -16.993  0.00  0.00    +0.030 C 
ATOM     17  C   UNL     1      33.682 -23.634 -15.928  0.00  0.00    +0.143 C 
ENDBRANCH   2  11
BRANCH   1  18
ATOM     18  C   UNL     1      33.576 -18.217 -23.593  0.00  0.00    -0.076 C 
BRANCH  18  19
ATOM     19  C   UNL     1      34.689 -17.347 -24.159  0.00  0.00    -0.007 C 
BRANCH  19  23
ATOM     20  O   UNL     1      33.745 -16.596 -26.657  0.00  0.00    -0.274 OA
ATOM     21  N   UNL     1      33.324 -14.373 -26.072  0.00  0.00    -0.211 N 
ATOM     22  N   UNL     1      33.730 -13.670 -23.840  0.00  0.00    -0.395 NA
ATOM     23  C   UNL     1      34.196 -15.955 -24.427  0.00  0.00    +0.123 C 
ATOM     24  C   UNL     1      34.152 -14.941 -23.542  0.00  0.00    +0.097 C 
ATOM     25  C   UNL     1      33.738 -15.686 -25.828  0.00  0.00    +0.241 C 
ATOM     26  C   UNL     1      33.341 -13.414 -25.052  0.00  0.00    +0.188 C 
ATOM     27  C   UNL     1      34.549 -15.100 -22.097  0.00  0.00    +0.062 C 
ATOM     28  C   UNL     1      32.875 -12.026 -25.405  0.00  0.00    +0.023 C 
ATOM     29  C   UNL     1      32.892 -14.039 -27.351  0.00  0.00    +0.074 C 
ATOM     30  C   UNL     1      32.473 -11.780 -26.661  0.00  0.00    +0.001 C 
ATOM     31  C   UNL     1      32.479 -12.807 -27.662  0.00  0.00    +0.016 C 
ATOM     32  C   UNL     1      32.883 -10.979 -24.334  0.00  0.00    +0.035 C 
ENDBRANCH  19  23
ENDBRANCH  18  19
ENDBRANCH   1  18
TORSDOF 4
ENDMDL
MODEL 8
REMARK VINA RESULT:     -12.7      2.073      3.053
REMARK  Name = 71351
REMARK  4 active torsions:
REMARK  status: ('A' for Active; 'I' for Inactive)
REMARK    1  A    between atoms: N_1  and  C_18
REMARK    2  A    between atoms: C_2  and  C_11
REMARK    3  A    between atoms: C_18  and  C_19
REMARK    4  A    between atoms: C_19  and  C_23
REMARK                            x       y       z     vdW  Elec       q    Type
REMARK                         _______ _______ _______ _____ _____    ______ ____
ROOT
ATOM      1  N   UNL     1      33.817 -19.780 -21.008  0.00  0.00    +0.387 N 
ATOM      2  C   UNL     1      33.814 -22.038 -19.135  0.00  0.00    +0.039 C 
ATOM      3  C   UNL     1      32.587 -21.135 -19.341  0.00  0.00    -0.017 C 
ATOM      4  C   UNL     1      35.095 -21.269 -19.499  0.00  0.00    -0.017 C 
ATOM      5  C   UNL     1      32.578 -20.523 -20.744  0.00  0.00    -0.077 C 
ATOM      6  C   UNL     1      34.993 -20.653 -20.897  0.00  0.00    -0.077 C 
ATOM      7  H   UNL     1      33.901 -19.048 -20.303  0.00  0.00    -0.080 HD
ENDROOT
BRANCH   2  11
ATOM      8  F   UNL     1      37.316 -23.450 -13.570  0.00  0.00    -0.204 F 
ATOM      9  O   UNL     1      33.158 -23.648 -15.978  0.00  0.00    -0.354 OA
ATOM     10  N   UNL     1      32.777 -23.202 -17.238  0.00  0.00    -0.081 NA
ATOM     11  C   UNL     1      33.870 -22.640 -17.750  0.00  0.00    +0.100 A 
ATOM     12  C   UNL     1      34.971 -22.691 -16.882  0.00  0.00    +0.054 A 
ATOM     13  C   UNL     1      34.468 -23.341 -15.768  0.00  0.00    +0.179 A 
ATOM     14  C   UNL     1      36.313 -22.281 -16.883  0.00  0.00    +0.007 C 
ATOM     15  C   UNL     1      35.207 -23.625 -14.624  0.00  0.00    +0.070 C 
ATOM     16  C   UNL     1      37.088 -22.551 -15.746  0.00  0.00    +0.030 C 
ATOM     17  C   UNL     1      36.543 -23.210 -14.639  0.00  0.00    +0.143 C 
ENDBRANCH   2  11
BRANCH   1  18
ATOM     18  C   UNL     1      33.767 -19.154 -22.330  0.00  0.00    -0.076 C 
BRANCH  18  19
ATOM     19  C   UNL     1      34.813 -18.053 -22.421  0.00  0.00    -0.007 C 
BRANCH  19  23
ATOM     20  O   UNL     1      34.733 -15.389 -21.652  0.00  0.00    -0.274 OA
ATOM     21  N   UNL     1      33.901 -14.599 -23.688  0.00  0.00    -0.211 N 
ATOM     22  N   UNL     1      33.542 -16.136 -25.463  0.00  0.00    -0.395 NA
ATOM     23  C   UNL     1      34.373 -16.974 -23.367  0.00  0.00    +0.123 C 
ATOM     24  C   UNL     1      33.976 -17.147 -24.643  0.00  0.00    +0.097 C 
ATOM     25  C   UNL     1      34.357 -15.585 -22.808  0.00  0.00    +0.241 C 
ATOM     26  C   UNL     1      33.510 -14.926 -24.992  0.00  0.00    +0.188 C 
ATOM     27  C   UNL     1      33.986 -18.490 -25.326  0.00  0.00    +0.062 C 
ATOM     28  C   UNL     1      33.036 -13.799 -25.872  0.00  0.00    +0.023 C 
ATOM     29  C   UNL     1      33.847 -13.283 -23.242  0.00  0.00    +0.074 C 
ATOM     30  C   UNL     1      33.012 -12.556 -25.370  0.00  0.00    +0.001 C 
ATOM     31  C   UNL     1      33.427 -12.285 -24.024  0.00  0.00    +0.016 C 
ATOM     32  C   UNL     1      32.610 -14.121 -27.271  0.00  0.00    +0.035 C 
ENDBRANCH  19  23
ENDBRANCH  18  19
ENDBRANCH   1  18
TORSDOF 4
ENDMDL
MODEL 9
REMARK VINA RESULT:     -12.7      3.171      5.913
REMARK  Name = 71351
REMARK  4 active torsions:
REMARK  status: ('A' for Active; 'I' for Inactive)
REMARK    1  A    between atoms: N_1  and  C_18
REMARK    2  A    between atoms: C_2  and  C_11
REMARK    3  A    between atoms: C_18  and  C_19
REMARK    4  A    between atoms: C_19  and  C_23
REMARK                            x       y       z     vdW  Elec       q    Type
REMARK                         _______ _______ _______ _____ _____    ______ ____
ROOT
ATOM      1  N   UNL     1      33.834 -16.090 -24.544  0.00  0.00    +0.387 N 
ATOM      2  C   UNL     1      35.409 -17.806 -22.760  0.00  0.00    +0.039 C 
ATOM      3  C   UNL     1      34.682 -18.351 -24.000  0.00  0.00    -0.017 C 
ATOM      4  C   UNL     1      34.718 -16.522 -22.273  0.00  0.00    -0.017 C 
ATOM      5  C   UNL     1      34.529 -17.271 -25.074  0.00  0.00    -0.077 C 
ATOM      6  C   UNL     1      34.565 -15.509 -23.411  0.00  0.00    -0.077 C 
ATOM      7  H   UNL     1      32.918 -16.389 -24.209  0.00  0.00    -0.080 HD
ENDROOT
BRANCH   2  11
ATOM      8  F   UNL     1      32.605 -22.366 -18.689  0.00  0.00    -0.204 F 
ATOM      9  O   UNL     1      36.551 -20.065 -20.195  0.00  0.00    -0.354 OA
ATOM     10  N   UNL     1      36.760 -19.084 -21.157  0.00  0.00    -0.081 NA
ATOM     11  C   UNL     1      35.555 -18.840 -21.667  0.00  0.00    +0.100 A 
ATOM     12  C   UNL     1      34.544 -19.620 -21.085  0.00  0.00    +0.054 A 
ATOM     13  C   UNL     1      35.228 -20.383 -20.155  0.00  0.00    +0.179 A 
ATOM     14  C   UNL     1      33.157 -19.784 -21.215  0.00  0.00    +0.007 C 
ATOM     15  C   UNL     1      34.631 -21.323 -19.320  0.00  0.00    +0.070 C 
ATOM     16  C   UNL     1      32.522 -20.723 -20.389  0.00  0.00    +0.030 C 
ATOM     17  C   UNL     1      33.248 -21.478 -19.461  0.00  0.00    +0.143 C 
ENDBRANCH   2  11
BRANCH   1  18
ATOM     18  C   UNL     1      33.646 -15.093 -25.598  0.00  0.00    -0.076 C 
BRANCH  18  19
ATOM     19  C   UNL     1      32.604 -14.072 -25.164  0.00  0.00    -0.007 C 
BRANCH  19  23
ATOM     20  O   UNL     1      32.619 -12.249 -23.073  0.00  0.00    -0.274 OA
ATOM     21  N   UNL     1      33.484 -10.480 -24.332  0.00  0.00    -0.211 N 
ATOM     22  N   UNL     1      34.032 -10.847 -26.613  0.00  0.00    -0.395 NA
ATOM     23  C   UNL     1      33.118 -12.674 -25.344  0.00  0.00    +0.123 C 
ATOM     24  C   UNL     1      33.608 -12.145 -26.482  0.00  0.00    +0.097 C 
ATOM     25  C   UNL     1      33.043 -11.793 -24.135  0.00  0.00    +0.241 C 
ATOM     26  C   UNL     1      33.963 -10.064 -25.579  0.00  0.00    +0.188 C 
ATOM     27  C   UNL     1      33.769 -12.943 -27.750  0.00  0.00    +0.062 C 
ATOM     28  C   UNL     1      34.420  -8.634 -25.699  0.00  0.00    +0.023 C 
ATOM     29  C   UNL     1      33.438  -9.595 -23.260  0.00  0.00    +0.074 C 
ATOM     30  C   UNL     1      34.345  -7.840 -24.621  0.00  0.00    +0.001 C 
ATOM     31  C   UNL     1      33.844  -8.327 -23.368  0.00  0.00    +0.016 C 
ATOM     32  C   UNL     1      34.937  -8.161 -27.023  0.00  0.00    +0.035 C 
ENDBRANCH  19  23
ENDBRANCH  18  19
ENDBRANCH   1  18
TORSDOF 4
ENDMDL
