MODEL 1
REMARK VINA RESULT:     -12.5      0.000      0.000
REMARK  Name = 11961293
REMARK  7 active torsions:
REMARK  status: ('A' for Active; 'I' for Inactive)
REMARK    1  A    between atoms: C_1  and  C_3
REMARK    2  A    between atoms: C_1  and  N_21
REMARK    3  A    between atoms: N_2  and  C_9
REMARK    4  A    between atoms: C_9  and  C_12
REMARK    5  A    between atoms: C_17  and  O_18
REMARK    6  A    between atoms: C_22  and  C_26
REMARK    7  A    between atoms: C_30  and  C_35
REMARK                            x       y       z     vdW  Elec       q    Type
REMARK                         _______ _______ _______ _____ _____    ______ ____
ROOT
ATOM      1  C   UNL     1      34.882 -20.376 -21.199  0.00  0.00    +0.089 C 
ENDROOT
BRANCH   1   3
ATOM      2  N   UNL     1      34.162 -22.926 -17.788  0.00  0.00    +0.387 N 
ATOM      3  C   UNL     1      34.535 -20.803 -19.776  0.00  0.00    +0.015 C 
ATOM      4  C   UNL     1      35.338 -22.050 -17.726  0.00  0.00    -0.077 C 
ATOM      5  C   UNL     1      33.002 -22.218 -18.347  0.00  0.00    -0.077 C 
ATOM      6  C   UNL     1      35.713 -21.530 -19.116  0.00  0.00    -0.021 C 
ATOM      7  C   UNL     1      33.297 -21.705 -19.758  0.00  0.00    -0.021 C 
ATOM      8  H   UNL     1      34.382 -23.706 -18.407  0.00  0.00    -0.080 HD
BRANCH   2   9
ATOM      9  C   UNL     1      33.847 -23.455 -16.460  0.00  0.00    -0.077 C 
BRANCH   9  12
ATOM     10  O   UNL     1      36.616 -26.638 -11.874  0.00  0.00    -0.226 OA
ATOM     11  N   UNL     1      36.492 -24.870 -13.377  0.00  0.00    -0.246 N 
ATOM     12  C   UNL     1      35.120 -23.845 -15.714  0.00  0.00    -0.017 C 
ATOM     13  C   UNL     1      35.112 -25.341 -15.362  0.00  0.00    +0.020 C 
ATOM     14  C   UNL     1      35.286 -23.001 -14.440  0.00  0.00    +0.020 C 
ATOM     15  C   UNL     1      36.348 -25.726 -14.554  0.00  0.00    +0.097 C 
ATOM     16  C   UNL     1      36.521 -23.428 -13.649  0.00  0.00    +0.097 C 
ATOM     17  C   UNL     1      36.639 -25.431 -12.106  0.00  0.00    +0.405 C 
BRANCH  17  18
ATOM     18  O   UNL     1      36.816 -24.486 -11.129  0.00  0.00    -0.430 OA
ATOM     19  C   UNL     1      35.632 -24.048 -10.452  0.00  0.00    +0.257 C 
ENDBRANCH  17  18
ENDBRANCH   9  12
ENDBRANCH   2   9
ENDBRANCH   1   3
BRANCH   1  21
ATOM     20  O   UNL     1      35.519 -18.813 -23.521  0.00  0.00    -0.270 OA
ATOM     21  N   UNL     1      34.584 -18.967 -21.406  0.00  0.00    -0.301 N 
ATOM     22  C   UNL     1      34.935 -18.306 -22.566  0.00  0.00    +0.247 C 
ATOM     23  H   UNL     1      34.116 -18.470 -20.697  0.00  0.00    +0.150 HD
BRANCH  22  26
ATOM     24  N   UNL     1      33.117 -14.647 -25.055  0.00  0.00    -0.318 N 
ATOM     25  N   UNL     1      33.655 -16.802 -24.968  0.00  0.00    -0.318 N 
ATOM     26  C   UNL     1      34.583 -16.864 -22.614  0.00  0.00    +0.068 C 
ATOM     27  C   UNL     1      34.008 -16.286 -23.747  0.00  0.00    +0.063 C 
ATOM     28  C   UNL     1      34.809 -16.019 -21.522  0.00  0.00    +0.006 C 
ATOM     29  C   UNL     1      33.661 -14.940 -23.826  0.00  0.00    +0.059 C 
ATOM     30  C   UNL     1      33.128 -15.785 -25.713  0.00  0.00    +0.144 C 
ATOM     31  C   UNL     1      34.472 -14.664 -21.572  0.00  0.00    +0.001 C 
ATOM     32  C   UNL     1      33.896 -14.106 -22.720  0.00  0.00    +0.016 C 
ATOM     33  H   UNL     1      32.789 -13.775 -25.373  0.00  0.00    +0.148 HD
ATOM     34  H   UNL     1      33.762 -17.738 -25.255  0.00  0.00    +0.148 HD
BRANCH  30  35
ATOM     35  C   UNL     1      32.619 -15.903 -27.092  0.00  0.00    +0.037 C 
ATOM     36  C   UNL     1      31.571 -17.029 -27.263  0.00  0.00    +0.003 C 
ATOM     37  C   UNL     1      32.038 -14.578 -27.644  0.00  0.00    +0.003 C 
ENDBRANCH  30  35
ENDBRANCH  22  26
ENDBRANCH   1  21
TORSDOF 7
ENDMDL
MODEL 2
REMARK VINA RESULT:     -12.3      2.636     12.531
REMARK  Name = 11961293
REMARK  7 active torsions:
REMARK  status: ('A' for Active; 'I' for Inactive)
REMARK    1  A    between atoms: C_1  and  C_3
REMARK    2  A    between atoms: C_1  and  N_21
REMARK    3  A    between atoms: N_2  and  C_9
REMARK    4  A    between atoms: C_9  and  C_12
REMARK    5  A    between atoms: C_17  and  O_18
REMARK    6  A    between atoms: C_22  and  C_26
REMARK    7  A    between atoms: C_30  and  C_35
REMARK                            x       y       z     vdW  Elec       q    Type
REMARK                         _______ _______ _______ _____ _____    ______ ____
ROOT
ATOM      1  C   UNL     1      34.581 -22.220 -19.479  0.00  0.00    +0.089 C 
ENDROOT
BRANCH   1   3
ATOM      2  N   UNL     1      35.359 -18.740 -21.916  0.00  0.00    +0.387 N 
ATOM      3  C   UNL     1      34.811 -20.762 -19.864  0.00  0.00    +0.015 C 
ATOM      4  C   UNL     1      34.022 -18.847 -21.317  0.00  0.00    -0.077 C 
ATOM      5  C   UNL     1      36.402 -19.128 -20.957  0.00  0.00    -0.077 C 
ATOM      6  C   UNL     1      33.741 -20.277 -20.849  0.00  0.00    -0.021 C 
ATOM      7  C   UNL     1      36.202 -20.568 -20.476  0.00  0.00    -0.021 C 
ATOM      8  H   UNL     1      35.403 -19.384 -22.706  0.00  0.00    -0.080 HD
BRANCH   2   9
ATOM      9  C   UNL     1      35.594 -17.381 -22.405  0.00  0.00    -0.077 C 
BRANCH   9  12
ATOM     10  O   UNL     1      33.098 -15.613 -27.834  0.00  0.00    -0.226 OA
ATOM     11  N   UNL     1      33.223 -15.587 -25.513  0.00  0.00    -0.246 N 
ATOM     12  C   UNL     1      34.390 -16.872 -23.194  0.00  0.00    -0.017 C 
ATOM     13  C   UNL     1      34.280 -17.591 -24.548  0.00  0.00    +0.020 C 
ATOM     14  C   UNL     1      34.481 -15.352 -23.407  0.00  0.00    +0.020 C 
ATOM     15  C   UNL     1      33.122 -17.039 -25.374  0.00  0.00    +0.097 C 
ATOM     16  C   UNL     1      33.318 -14.840 -24.254  0.00  0.00    +0.097 C 
ATOM     17  C   UNL     1      33.178 -14.991 -26.776  0.00  0.00    +0.405 C 
BRANCH  17  18
ATOM     18  O   UNL     1      33.231 -13.623 -26.717  0.00  0.00    -0.430 OA
ATOM     19  C   UNL     1      32.176 -12.921 -27.385  0.00  0.00    +0.257 C 
ENDBRANCH  17  18
ENDBRANCH   9  12
ENDBRANCH   2   9
ENDBRANCH   1   3
BRANCH   1  21
ATOM     20  O   UNL     1      33.082 -24.455 -18.477  0.00  0.00    -0.270 OA
ATOM     21  N   UNL     1      33.930 -22.319 -18.181  0.00  0.00    -0.301 N 
ATOM     22  C   UNL     1      33.230 -23.444 -17.795  0.00  0.00    +0.247 C 
ATOM     23  H   UNL     1      33.991 -21.558 -17.558  0.00  0.00    +0.150 HD
BRANCH  22  26
ATOM     24  N   UNL     1      33.754 -23.727 -13.048  0.00  0.00    -0.318 N 
ATOM     25  N   UNL     1      34.675 -23.827 -15.068  0.00  0.00    -0.318 N 
ATOM     26  C   UNL     1      32.603 -23.378 -16.450  0.00  0.00    +0.068 C 
ATOM     27  C   UNL     1      33.347 -23.565 -15.283  0.00  0.00    +0.063 C 
ATOM     28  C   UNL     1      31.237 -23.123 -16.292  0.00  0.00    +0.006 C 
ATOM     29  C   UNL     1      32.793 -23.506 -14.007  0.00  0.00    +0.059 C 
ATOM     30  C   UNL     1      34.869 -23.916 -13.718  0.00  0.00    +0.144 C 
ATOM     31  C   UNL     1      30.653 -23.059 -15.024  0.00  0.00    +0.001 C 
ATOM     32  C   UNL     1      31.419 -23.249 -13.867  0.00  0.00    +0.016 C 
ATOM     33  H   UNL     1      33.633 -23.741 -12.071  0.00  0.00    +0.148 HD
ATOM     34  H   UNL     1      35.365 -23.933 -15.762  0.00  0.00    +0.148 HD
BRANCH  30  35
ATOM     35  C   UNL     1      36.154 -24.186 -13.049  0.00  0.00    +0.037 C 
ATOM     36  C   UNL     1      36.230 -23.607 -11.615  0.00  0.00    +0.003 C 
ATOM     37  C   UNL     1      36.519 -25.690 -13.010  0.00  0.00    +0.003 C 
ENDBRANCH  30  35
ENDBRANCH  22  26
ENDBRANCH   1  21
TORSDOF 7
ENDMDL
MODEL 3
REMARK VINA RESULT:     -12.2      2.711      4.182
REMARK  Name = 11961293
REMARK  7 active torsions:
REMARK  status: ('A' for Active; 'I' for Inactive)
REMARK    1  A    between atoms: C_1  and  C_3
REMARK    2  A    between atoms: C_1  and  N_21
REMARK    3  A    between atoms: N_2  and  C_9
REMARK    4  A    between atoms: C_9  and  C_12
REMARK    5  A    between atoms: C_17  and  O_18
REMARK    6  A    between atoms: C_22  and  C_26
REMARK    7  A    between atoms: C_30  and  C_35
REMARK                            x       y       z     vdW  Elec       q    Type
REMARK                         _______ _______ _______ _____ _____    ______ ____
ROOT
ATOM      1  C   UNL     1      34.682 -18.595 -21.922  0.00  0.00    +0.089 C 
ENDROOT
BRANCH   1   3
ATOM      2  N   UNL     1      33.941 -21.720 -19.035  0.00  0.00    +0.387 N 
ATOM      3  C   UNL     1      34.437 -19.986 -21.347  0.00  0.00    +0.015 C 
ATOM      4  C   UNL     1      32.862 -21.424 -19.986  0.00  0.00    -0.077 C 
ATOM      5  C   UNL     1      35.249 -21.727 -19.703  0.00  0.00    -0.077 C 
ATOM      6  C   UNL     1      33.072 -20.062 -20.653  0.00  0.00    -0.021 C 
ATOM      7  C   UNL     1      35.541 -20.376 -20.359  0.00  0.00    -0.021 C 
ATOM      8  H   UNL     1      33.951 -20.982 -18.331  0.00  0.00    -0.080 HD
BRANCH   2   9
ATOM      9  C   UNL     1      33.699 -23.000 -18.369  0.00  0.00    -0.077 C 
BRANCH   9  12
ATOM     10  O   UNL     1      31.503 -25.387 -13.048  0.00  0.00    -0.226 OA
ATOM     11  N   UNL     1      31.603 -23.742 -14.687  0.00  0.00    -0.246 N 
ATOM     12  C   UNL     1      33.075 -22.788 -16.992  0.00  0.00    -0.017 C 
ATOM     13  C   UNL     1      33.716 -23.719 -15.951  0.00  0.00    +0.020 C 
ATOM     14  C   UNL     1      31.555 -23.013 -17.041  0.00  0.00    +0.020 C 
ATOM     15  C   UNL     1      33.051 -23.564 -14.587  0.00  0.00    +0.097 C 
ATOM     16  C   UNL     1      30.928 -22.870 -15.655  0.00  0.00    +0.097 C 
ATOM     17  C   UNL     1      30.941 -24.655 -13.862  0.00  0.00    +0.405 C 
BRANCH  17  18
ATOM     18  O   UNL     1      29.585 -24.652 -14.051  0.00  0.00    -0.430 OA
ATOM     19  C   UNL     1      29.068 -25.652 -14.939  0.00  0.00    +0.257 C 
ENDBRANCH  17  18
ENDBRANCH   9  12
ENDBRANCH   2   9
ENDBRANCH   1   3
BRANCH   1  21
ATOM     20  O   UNL     1      35.078 -16.554 -23.903  0.00  0.00    -0.270 OA
ATOM     21  N   UNL     1      33.883 -18.378 -23.119  0.00  0.00    -0.301 N 
ATOM     22  C   UNL     1      34.160 -17.362 -24.012  0.00  0.00    +0.247 C 
ATOM     23  H   UNL     1      33.121 -18.976 -23.298  0.00  0.00    +0.150 HD
BRANCH  22  26
ATOM     24  N   UNL     1      32.003 -14.580 -27.252  0.00  0.00    -0.318 N 
ATOM     25  N   UNL     1      33.379 -14.755 -25.516  0.00  0.00    -0.318 N 
ATOM     26  C   UNL     1      33.235 -17.258 -25.170  0.00  0.00    +0.068 C 
ATOM     27  C   UNL     1      32.953 -16.032 -25.775  0.00  0.00    +0.063 C 
ATOM     28  C   UNL     1      32.608 -18.385 -25.709  0.00  0.00    +0.006 C 
ATOM     29  C   UNL     1      32.096 -15.897 -26.864  0.00  0.00    +0.059 C 
ATOM     30  C   UNL     1      32.785 -13.924 -26.423  0.00  0.00    +0.144 C 
ATOM     31  C   UNL     1      31.742 -18.281 -26.801  0.00  0.00    +0.001 C 
ATOM     32  C   UNL     1      31.473 -17.040 -27.392  0.00  0.00    +0.016 C 
ATOM     33  H   UNL     1      31.468 -14.209 -27.990  0.00  0.00    +0.148 HD
ATOM     34  H   UNL     1      34.003 -14.485 -24.802  0.00  0.00    +0.148 HD
BRANCH  30  35
ATOM     35  C   UNL     1      32.969 -12.463 -26.503  0.00  0.00    +0.037 C 
ATOM     36  C   UNL     1      33.312 -11.815 -25.140  0.00  0.00    +0.003 C 
ATOM     37  C   UNL     1      34.027 -12.037 -27.550  0.00  0.00    +0.003 C 
ENDBRANCH  30  35
ENDBRANCH  22  26
ENDBRANCH   1  21
TORSDOF 7
ENDMDL
MODEL 4
REMARK VINA RESULT:     -12.2      1.757      3.296
REMARK  Name = 11961293
REMARK  7 active torsions:
REMARK  status: ('A' for Active; 'I' for Inactive)
REMARK    1  A    between atoms: C_1  and  C_3
REMARK    2  A    between atoms: C_1  and  N_21
REMARK    3  A    between atoms: N_2  and  C_9
REMARK    4  A    between atoms: C_9  and  C_12
REMARK    5  A    between atoms: C_17  and  O_18
REMARK    6  A    between atoms: C_22  and  C_26
REMARK    7  A    between atoms: C_30  and  C_35
REMARK                            x       y       z     vdW  Elec       q    Type
REMARK                         _______ _______ _______ _____ _____    ______ ____
ROOT
ATOM      1  C   UNL     1      34.647 -18.469 -22.023  0.00  0.00    +0.089 C 
ENDROOT
BRANCH   1   3
ATOM      2  N   UNL     1      34.089 -21.527 -19.024  0.00  0.00    +0.387 N 
ATOM      3  C   UNL     1      34.420 -19.844 -21.403  0.00  0.00    +0.015 C 
ATOM      4  C   UNL     1      32.938 -21.218 -19.882  0.00  0.00    -0.077 C 
ATOM      5  C   UNL     1      35.332 -21.579 -19.805  0.00  0.00    -0.077 C 
ATOM      6  C   UNL     1      33.121 -19.873 -20.589  0.00  0.00    -0.021 C 
ATOM      7  C   UNL     1      35.598 -20.246 -20.509  0.00  0.00    -0.021 C 
ATOM      8  H   UNL     1      34.181 -20.778 -18.338  0.00  0.00    -0.080 HD
BRANCH   2   9
ATOM      9  C   UNL     1      33.876 -22.789 -18.316  0.00  0.00    -0.077 C 
BRANCH   9  12
ATOM     10  O   UNL     1      38.097 -24.290 -13.984  0.00  0.00    -0.226 OA
ATOM     11  N   UNL     1      35.962 -23.668 -14.658  0.00  0.00    -0.246 N 
ATOM     12  C   UNL     1      34.372 -22.694 -16.875  0.00  0.00    -0.017 C 
ATOM     13  C   UNL     1      35.897 -22.513 -16.831  0.00  0.00    +0.020 C 
ATOM     14  C   UNL     1      33.963 -23.941 -16.074  0.00  0.00    +0.020 C 
ATOM     15  C   UNL     1      36.410 -22.487 -15.395  0.00  0.00    +0.097 C 
ATOM     16  C   UNL     1      34.512 -23.890 -14.649  0.00  0.00    +0.097 C 
ATOM     17  C   UNL     1      36.881 -24.473 -13.981  0.00  0.00    +0.405 C 
BRANCH  17  18
ATOM     18  O   UNL     1      36.283 -25.501 -13.301  0.00  0.00    -0.430 OA
ATOM     19  C   UNL     1      37.055 -26.097 -12.251  0.00  0.00    +0.257 C 
ENDBRANCH  17  18
ENDBRANCH   9  12
ENDBRANCH   2   9
ENDBRANCH   1   3
BRANCH   1  21
ATOM     20  O   UNL     1      34.960 -16.426 -24.017  0.00  0.00    -0.270 OA
ATOM     21  N   UNL     1      33.855 -18.307 -23.233  0.00  0.00    -0.301 N 
ATOM     22  C   UNL     1      34.089 -17.285 -24.132  0.00  0.00    +0.247 C 
ATOM     23  H   UNL     1      33.129 -18.947 -23.417  0.00  0.00    +0.150 HD
BRANCH  22  26
ATOM     24  N   UNL     1      32.000 -14.683 -27.560  0.00  0.00    -0.318 N 
ATOM     25  N   UNL     1      33.357 -14.766 -25.802  0.00  0.00    -0.318 N 
ATOM     26  C   UNL     1      33.177 -17.241 -25.303  0.00  0.00    +0.068 C 
ATOM     27  C   UNL     1      32.916 -16.052 -25.986  0.00  0.00    +0.063 C 
ATOM     28  C   UNL     1      32.540 -18.392 -25.778  0.00  0.00    +0.006 C 
ATOM     29  C   UNL     1      32.072 -15.974 -27.090  0.00  0.00    +0.059 C 
ATOM     30  C   UNL     1      32.782 -13.986 -26.765  0.00  0.00    +0.144 C 
ATOM     31  C   UNL     1      31.687 -18.345 -26.883  0.00  0.00    +0.001 C 
ATOM     32  C   UNL     1      31.440 -17.140 -27.553  0.00  0.00    +0.016 C 
ATOM     33  H   UNL     1      31.477 -14.352 -28.325  0.00  0.00    +0.148 HD
ATOM     34  H   UNL     1      33.977 -14.461 -25.100  0.00  0.00    +0.148 HD
BRANCH  30  35
ATOM     35  C   UNL     1      32.985 -12.536 -26.933  0.00  0.00    +0.037 C 
ATOM     36  C   UNL     1      33.030 -11.765 -25.591  0.00  0.00    +0.003 C 
ATOM     37  C   UNL     1      34.245 -12.187 -27.763  0.00  0.00    +0.003 C 
ENDBRANCH  30  35
ENDBRANCH  22  26
ENDBRANCH   1  21
TORSDOF 7
ENDMDL
MODEL 5
REMARK VINA RESULT:     -12.0      4.055      7.104
REMARK  Name = 11961293
REMARK  7 active torsions:
REMARK  status: ('A' for Active; 'I' for Inactive)
REMARK    1  A    between atoms: C_1  and  C_3
REMARK    2  A    between atoms: C_1  and  N_21
REMARK    3  A    between atoms: N_2  and  C_9
REMARK    4  A    between atoms: C_9  and  C_12
REMARK    5  A    between atoms: C_17  and  O_18
REMARK    6  A    between atoms: C_22  and  C_26
REMARK    7  A    between atoms: C_30  and  C_35
REMARK                            x       y       z     vdW  Elec       q    Type
REMARK                         _______ _______ _______ _____ _____    ______ ____
ROOT
ATOM      1  C   UNL     1      33.440 -14.762 -24.508  0.00  0.00    +0.089 C 
ENDROOT
BRANCH   1   3
ATOM      2  N   UNL     1      34.801 -17.902 -21.871  0.00  0.00    +0.387 N 
ATOM      3  C   UNL     1      34.387 -15.686 -23.746  0.00  0.00    +0.015 C 
ATOM      4  C   UNL     1      35.037 -18.091 -23.308  0.00  0.00    -0.077 C 
ATOM      5  C   UNL     1      35.088 -16.519 -21.465  0.00  0.00    -0.077 C 
ATOM      6  C   UNL     1      34.162 -17.150 -24.140  0.00  0.00    -0.021 C 
ATOM      7  C   UNL     1      34.213 -15.525 -22.233  0.00  0.00    -0.021 C 
ATOM      8  H   UNL     1      33.815 -18.085 -21.687  0.00  0.00    -0.080 HD
BRANCH   2   9
ATOM      9  C   UNL     1      35.606 -18.842 -21.091  0.00  0.00    -0.077 C 
BRANCH   9  12
ATOM     10  O   UNL     1      31.642 -22.388 -17.844  0.00  0.00    -0.226 OA
ATOM     11  N   UNL     1      33.439 -22.090 -19.287  0.00  0.00    -0.246 N 
ATOM     12  C   UNL     1      34.872 -20.169 -20.914  0.00  0.00    -0.017 C 
ATOM     13  C   UNL     1      33.417 -19.936 -20.479  0.00  0.00    +0.020 C 
ATOM     14  C   UNL     1      35.595 -21.059 -19.890  0.00  0.00    +0.020 C 
ATOM     15  C   UNL     1      32.695 -21.257 -20.231  0.00  0.00    +0.097 C 
ATOM     16  C   UNL     1      34.834 -22.362 -19.653  0.00  0.00    +0.097 C 
ATOM     17  C   UNL     1      32.810 -22.612 -18.154  0.00  0.00    +0.405 C 
BRANCH  17  18
ATOM     18  O   UNL     1      33.639 -23.413 -17.412  0.00  0.00    -0.430 OA
ATOM     19  C   UNL     1      33.436 -23.389 -15.994  0.00  0.00    +0.257 C 
ENDBRANCH  17  18
ENDBRANCH   9  12
ENDBRANCH   2   9
ENDBRANCH   1   3
BRANCH   1  21
ATOM     20  O   UNL     1      32.795 -12.555 -26.227  0.00  0.00    -0.270 OA
ATOM     21  N   UNL     1      33.797 -13.367 -24.301  0.00  0.00    -0.301 N 
ATOM     22  C   UNL     1      33.435 -12.378 -25.193  0.00  0.00    +0.247 C 
ATOM     23  H   UNL     1      34.312 -13.120 -23.498  0.00  0.00    +0.150 HD
BRANCH  22  26
ATOM     24  N   UNL     1      32.947  -8.490 -22.448  0.00  0.00    -0.318 N 
ATOM     25  N   UNL     1      32.266 -10.539 -22.975  0.00  0.00    -0.318 N 
ATOM     26  C   UNL     1      33.897 -11.008 -24.853  0.00  0.00    +0.068 C 
ATOM     27  C   UNL     1      33.300 -10.265 -23.832  0.00  0.00    +0.063 C 
ATOM     28  C   UNL     1      34.954 -10.400 -25.538  0.00  0.00    +0.006 C 
ATOM     29  C   UNL     1      33.709  -8.981 -23.483  0.00  0.00    +0.059 C 
ATOM     30  C   UNL     1      32.092  -9.449 -22.169  0.00  0.00    +0.144 C 
ATOM     31  C   UNL     1      35.386  -9.113 -25.210  0.00  0.00    +0.001 C 
ATOM     32  C   UNL     1      34.773  -8.386 -24.182  0.00  0.00    +0.016 C 
ATOM     33  H   UNL     1      33.024  -7.611 -22.011  0.00  0.00    +0.148 HD
ATOM     34  H   UNL     1      31.742 -11.372 -22.946  0.00  0.00    +0.148 HD
BRANCH  30  35
ATOM     35  C   UNL     1      31.084  -9.320 -21.101  0.00  0.00    +0.037 C 
ATOM     36  C   UNL     1      30.790 -10.655 -20.374  0.00  0.00    +0.003 C 
ATOM     37  C   UNL     1      31.439  -8.237 -20.052  0.00  0.00    +0.003 C 
ENDBRANCH  30  35
ENDBRANCH  22  26
ENDBRANCH   1  21
TORSDOF 7
ENDMDL
MODEL 6
REMARK VINA RESULT:     -11.8      4.280      7.166
REMARK  Name = 11961293
REMARK  7 active torsions:
REMARK  status: ('A' for Active; 'I' for Inactive)
REMARK    1  A    between atoms: C_1  and  C_3
REMARK    2  A    between atoms: C_1  and  N_21
REMARK    3  A    between atoms: N_2  and  C_9
REMARK    4  A    between atoms: C_9  and  C_12
REMARK    5  A    between atoms: C_17  and  O_18
REMARK    6  A    between atoms: C_22  and  C_26
REMARK    7  A    between atoms: C_30  and  C_35
REMARK                            x       y       z     vdW  Elec       q    Type
REMARK                         _______ _______ _______ _____ _____    ______ ____
ROOT
ATOM      1  C   UNL     1      33.389 -14.696 -24.768  0.00  0.00    +0.089 C 
ENDROOT
BRANCH   1   3
ATOM      2  N   UNL     1      34.763 -17.737 -22.025  0.00  0.00    +0.387 N 
ATOM      3  C   UNL     1      34.339 -15.591 -23.978  0.00  0.00    +0.015 C 
ATOM      4  C   UNL     1      34.993 -17.978 -23.455  0.00  0.00    -0.077 C 
ATOM      5  C   UNL     1      35.051 -16.340 -21.670  0.00  0.00    -0.077 C 
ATOM      6  C   UNL     1      34.114 -17.069 -24.316  0.00  0.00    -0.021 C 
ATOM      7  C   UNL     1      34.173 -15.375 -22.470  0.00  0.00    -0.021 C 
ATOM      8  H   UNL     1      33.778 -17.913 -21.830  0.00  0.00    -0.080 HD
BRANCH   2   9
ATOM      9  C   UNL     1      35.572 -18.648 -21.215  0.00  0.00    -0.077 C 
BRANCH   9  12
ATOM     10  O   UNL     1      31.713 -22.306 -17.967  0.00  0.00    -0.226 OA
ATOM     11  N   UNL     1      33.492 -21.957 -19.421  0.00  0.00    -0.246 N 
ATOM     12  C   UNL     1      34.869 -19.992 -21.042  0.00  0.00    -0.017 C 
ATOM     13  C   UNL     1      33.413 -19.795 -20.595  0.00  0.00    +0.020 C 
ATOM     14  C   UNL     1      35.620 -20.874 -20.032  0.00  0.00    +0.020 C 
ATOM     15  C   UNL     1      32.723 -21.134 -20.352  0.00  0.00    +0.097 C 
ATOM     16  C   UNL     1      34.889 -22.195 -19.799  0.00  0.00    +0.097 C 
ATOM     17  C   UNL     1      32.884 -22.502 -18.286  0.00  0.00    +0.405 C 
BRANCH  17  18
ATOM     18  O   UNL     1      33.735 -23.290 -17.558  0.00  0.00    -0.430 OA
ATOM     19  C   UNL     1      33.420 -23.444 -16.168  0.00  0.00    +0.257 C 
ENDBRANCH  17  18
ENDBRANCH   9  12
ENDBRANCH   2   9
ENDBRANCH   1   3
BRANCH   1  21
ATOM     20  O   UNL     1      34.092 -11.968 -24.215  0.00  0.00    -0.270 OA
ATOM     21  N   UNL     1      32.684 -13.779 -23.886  0.00  0.00    -0.301 N 
ATOM     22  C   UNL     1      33.107 -12.480 -23.688  0.00  0.00    +0.247 C 
ATOM     23  H   UNL     1      31.878 -14.095 -23.415  0.00  0.00    +0.150 HD
BRANCH  22  26
ATOM     24  N   UNL     1      31.277  -8.225 -22.490  0.00  0.00    -0.318 N 
ATOM     25  N   UNL     1      32.494  -9.439 -23.899  0.00  0.00    -0.318 N 
ATOM     26  C   UNL     1      32.294 -11.679 -22.738  0.00  0.00    +0.068 C 
ATOM     27  C   UNL     1      32.079 -10.312 -22.927  0.00  0.00    +0.063 C 
ATOM     28  C   UNL     1      31.704 -12.258 -21.610  0.00  0.00    +0.006 C 
ATOM     29  C   UNL     1      31.320  -9.531 -22.060  0.00  0.00    +0.059 C 
ATOM     30  C   UNL     1      31.991  -8.205 -23.594  0.00  0.00    +0.144 C 
ATOM     31  C   UNL     1      30.938 -11.499 -20.722  0.00  0.00    +0.001 C 
ATOM     32  C   UNL     1      30.735 -10.130 -20.932  0.00  0.00    +0.016 C 
ATOM     33  H   UNL     1      30.813  -7.469 -22.065  0.00  0.00    +0.148 HD
ATOM     34  H   UNL     1      33.056  -9.661 -24.677  0.00  0.00    +0.148 HD
BRANCH  30  35
ATOM     35  C   UNL     1      32.195  -6.974 -24.379  0.00  0.00    +0.037 C 
ATOM     36  C   UNL     1      32.285  -5.700 -23.504  0.00  0.00    +0.003 C 
ATOM     37  C   UNL     1      33.430  -7.040 -25.311  0.00  0.00    +0.003 C 
ENDBRANCH  30  35
ENDBRANCH  22  26
ENDBRANCH   1  21
TORSDOF 7
ENDMDL
MODEL 7
REMARK VINA RESULT:     -11.4      4.328      7.682
REMARK  Name = 11961293
REMARK  7 active torsions:
REMARK  status: ('A' for Active; 'I' for Inactive)
REMARK    1  A    between atoms: C_1  and  C_3
REMARK    2  A    between atoms: C_1  and  N_21
REMARK    3  A    between atoms: N_2  and  C_9
REMARK    4  A    between atoms: C_9  and  C_12
REMARK    5  A    between atoms: C_17  and  O_18
REMARK    6  A    between atoms: C_22  and  C_26
REMARK    7  A    between atoms: C_30  and  C_35
REMARK                            x       y       z     vdW  Elec       q    Type
REMARK                         _______ _______ _______ _____ _____    ______ ____
ROOT
ATOM      1  C   UNL     1      33.076 -14.164 -25.517  0.00  0.00    +0.089 C 
ENDROOT
BRANCH   1   3
ATOM      2  N   UNL     1      33.784 -17.997 -23.656  0.00  0.00    +0.387 N 
ATOM      3  C   UNL     1      33.744 -15.494 -25.183  0.00  0.00    +0.015 C 
ATOM      4  C   UNL     1      33.443 -18.004 -25.085  0.00  0.00    -0.077 C 
ATOM      5  C   UNL     1      34.732 -16.919 -23.343  0.00  0.00    -0.077 C 
ATOM      6  C   UNL     1      32.820 -16.672 -25.510  0.00  0.00    -0.021 C 
ATOM      7  C   UNL     1      34.152 -15.551 -23.707  0.00  0.00    -0.021 C 
ATOM      8  H   UNL     1      32.928 -17.826 -23.129  0.00  0.00    -0.080 HD
BRANCH   2   9
ATOM      9  C   UNL     1      34.331 -19.293 -23.254  0.00  0.00    -0.077 C 
BRANCH   9  12
ATOM     10  O   UNL     1      34.242 -23.133 -18.347  0.00  0.00    -0.226 OA
ATOM     11  N   UNL     1      33.661 -21.166 -19.441  0.00  0.00    -0.246 N 
ATOM     12  C   UNL     1      34.194 -19.497 -21.747  0.00  0.00    -0.017 C 
ATOM     13  C   UNL     1      35.216 -20.526 -21.240  0.00  0.00    +0.020 C 
ATOM     14  C   UNL     1      32.768 -19.942 -21.385  0.00  0.00    +0.020 C 
ATOM     15  C   UNL     1      35.040 -20.790 -19.747  0.00  0.00    +0.097 C 
ATOM     16  C   UNL     1      32.636 -20.216 -19.888  0.00  0.00    +0.097 C 
ATOM     17  C   UNL     1      33.386 -22.335 -18.725  0.00  0.00    +0.405 C 
BRANCH  17  18
ATOM     18  O   UNL     1      32.049 -22.502 -18.480  0.00  0.00    -0.430 OA
ATOM     19  C   UNL     1      31.702 -23.003 -17.183  0.00  0.00    +0.257 C 
ENDBRANCH  17  18
ENDBRANCH   9  12
ENDBRANCH   2   9
ENDBRANCH   1   3
BRANCH   1  21
ATOM     20  O   UNL     1      33.768 -11.595 -24.437  0.00  0.00    -0.270 OA
ATOM     21  N   UNL     1      32.521 -13.546 -24.322  0.00  0.00    -0.301 N 
ATOM     22  C   UNL     1      32.925 -12.299 -23.886  0.00  0.00    +0.247 C 
ATOM     23  H   UNL     1      31.836 -14.032 -23.808  0.00  0.00    +0.150 HD
BRANCH  22  26
ATOM     24  N   UNL     1      31.297  -8.610 -21.313  0.00  0.00    -0.318 N 
ATOM     25  N   UNL     1      32.261  -9.346 -23.175  0.00  0.00    -0.318 N 
ATOM     26  C   UNL     1      32.283 -11.819 -22.636  0.00  0.00    +0.068 C 
ATOM     27  C   UNL     1      32.027 -10.464 -22.416  0.00  0.00    +0.063 C 
ATOM     28  C   UNL     1      31.903 -12.704 -21.622  0.00  0.00    +0.006 C 
ATOM     29  C   UNL     1      31.424  -9.979 -21.259  0.00  0.00    +0.059 C 
ATOM     30  C   UNL     1      31.808  -8.264 -22.474  0.00  0.00    +0.144 C 
ATOM     31  C   UNL     1      31.296 -12.246 -20.450  0.00  0.00    +0.001 C 
ATOM     32  C   UNL     1      31.049 -10.882 -20.251  0.00  0.00    +0.016 C 
ATOM     33  H   UNL     1      30.907  -8.017 -20.630  0.00  0.00    +0.148 HD
ATOM     34  H   UNL     1      32.680  -9.327 -24.066  0.00  0.00    +0.148 HD
BRANCH  30  35
ATOM     35  C   UNL     1      31.862  -6.862 -22.924  0.00  0.00    +0.037 C 
ATOM     36  C   UNL     1      30.537  -6.371 -23.556  0.00  0.00    +0.003 C 
ATOM     37  C   UNL     1      32.290  -5.877 -21.809  0.00  0.00    +0.003 C 
ENDBRANCH  30  35
ENDBRANCH  22  26
ENDBRANCH   1  21
TORSDOF 7
ENDMDL
MODEL 8
REMARK VINA RESULT:     -11.3      4.147      7.929
REMARK  Name = 11961293
REMARK  7 active torsions:
REMARK  status: ('A' for Active; 'I' for Inactive)
REMARK    1  A    between atoms: C_1  and  C_3
REMARK    2  A    between atoms: C_1  and  N_21
REMARK    3  A    between atoms: N_2  and  C_9
REMARK    4  A    between atoms: C_9  and  C_12
REMARK    5  A    between atoms: C_17  and  O_18
REMARK    6  A    between atoms: C_22  and  C_26
REMARK    7  A    between atoms: C_30  and  C_35
REMARK                            x       y       z     vdW  Elec       q    Type
REMARK                         _______ _______ _______ _____ _____    ______ ____
ROOT
ATOM      1  C   UNL     1      32.629 -14.342 -26.128  0.00  0.00    +0.089 C 
ENDROOT
BRANCH   1   3
ATOM      2  N   UNL     1      33.918 -17.934 -24.104  0.00  0.00    +0.387 N 
ATOM      3  C   UNL     1      33.513 -15.513 -25.709  0.00  0.00    +0.015 C 
ATOM      4  C   UNL     1      33.686 -18.032 -25.551  0.00  0.00    -0.077 C 
ATOM      5  C   UNL     1      34.620 -16.689 -23.763  0.00  0.00    -0.077 C 
ATOM      6  C   UNL     1      32.854 -16.852 -26.058  0.00  0.00    -0.021 C 
ATOM      7  C   UNL     1      33.818 -15.463 -24.208  0.00  0.00    -0.021 C 
ATOM      8  H   UNL     1      33.010 -17.919 -23.640  0.00  0.00    -0.080 HD
BRANCH   2   9
ATOM      9  C   UNL     1      34.671 -19.093 -23.626  0.00  0.00    -0.077 C 
BRANCH   9  12
ATOM     10  O   UNL     1      34.703 -22.812 -18.626  0.00  0.00    -0.226 OA
ATOM     11  N   UNL     1      34.011 -20.923 -19.790  0.00  0.00    -0.246 N 
ATOM     12  C   UNL     1      34.496 -19.272 -22.120  0.00  0.00    -0.017 C 
ATOM     13  C   UNL     1      35.575 -20.206 -21.551  0.00  0.00    +0.020 C 
ATOM     14  C   UNL     1      33.096 -19.819 -21.795  0.00  0.00    +0.020 C 
ATOM     15  C   UNL     1      35.367 -20.447 -20.059  0.00  0.00    +0.097 C 
ATOM     16  C   UNL     1      32.932 -20.067 -20.296  0.00  0.00    +0.097 C 
ATOM     17  C   UNL     1      33.802 -22.093 -19.053  0.00  0.00    +0.405 C 
BRANCH  17  18
ATOM     18  O   UNL     1      32.474 -22.359 -18.850  0.00  0.00    -0.430 OA
ATOM     19  C   UNL     1      32.115 -22.817 -17.541  0.00  0.00    +0.257 C 
ENDBRANCH  17  18
ENDBRANCH   9  12
ENDBRANCH   2   9
ENDBRANCH   1   3
BRANCH   1  21
ATOM     20  O   UNL     1      32.295 -12.624 -23.852  0.00  0.00    -0.270 OA
ATOM     21  N   UNL     1      33.301 -13.073 -25.891  0.00  0.00    -0.301 N 
ATOM     22  C   UNL     1      33.068 -12.320 -24.757  0.00  0.00    +0.247 C 
ATOM     23  H   UNL     1      33.943 -12.741 -26.560  0.00  0.00    +0.150 HD
BRANCH  22  26
ATOM     24  N   UNL     1      33.547  -8.023 -22.709  0.00  0.00    -0.318 N 
ATOM     25  N   UNL     1      32.443  -9.947 -22.848  0.00  0.00    -0.318 N 
ATOM     26  C   UNL     1      33.812 -11.037 -24.676  0.00  0.00    +0.068 C 
ATOM     27  C   UNL     1      33.447 -10.033 -23.777  0.00  0.00    +0.063 C 
ATOM     28  C   UNL     1      34.916 -10.778 -25.494  0.00  0.00    +0.006 C 
ATOM     29  C   UNL     1      34.123  -8.821 -23.671  0.00  0.00    +0.059 C 
ATOM     30  C   UNL     1      32.544  -8.729 -22.236  0.00  0.00    +0.144 C 
ATOM     31  C   UNL     1      35.614  -9.571 -25.410  0.00  0.00    +0.001 C 
ATOM     32  C   UNL     1      35.229  -8.577 -24.501  0.00  0.00    +0.016 C 
ATOM     33  H   UNL     1      33.826  -7.120 -22.433  0.00  0.00    +0.148 HD
ATOM     34  H   UNL     1      31.769 -10.639 -22.656  0.00  0.00    +0.148 HD
BRANCH  30  35
ATOM     35  C   UNL     1      31.660  -8.225 -21.169  0.00  0.00    +0.037 C 
ATOM     36  C   UNL     1      31.108  -9.344 -20.253  0.00  0.00    +0.003 C 
ATOM     37  C   UNL     1      32.319  -7.130 -20.295  0.00  0.00    +0.003 C 
ENDBRANCH  30  35
ENDBRANCH  22  26
ENDBRANCH   1  21
TORSDOF 7
ENDMDL
MODEL 9
REMARK VINA RESULT:     -11.1      2.750     12.079
REMARK  Name = 11961293
REMARK  7 active torsions:
REMARK  status: ('A' for Active; 'I' for Inactive)
REMARK    1  A    between atoms: C_1  and  C_3
REMARK    2  A    between atoms: C_1  and  N_21
REMARK    3  A    between atoms: N_2  and  C_9
REMARK    4  A    between atoms: C_9  and  C_12
REMARK    5  A    between atoms: C_17  and  O_18
REMARK    6  A    between atoms: C_22  and  C_26
REMARK    7  A    between atoms: C_30  and  C_35
REMARK                            x       y       z     vdW  Elec       q    Type
REMARK                         _______ _______ _______ _____ _____    ______ ____
ROOT
ATOM      1  C   UNL     1      36.422 -21.446 -19.203  0.00  0.00    +0.089 C 
ENDROOT
BRANCH   1   3
ATOM      2  N   UNL     1      34.978 -18.376 -21.876  0.00  0.00    +0.387 N 
ATOM      3  C   UNL     1      35.958 -20.765 -20.487  0.00  0.00    +0.015 C 
ATOM      4  C   UNL     1      36.356 -18.839 -22.079  0.00  0.00    -0.077 C 
ATOM      5  C   UNL     1      34.074 -19.502 -21.605  0.00  0.00    -0.077 C 
ATOM      6  C   UNL     1      36.873 -19.589 -20.848  0.00  0.00    -0.021 C 
ATOM      7  C   UNL     1      34.512 -20.273 -20.358  0.00  0.00    -0.021 C 
ATOM      8  H   UNL     1      34.968 -17.762 -21.061  0.00  0.00    -0.080 HD
BRANCH   2   9
ATOM      9  C   UNL     1      34.516 -17.617 -23.038  0.00  0.00    -0.077 C 
BRANCH   9  12
ATOM     10  O   UNL     1      32.154 -12.557 -20.273  0.00  0.00    -0.226 OA
ATOM     11  N   UNL     1      33.359 -13.619 -21.953  0.00  0.00    -0.246 N 
ATOM     12  C   UNL     1      34.580 -16.116 -22.769  0.00  0.00    -0.017 C 
ATOM     13  C   UNL     1      34.270 -15.811 -21.296  0.00  0.00    +0.020 C 
ATOM     14  C   UNL     1      33.607 -15.355 -23.684  0.00  0.00    +0.020 C 
ATOM     15  C   UNL     1      34.263 -14.308 -21.032  0.00  0.00    +0.097 C 
ATOM     16  C   UNL     1      33.612 -13.859 -23.378  0.00  0.00    +0.097 C 
ATOM     17  C   UNL     1      32.368 -12.762 -21.466  0.00  0.00    +0.405 C 
BRANCH  17  18
ATOM     18  O   UNL     1      31.652 -12.161 -22.467  0.00  0.00    -0.430 OA
ATOM     19  C   UNL     1      32.039 -10.824 -22.806  0.00  0.00    +0.257 C 
ENDBRANCH  17  18
ENDBRANCH   9  12
ENDBRANCH   2   9
ENDBRANCH   1   3
BRANCH   1  21
ATOM     20  O   UNL     1      36.515 -22.724 -16.633  0.00  0.00    -0.270 OA
ATOM     21  N   UNL     1      35.288 -21.937 -18.435  0.00  0.00    -0.301 N 
ATOM     22  C   UNL     1      35.442 -22.539 -17.202  0.00  0.00    +0.247 C 
ATOM     23  H   UNL     1      34.381 -21.835 -18.806  0.00  0.00    +0.150 HD
BRANCH  22  26
ATOM     24  N   UNL     1      33.330 -24.544 -13.406  0.00  0.00    -0.318 N 
ATOM     25  N   UNL     1      35.195 -23.840 -14.389  0.00  0.00    -0.318 N 
ATOM     26  C   UNL     1      34.189 -23.009 -16.557  0.00  0.00    +0.068 C 
ATOM     27  C   UNL     1      34.189 -23.580 -15.283  0.00  0.00    +0.063 C 
ATOM     28  C   UNL     1      32.950 -22.897 -17.197  0.00  0.00    +0.006 C 
ATOM     29  C   UNL     1      33.035 -24.028 -14.647  0.00  0.00    +0.059 C 
ATOM     30  C   UNL     1      34.633 -24.415 -13.284  0.00  0.00    +0.144 C 
ATOM     31  C   UNL     1      31.775 -23.338 -16.583  0.00  0.00    +0.001 C 
ATOM     32  C   UNL     1      31.799 -23.908 -15.305  0.00  0.00    +0.016 C 
ATOM     33  H   UNL     1      32.703 -24.926 -12.751  0.00  0.00    +0.148 HD
ATOM     34  H   UNL     1      36.152 -23.646 -14.519  0.00  0.00    +0.148 HD
BRANCH  30  35
ATOM     35  C   UNL     1      35.358 -24.853 -12.077  0.00  0.00    +0.037 C 
ATOM     36  C   UNL     1      36.615 -25.699 -12.393  0.00  0.00    +0.003 C 
ATOM     37  C   UNL     1      35.754 -23.682 -11.144  0.00  0.00    +0.003 C 
ENDBRANCH  30  35
ENDBRANCH  22  26
ENDBRANCH   1  21
TORSDOF 7
ENDMDL
