MODEL 1
REMARK VINA RESULT:     -12.0      0.000      0.000
REMARK  Name = 5326869
REMARK  6 active torsions:
REMARK  status: ('A' for Active; 'I' for Inactive)
REMARK    1  A    between atoms: N_2  and  C_11
REMARK    2  A    between atoms: C_3  and  C_25
REMARK    3  A    between atoms: N_5  and  C_14
REMARK    4  A    between atoms: C_14  and  C_15
REMARK    5  A    between atoms: C_15  and  C_17
REMARK    6  A    between atoms: C_23  and  N_30
REMARK                            x       y       z     vdW  Elec       q    Type
REMARK                         _______ _______ _______ _____ _____    ______ ____
ROOT
ATOM      1  O   UNL     1      34.632 -19.888 -24.694  0.00  0.00    -0.270 OA
ATOM      2  N   UNL     1      34.254 -18.519 -22.820  0.00  0.00    -0.280 N 
ATOM      3  C   UNL     1      34.169 -18.880 -24.172  0.00  0.00    +0.250 C 
ATOM      4  H   UNL     1      33.823 -17.670 -22.573  0.00  0.00    +0.155 HD
ENDROOT
BRANCH   2  11
ATOM      5  N   UNL     1      34.294 -21.614 -18.997  0.00  0.00    -0.286 N 
ATOM      6  C   UNL     1      34.779 -20.736 -19.939  0.00  0.00    +0.053 C 
ATOM      7  C   UNL     1      36.149 -20.603 -19.710  0.00  0.00    +0.015 C 
ATOM      8  C   UNL     1      35.309 -22.040 -18.182  0.00  0.00    +0.065 C 
ATOM      9  C   UNL     1      34.114 -20.056 -20.966  0.00  0.00    +0.029 C 
ATOM     10  C   UNL     1      36.470 -21.432 -18.599  0.00  0.00    +0.017 C 
ATOM     11  C   UNL     1      34.877 -19.215 -21.783  0.00  0.00    +0.052 C 
ATOM     12  C   UNL     1      36.897 -19.750 -20.547  0.00  0.00    +0.003 C 
ATOM     13  C   UNL     1      36.246 -19.064 -21.578  0.00  0.00    +0.015 C 
BRANCH   5  14
ATOM     14  C   UNL     1      32.916 -22.038 -18.872  0.00  0.00    +0.100 C 
BRANCH  14  15
ATOM     15  C   UNL     1      32.753 -23.389 -18.168  0.00  0.00    +0.048 C 
BRANCH  15  17
ATOM     16  N   UNL     1      31.091 -23.072 -14.231  0.00  0.00    -0.242 NA
ATOM     17  C   UNL     1      32.168 -23.276 -16.782  0.00  0.00    -0.017 C 
ATOM     18  C   UNL     1      30.845 -22.909 -16.629  0.00  0.00    +0.016 C 
ATOM     19  C   UNL     1      32.964 -23.544 -15.684  0.00  0.00    +0.016 C 
ATOM     20  C   UNL     1      30.355 -22.821 -15.336  0.00  0.00    +0.099 C 
ATOM     21  C   UNL     1      32.379 -23.427 -14.433  0.00  0.00    +0.099 C 
ENDBRANCH  15  17
ENDBRANCH  14  15
ENDBRANCH   5  14
ENDBRANCH   2  11
BRANCH   3  25
ATOM     22  F   UNL     1      31.178 -17.928 -27.850  0.00  0.00    -0.204 F 
ATOM     23  C   UNL     1      32.966 -15.652 -25.645  0.00  0.00    +0.050 C 
ATOM     24  C   UNL     1      33.634 -16.561 -24.825  0.00  0.00    +0.019 C 
ATOM     25  C   UNL     1      33.459 -17.911 -25.046  0.00  0.00    +0.057 C 
ATOM     26  C   UNL     1      32.137 -16.114 -26.667  0.00  0.00    +0.044 C 
ATOM     27  C   UNL     1      32.644 -18.394 -26.050  0.00  0.00    +0.034 C 
ATOM     28  C   UNL     1      31.975 -17.485 -26.870  0.00  0.00    +0.142 C 
BRANCH  23  30
ATOM     29  O   UNL     1      33.192 -11.514 -24.937  0.00  0.00    -0.350 OA
ATOM     30  N   UNL     1      33.127 -14.278 -25.442  0.00  0.00    -0.303 N 
ATOM     31  C   UNL     1      32.655 -13.328 -26.456  0.00  0.00    +0.123 C 
ATOM     32  C   UNL     1      33.120 -13.775 -24.062  0.00  0.00    +0.123 C 
ATOM     33  C   UNL     1      33.359 -11.987 -26.273  0.00  0.00    +0.164 C 
ATOM     34  C   UNL     1      33.798 -12.411 -24.006  0.00  0.00    +0.164 C 
ENDBRANCH  23  30
ENDBRANCH   3  25
TORSDOF 6
ENDMDL
MODEL 2
REMARK VINA RESULT:     -12.0      1.846      2.784
REMARK  Name = 5326869
REMARK  6 active torsions:
REMARK  status: ('A' for Active; 'I' for Inactive)
REMARK    1  A    between atoms: N_2  and  C_11
REMARK    2  A    between atoms: C_3  and  C_25
REMARK    3  A    between atoms: N_5  and  C_14
REMARK    4  A    between atoms: C_14  and  C_15
REMARK    5  A    between atoms: C_15  and  C_17
REMARK    6  A    between atoms: C_23  and  N_30
REMARK                            x       y       z     vdW  Elec       q    Type
REMARK                         _______ _______ _______ _____ _____    ______ ____
ROOT
ATOM      1  O   UNL     1      35.131 -18.004 -20.623  0.00  0.00    -0.270 OA
ATOM      2  N   UNL     1      34.956 -20.302 -21.084  0.00  0.00    -0.280 N 
ATOM      3  C   UNL     1      34.922 -18.936 -21.392  0.00  0.00    +0.250 C 
ATOM      4  H   UNL     1      34.762 -20.917 -21.829  0.00  0.00    +0.155 HD
ENDROOT
BRANCH   2  11
ATOM      5  N   UNL     1      33.808 -23.060 -17.175  0.00  0.00    -0.286 N 
ATOM      6  C   UNL     1      34.565 -22.259 -18.001  0.00  0.00    +0.053 C 
ATOM      7  C   UNL     1      35.805 -22.089 -17.384  0.00  0.00    +0.015 C 
ATOM      8  C   UNL     1      34.527 -23.401 -16.061  0.00  0.00    +0.065 C 
ATOM      9  C   UNL     1      34.247 -21.677 -19.234  0.00  0.00    +0.029 C 
ATOM     10  C   UNL     1      35.767 -22.815 -16.161  0.00  0.00    +0.017 C 
ATOM     11  C   UNL     1      35.230 -20.899 -19.853  0.00  0.00    +0.052 C 
ATOM     12  C   UNL     1      36.780 -21.300 -18.028  0.00  0.00    +0.003 C 
ATOM     13  C   UNL     1      36.477 -20.712 -19.261  0.00  0.00    +0.015 C 
BRANCH   5  14
ATOM     14  C   UNL     1      32.451 -23.490 -17.433  0.00  0.00    +0.100 C 
BRANCH  14  15
ATOM     15  C   UNL     1      31.394 -22.628 -16.736  0.00  0.00    +0.048 C 
BRANCH  15  17
ATOM     16  N   UNL     1      28.214 -24.914 -14.995  0.00  0.00    -0.242 NA
ATOM     17  C   UNL     1      30.275 -23.432 -16.122  0.00  0.00    -0.017 C 
ATOM     18  C   UNL     1      28.966 -23.151 -16.467  0.00  0.00    +0.016 C 
ATOM     19  C   UNL     1      30.573 -24.440 -15.225  0.00  0.00    +0.016 C 
ATOM     20  C   UNL     1      27.975 -23.918 -15.877  0.00  0.00    +0.099 C 
ATOM     21  C   UNL     1      29.510 -25.149 -14.690  0.00  0.00    +0.099 C 
ENDBRANCH  15  17
ENDBRANCH  14  15
ENDBRANCH   5  14
ENDBRANCH   2  11
BRANCH   3  25
ATOM     22  F   UNL     1      34.256 -20.270 -25.991  0.00  0.00    -0.204 F 
ATOM     23  C   UNL     1      33.907 -17.001 -24.435  0.00  0.00    +0.050 C 
ATOM     24  C   UNL     1      34.239 -17.307 -23.116  0.00  0.00    +0.019 C 
ATOM     25  C   UNL     1      34.570 -18.607 -22.798  0.00  0.00    +0.057 C 
ATOM     26  C   UNL     1      33.913 -18.001 -25.406  0.00  0.00    +0.044 C 
ATOM     27  C   UNL     1      34.583 -19.616 -23.739  0.00  0.00    +0.034 C 
ATOM     28  C   UNL     1      34.251 -19.309 -25.059  0.00  0.00    +0.142 C 
BRANCH  23  30
ATOM     29  O   UNL     1      33.145 -13.026 -25.577  0.00  0.00    -0.350 OA
ATOM     30  N   UNL     1      33.568 -15.689 -24.784  0.00  0.00    -0.303 N 
ATOM     31  C   UNL     1      33.872 -14.585 -23.866  0.00  0.00    +0.123 C 
ATOM     32  C   UNL     1      33.553 -15.332 -26.209  0.00  0.00    +0.123 C 
ATOM     33  C   UNL     1      33.000 -13.381 -24.202  0.00  0.00    +0.164 C 
ATOM     34  C   UNL     1      32.698 -14.088 -26.420  0.00  0.00    +0.164 C 
ENDBRANCH  23  30
ENDBRANCH   3  25
TORSDOF 6
ENDMDL
MODEL 3
REMARK VINA RESULT:     -11.8      3.633      7.151
REMARK  Name = 5326869
REMARK  6 active torsions:
REMARK  status: ('A' for Active; 'I' for Inactive)
REMARK    1  A    between atoms: N_2  and  C_11
REMARK    2  A    between atoms: C_3  and  C_25
REMARK    3  A    between atoms: N_5  and  C_14
REMARK    4  A    between atoms: C_14  and  C_15
REMARK    5  A    between atoms: C_15  and  C_17
REMARK    6  A    between atoms: C_23  and  N_30
REMARK                            x       y       z     vdW  Elec       q    Type
REMARK                         _______ _______ _______ _____ _____    ______ ____
ROOT
ATOM      1  O   UNL     1      33.756 -11.858 -26.795  0.00  0.00    -0.270 OA
ATOM      2  N   UNL     1      33.302 -12.908 -24.741  0.00  0.00    -0.280 N 
ATOM      3  C   UNL     1      33.503 -11.816 -25.596  0.00  0.00    +0.250 C 
ATOM      4  H   UNL     1      33.107 -12.689 -23.801  0.00  0.00    +0.155 HD
ENDROOT
BRANCH   2  11
ATOM      5  N   UNL     1      34.202 -17.638 -23.733  0.00  0.00    -0.286 N 
ATOM      6  C   UNL     1      33.817 -16.533 -24.459  0.00  0.00    +0.053 C 
ATOM      7  C   UNL     1      33.418 -16.987 -25.717  0.00  0.00    +0.015 C 
ATOM      8  C   UNL     1      34.061 -18.771 -24.489  0.00  0.00    +0.065 C 
ATOM      9  C   UNL     1      33.792 -15.180 -24.099  0.00  0.00    +0.029 C 
ATOM     10  C   UNL     1      33.577 -18.401 -25.722  0.00  0.00    +0.017 C 
ATOM     11  C   UNL     1      33.345 -14.266 -25.058  0.00  0.00    +0.052 C 
ATOM     12  C   UNL     1      32.971 -16.046 -26.667  0.00  0.00    +0.003 C 
ATOM     13  C   UNL     1      32.940 -14.690 -26.322  0.00  0.00    +0.015 C 
BRANCH   5  14
ATOM     14  C   UNL     1      34.686 -17.622 -22.370  0.00  0.00    +0.100 C 
BRANCH  14  15
ATOM     15  C   UNL     1      35.507 -18.861 -21.998  0.00  0.00    +0.048 C 
BRANCH  15  17
ATOM     16  N   UNL     1      33.430 -21.563 -19.399  0.00  0.00    -0.242 NA
ATOM     17  C   UNL     1      34.776 -19.811 -21.083  0.00  0.00    -0.017 C 
ATOM     18  C   UNL     1      33.397 -19.757 -21.005  0.00  0.00    +0.016 C 
ATOM     19  C   UNL     1      35.495 -20.726 -20.335  0.00  0.00    +0.016 C 
ATOM     20  C   UNL     1      32.773 -20.651 -20.150  0.00  0.00    +0.099 C 
ATOM     21  C   UNL     1      34.777 -21.576 -19.511  0.00  0.00    +0.099 C 
ENDBRANCH  15  17
ENDBRANCH  14  15
ENDBRANCH   5  14
ENDBRANCH   2  11
BRANCH   3  25
ATOM     22  F   UNL     1      34.250  -7.039 -25.690  0.00  0.00    -0.204 F 
ATOM     23  C   UNL     1      32.798  -9.125 -23.086  0.00  0.00    +0.050 C 
ATOM     24  C   UNL     1      32.877 -10.380 -23.689  0.00  0.00    +0.019 C 
ATOM     25  C   UNL     1      33.419 -10.479 -24.953  0.00  0.00    +0.057 C 
ATOM     26  C   UNL     1      33.261  -7.997 -23.762  0.00  0.00    +0.044 C 
ATOM     27  C   UNL     1      33.885  -9.378 -25.643  0.00  0.00    +0.034 C 
ATOM     28  C   UNL     1      33.805  -8.123 -25.040  0.00  0.00    +0.142 C 
BRANCH  23  30
ATOM     29  O   UNL     1      31.407  -8.807 -19.130  0.00  0.00    -0.350 OA
ATOM     30  N   UNL     1      32.253  -8.998 -21.805  0.00  0.00    -0.303 N 
ATOM     31  C   UNL     1      31.768 -10.187 -21.094  0.00  0.00    +0.123 C 
ATOM     32  C   UNL     1      32.745  -7.912 -20.946  0.00  0.00    +0.123 C 
ATOM     33  C   UNL     1      30.800  -9.769 -19.992  0.00  0.00    +0.164 C 
ATOM     34  C   UNL     1      31.725  -7.617 -19.852  0.00  0.00    +0.164 C 
ENDBRANCH  23  30
ENDBRANCH   3  25
TORSDOF 6
ENDMDL
MODEL 4
REMARK VINA RESULT:     -11.8      4.782      8.215
REMARK  Name = 5326869
REMARK  6 active torsions:
REMARK  status: ('A' for Active; 'I' for Inactive)
REMARK    1  A    between atoms: N_2  and  C_11
REMARK    2  A    between atoms: C_3  and  C_25
REMARK    3  A    between atoms: N_5  and  C_14
REMARK    4  A    between atoms: C_14  and  C_15
REMARK    5  A    between atoms: C_15  and  C_17
REMARK    6  A    between atoms: C_23  and  N_30
REMARK                            x       y       z     vdW  Elec       q    Type
REMARK                         _______ _______ _______ _____ _____    ______ ____
ROOT
ATOM      1  O   UNL     1      32.617 -13.349 -24.367  0.00  0.00    -0.270 OA
ATOM      2  N   UNL     1      34.372 -13.188 -22.811  0.00  0.00    -0.280 N 
ATOM      3  C   UNL     1      33.481 -12.707 -23.780  0.00  0.00    +0.250 C 
ATOM      4  H   UNL     1      35.004 -12.529 -22.442  0.00  0.00    +0.155 HD
ENDROOT
BRANCH   2  11
ATOM      5  N   UNL     1      34.701 -18.076 -23.261  0.00  0.00    -0.286 N 
ATOM      6  C   UNL     1      34.631 -16.847 -22.643  0.00  0.00    +0.053 C 
ATOM      7  C   UNL     1      34.681 -17.077 -21.267  0.00  0.00    +0.015 C 
ATOM      8  C   UNL     1      34.794 -19.070 -22.325  0.00  0.00    +0.065 C 
ATOM      9  C   UNL     1      34.527 -15.564 -23.192  0.00  0.00    +0.029 C 
ATOM     10  C   UNL     1      34.784 -18.484 -21.081  0.00  0.00    +0.017 C 
ATOM     11  C   UNL     1      34.474 -14.484 -22.306  0.00  0.00    +0.052 C 
ATOM     12  C   UNL     1      34.627 -15.972 -20.393  0.00  0.00    +0.003 C 
ATOM     13  C   UNL     1      34.523 -14.683 -20.928  0.00  0.00    +0.015 C 
BRANCH   5  14
ATOM     14  C   UNL     1      34.682 -18.300 -24.691  0.00  0.00    +0.100 C 
BRANCH  14  15
ATOM     15  C   UNL     1      33.284 -18.591 -25.245  0.00  0.00    +0.048 C 
BRANCH  15  17
ATOM     16  N   UNL     1      31.729 -15.431 -27.687  0.00  0.00    -0.242 NA
ATOM     17  C   UNL     1      32.736 -17.478 -26.104  0.00  0.00    -0.017 C 
ATOM     18  C   UNL     1      33.510 -16.359 -26.342  0.00  0.00    +0.016 C 
ATOM     19  C   UNL     1      31.468 -17.594 -26.642  0.00  0.00    +0.016 C 
ATOM     20  C   UNL     1      32.963 -15.365 -27.138  0.00  0.00    +0.099 C 
ATOM     21  C   UNL     1      31.012 -16.546 -27.424  0.00  0.00    +0.099 C 
ENDBRANCH  15  17
ENDBRANCH  14  15
ENDBRANCH   5  14
ENDBRANCH   2  11
BRANCH   3  25
ATOM     22  F   UNL     1      35.471  -9.222 -26.477  0.00  0.00    -0.204 F 
ATOM     23  C   UNL     1      33.060  -8.984 -23.763  0.00  0.00    +0.050 C 
ATOM     24  C   UNL     1      32.914 -10.331 -23.430  0.00  0.00    +0.019 C 
ATOM     25  C   UNL     1      33.636 -11.272 -24.133  0.00  0.00    +0.057 C 
ATOM     26  C   UNL     1      33.923  -8.610 -24.792  0.00  0.00    +0.044 C 
ATOM     27  C   UNL     1      34.497 -10.928 -25.155  0.00  0.00    +0.034 C 
ATOM     28  C   UNL     1      34.642  -9.581 -25.488  0.00  0.00    +0.142 C 
BRANCH  23  30
ATOM     29  O   UNL     1      30.864  -6.237 -21.459  0.00  0.00    -0.350 OA
ATOM     30  N   UNL     1      32.339  -8.010 -23.065  0.00  0.00    -0.303 N 
ATOM     31  C   UNL     1      30.873  -8.001 -23.124  0.00  0.00    +0.123 C 
ATOM     32  C   UNL     1      32.919  -7.473 -21.827  0.00  0.00    +0.123 C 
ATOM     33  C   UNL     1      30.350  -6.623 -22.733  0.00  0.00    +0.164 C 
ATOM     34  C   UNL     1      32.287  -6.124 -21.504  0.00  0.00    +0.164 C 
ENDBRANCH  23  30
ENDBRANCH   3  25
TORSDOF 6
ENDMDL
MODEL 5
REMARK VINA RESULT:     -11.6      4.744     10.397
REMARK  Name = 5326869
REMARK  6 active torsions:
REMARK  status: ('A' for Active; 'I' for Inactive)
REMARK    1  A    between atoms: N_2  and  C_11
REMARK    2  A    between atoms: C_3  and  C_25
REMARK    3  A    between atoms: N_5  and  C_14
REMARK    4  A    between atoms: C_14  and  C_15
REMARK    5  A    between atoms: C_15  and  C_17
REMARK    6  A    between atoms: C_23  and  N_30
REMARK                            x       y       z     vdW  Elec       q    Type
REMARK                         _______ _______ _______ _____ _____    ______ ____
ROOT
ATOM      1  O   UNL     1      32.682 -13.005 -27.958  0.00  0.00    -0.270 OA
ATOM      2  N   UNL     1      33.417 -12.602 -25.762  0.00  0.00    -0.280 N 
ATOM      3  C   UNL     1      32.979 -13.391 -26.833  0.00  0.00    +0.250 C 
ATOM      4  H   UNL     1      33.611 -13.081 -24.924  0.00  0.00    +0.155 HD
ENDROOT
BRANCH   2  11
ATOM      5  N   UNL     1      32.275  -8.021 -24.378  0.00  0.00    -0.286 N 
ATOM      6  C   UNL     1      32.964  -9.037 -25.001  0.00  0.00    +0.053 C 
ATOM      7  C   UNL     1      34.022  -8.450 -25.697  0.00  0.00    +0.015 C 
ATOM      8  C   UNL     1      32.861  -6.815 -24.656  0.00  0.00    +0.065 C 
ATOM      9  C   UNL     1      32.732 -10.418 -25.001  0.00  0.00    +0.029 C 
ATOM     10  C   UNL     1      33.945  -7.048 -25.470  0.00  0.00    +0.017 C 
ATOM     11  C   UNL     1      33.610 -11.220 -25.736  0.00  0.00    +0.052 C 
ATOM     12  C   UNL     1      34.895  -9.280 -26.430  0.00  0.00    +0.003 C 
ATOM     13  C   UNL     1      34.675 -10.662 -26.439  0.00  0.00    +0.015 C 
BRANCH   5  14
ATOM     14  C   UNL     1      31.102  -8.186 -23.547  0.00  0.00    +0.100 C 
BRANCH  14  15
ATOM     15  C   UNL     1      31.358  -7.892 -22.065  0.00  0.00    +0.048 C 
BRANCH  15  17
ATOM     16  N   UNL     1      31.483 -11.414 -19.628  0.00  0.00    -0.242 NA
ATOM     17  C   UNL     1      31.401  -9.131 -21.207  0.00  0.00    -0.017 C 
ATOM     18  C   UNL     1      31.010 -10.344 -21.742  0.00  0.00    +0.016 C 
ATOM     19  C   UNL     1      31.833  -9.038 -19.897  0.00  0.00    +0.016 C 
ATOM     20  C   UNL     1      31.068 -11.453 -20.914  0.00  0.00    +0.099 C 
ATOM     21  C   UNL     1      31.855 -10.205 -19.152  0.00  0.00    +0.099 C 
ENDBRANCH  15  17
ENDBRANCH  14  15
ENDBRANCH   5  14
ENDBRANCH   2  11
BRANCH   3  25
ATOM     22  F   UNL     1      31.275 -17.775 -27.957  0.00  0.00    -0.204 F 
ATOM     23  C   UNL     1      33.335 -16.720 -25.150  0.00  0.00    +0.050 C 
ATOM     24  C   UNL     1      33.460 -15.357 -25.422  0.00  0.00    +0.019 C 
ATOM     25  C   UNL     1      32.844 -14.842 -26.542  0.00  0.00    +0.057 C 
ATOM     26  C   UNL     1      32.597 -17.536 -26.006  0.00  0.00    +0.044 C 
ATOM     27  C   UNL     1      32.109 -15.628 -27.405  0.00  0.00    +0.034 C 
ATOM     28  C   UNL     1      31.983 -16.991 -27.134  0.00  0.00    +0.142 C 
BRANCH  23  30
ATOM     29  O   UNL     1      35.428 -18.321 -21.873  0.00  0.00    -0.350 OA
ATOM     30  N   UNL     1      33.950 -17.267 -24.019  0.00  0.00    -0.303 N 
ATOM     31  C   UNL     1      34.327 -18.685 -24.004  0.00  0.00    +0.123 C 
ATOM     32  C   UNL     1      34.788 -16.388 -23.192  0.00  0.00    +0.123 C 
ATOM     33  C   UNL     1      34.501 -19.156 -22.565  0.00  0.00    +0.164 C 
ATOM     34  C   UNL     1      34.937 -16.982 -21.796  0.00  0.00    +0.164 C 
ENDBRANCH  23  30
ENDBRANCH   3  25
TORSDOF 6
ENDMDL
MODEL 6
REMARK VINA RESULT:     -11.6      3.611      6.993
REMARK  Name = 5326869
REMARK  6 active torsions:
REMARK  status: ('A' for Active; 'I' for Inactive)
REMARK    1  A    between atoms: N_2  and  C_11
REMARK    2  A    between atoms: C_3  and  C_25
REMARK    3  A    between atoms: N_5  and  C_14
REMARK    4  A    between atoms: C_14  and  C_15
REMARK    5  A    between atoms: C_15  and  C_17
REMARK    6  A    between atoms: C_23  and  N_30
REMARK                            x       y       z     vdW  Elec       q    Type
REMARK                         _______ _______ _______ _____ _____    ______ ____
ROOT
ATOM      1  O   UNL     1      32.302 -13.098 -23.167  0.00  0.00    -0.270 OA
ATOM      2  N   UNL     1      33.619 -13.468 -25.079  0.00  0.00    -0.280 N 
ATOM      3  C   UNL     1      33.070 -12.706 -24.038  0.00  0.00    +0.250 C 
ATOM      4  H   UNL     1      34.221 -12.988 -25.693  0.00  0.00    +0.155 HD
ENDROOT
BRANCH   2  11
ATOM      5  N   UNL     1      34.305 -18.272 -24.269  0.00  0.00    -0.286 N 
ATOM      6  C   UNL     1      33.822 -17.129 -24.866  0.00  0.00    +0.053 C 
ATOM      7  C   UNL     1      32.995 -17.532 -25.916  0.00  0.00    +0.015 C 
ATOM      8  C   UNL     1      33.812 -19.380 -24.905  0.00  0.00    +0.065 C 
ATOM      9  C   UNL     1      34.053 -15.783 -24.560  0.00  0.00    +0.029 C 
ATOM     10  C   UNL     1      32.998 -18.955 -25.929  0.00  0.00    +0.017 C 
ATOM     11  C   UNL     1      33.417 -14.822 -25.351  0.00  0.00    +0.052 C 
ATOM     12  C   UNL     1      32.365 -16.544 -26.700  0.00  0.00    +0.003 C 
ATOM     13  C   UNL     1      32.586 -15.195 -26.405  0.00  0.00    +0.015 C 
BRANCH   5  14
ATOM     14  C   UNL     1      35.202 -18.314 -23.135  0.00  0.00    +0.100 C 
BRANCH  14  15
ATOM     15  C   UNL     1      34.489 -18.163 -21.787  0.00  0.00    +0.048 C 
BRANCH  15  17
ATOM     16  N   UNL     1      34.336 -21.802 -19.529  0.00  0.00    -0.242 NA
ATOM     17  C   UNL     1      34.436 -19.443 -20.991  0.00  0.00    -0.017 C 
ATOM     18  C   UNL     1      33.209 -19.988 -20.660  0.00  0.00    +0.016 C 
ATOM     19  C   UNL     1      35.614 -20.055 -20.606  0.00  0.00    +0.016 C 
ATOM     20  C   UNL     1      33.213 -21.165 -19.930  0.00  0.00    +0.099 C 
ATOM     21  C   UNL     1      35.510 -21.229 -19.878  0.00  0.00    +0.099 C 
ENDBRANCH  15  17
ENDBRANCH  14  15
ENDBRANCH   5  14
ENDBRANCH   2  11
BRANCH   3  25
ATOM     22  F   UNL     1      35.883  -9.086 -25.574  0.00  0.00    -0.204 F 
ATOM     23  C   UNL     1      33.109  -9.050 -23.221  0.00  0.00    +0.050 C 
ATOM     24  C   UNL     1      32.748 -10.398 -23.229  0.00  0.00    +0.019 C 
ATOM     25  C   UNL     1      33.455 -11.271 -24.028  0.00  0.00    +0.057 C 
ATOM     26  C   UNL     1      34.167  -8.607 -24.012  0.00  0.00    +0.044 C 
ATOM     27  C   UNL     1      34.506 -10.858 -24.820  0.00  0.00    +0.034 C 
ATOM     28  C   UNL     1      34.867  -9.511 -24.812  0.00  0.00    +0.142 C 
BRANCH  23  30
ATOM     29  O   UNL     1      30.888  -6.541 -20.679  0.00  0.00    -0.350 OA
ATOM     30  N   UNL     1      32.408  -8.144 -22.419  0.00  0.00    -0.303 N 
ATOM     31  C   UNL     1      31.034  -7.765 -22.769  0.00  0.00    +0.123 C 
ATOM     32  C   UNL     1      32.722  -8.100 -20.984  0.00  0.00    +0.123 C 
ATOM     33  C   UNL     1      30.672  -6.451 -22.087  0.00  0.00    +0.164 C 
ATOM     34  C   UNL     1      32.270  -6.768 -20.397  0.00  0.00    +0.164 C 
ENDBRANCH  23  30
ENDBRANCH   3  25
TORSDOF 6
ENDMDL
MODEL 7
REMARK VINA RESULT:     -11.6      3.731      6.086
REMARK  Name = 5326869
REMARK  6 active torsions:
REMARK  status: ('A' for Active; 'I' for Inactive)
REMARK    1  A    between atoms: N_2  and  C_11
REMARK    2  A    between atoms: C_3  and  C_25
REMARK    3  A    between atoms: N_5  and  C_14
REMARK    4  A    between atoms: C_14  and  C_15
REMARK    5  A    between atoms: C_15  and  C_17
REMARK    6  A    between atoms: C_23  and  N_30
REMARK                            x       y       z     vdW  Elec       q    Type
REMARK                         _______ _______ _______ _____ _____    ______ ____
ROOT
ATOM      1  O   UNL     1      32.484 -20.556 -20.027  0.00  0.00    -0.270 OA
ATOM      2  N   UNL     1      34.501 -21.336 -19.104  0.00  0.00    -0.280 N 
ATOM      3  C   UNL     1      33.708 -20.620 -20.011  0.00  0.00    +0.250 C 
ATOM      4  H   UNL     1      35.474 -21.275 -19.239  0.00  0.00    +0.155 HD
ENDROOT
BRANCH   2  11
ATOM      5  N   UNL     1      35.029 -23.362 -14.652  0.00  0.00    -0.286 N 
ATOM      6  C   UNL     1      34.442 -23.056 -15.859  0.00  0.00    +0.053 C 
ATOM      7  C   UNL     1      33.211 -23.713 -15.895  0.00  0.00    +0.015 C 
ATOM      8  C   UNL     1      34.213 -24.187 -13.926  0.00  0.00    +0.065 C 
ATOM      9  C   UNL     1      34.904 -22.257 -16.911  0.00  0.00    +0.029 C 
ATOM     10  C   UNL     1      33.079 -24.423 -14.669  0.00  0.00    +0.017 C 
ATOM     11  C   UNL     1      34.080 -22.126 -18.033  0.00  0.00    +0.052 C 
ATOM     12  C   UNL     1      32.397 -23.566 -17.037  0.00  0.00    +0.003 C 
ATOM     13  C   UNL     1      32.846 -22.769 -18.096  0.00  0.00    +0.015 C 
BRANCH   5  14
ATOM     14  C   UNL     1      36.319 -22.888 -14.199  0.00  0.00    +0.100 C 
BRANCH  14  15
ATOM     15  C   UNL     1      36.968 -23.792 -13.147  0.00  0.00    +0.048 C 
BRANCH  15  17
ATOM     16  N   UNL     1      39.469 -26.839 -14.828  0.00  0.00    -0.242 NA
ATOM     17  C   UNL     1      37.849 -24.864 -13.740  0.00  0.00    -0.017 C 
ATOM     18  C   UNL     1      39.223 -24.742 -13.653  0.00  0.00    +0.016 C 
ATOM     19  C   UNL     1      37.269 -25.955 -14.360  0.00  0.00    +0.016 C 
ATOM     20  C   UNL     1      39.987 -25.753 -14.212  0.00  0.00    +0.099 C 
ATOM     21  C   UNL     1      38.121 -26.912 -14.887  0.00  0.00    +0.099 C 
ENDBRANCH  15  17
ENDBRANCH  14  15
ENDBRANCH   5  14
ENDBRANCH   2  11
BRANCH   3  25
ATOM     22  F   UNL     1      37.834 -18.833 -21.791  0.00  0.00    -0.204 F 
ATOM     23  C   UNL     1      34.464 -18.736 -23.160  0.00  0.00    +0.050 C 
ATOM     24  C   UNL     1      33.763 -19.420 -22.166  0.00  0.00    +0.019 C 
ATOM     25  C   UNL     1      34.453 -19.889 -21.068  0.00  0.00    +0.057 C 
ATOM     26  C   UNL     1      35.838 -18.538 -23.033  0.00  0.00    +0.044 C 
ATOM     27  C   UNL     1      35.813 -19.707 -20.919  0.00  0.00    +0.034 C 
ATOM     28  C   UNL     1      36.513 -19.023 -21.913  0.00  0.00    +0.142 C 
BRANCH  23  30
ATOM     29  O   UNL     1      32.653 -17.338 -26.688  0.00  0.00    -0.350 OA
ATOM     30  N   UNL     1      33.788 -18.249 -24.283  0.00  0.00    -0.303 N 
ATOM     31  C   UNL     1      34.016 -16.872 -24.736  0.00  0.00    +0.123 C 
ATOM     32  C   UNL     1      33.422 -19.202 -25.339  0.00  0.00    +0.123 C 
ATOM     33  C   UNL     1      32.855 -16.420 -25.615  0.00  0.00    +0.164 C 
ATOM     34  C   UNL     1      32.293 -18.626 -26.186  0.00  0.00    +0.164 C 
ENDBRANCH  23  30
ENDBRANCH   3  25
TORSDOF 6
ENDMDL
MODEL 8
REMARK VINA RESULT:     -11.6      4.206      7.954
REMARK  Name = 5326869
REMARK  6 active torsions:
REMARK  status: ('A' for Active; 'I' for Inactive)
REMARK    1  A    between atoms: N_2  and  C_11
REMARK    2  A    between atoms: C_3  and  C_25
REMARK    3  A    between atoms: N_5  and  C_14
REMARK    4  A    between atoms: C_14  and  C_15
REMARK    5  A    between atoms: C_15  and  C_17
REMARK    6  A    between atoms: C_23  and  N_30
REMARK                            x       y       z     vdW  Elec       q    Type
REMARK                         _______ _______ _______ _____ _____    ______ ____
ROOT
ATOM      1  O   UNL     1      34.454 -11.961 -27.526  0.00  0.00    -0.270 OA
ATOM      2  N   UNL     1      32.912 -12.640 -25.886  0.00  0.00    -0.280 N 
ATOM      3  C   UNL     1      33.788 -11.748 -26.520  0.00  0.00    +0.250 C 
ATOM      4  H   UNL     1      32.457 -12.300 -25.082  0.00  0.00    +0.155 HD
ENDROOT
BRANCH   2  11
ATOM      5  N   UNL     1      33.184 -17.527 -25.392  0.00  0.00    -0.286 N 
ATOM      6  C   UNL     1      32.811 -16.311 -25.919  0.00  0.00    +0.053 C 
ATOM      7  C   UNL     1      31.980 -16.574 -27.010  0.00  0.00    +0.015 C 
ATOM      8  C   UNL     1      32.619 -18.546 -26.111  0.00  0.00    +0.065 C 
ATOM      9  C   UNL     1      33.143 -15.012 -25.517  0.00  0.00    +0.029 C 
ATOM     10  C   UNL     1      31.867 -17.988 -27.119  0.00  0.00    +0.017 C 
ATOM     11  C   UNL     1      32.608 -13.951 -26.254  0.00  0.00    +0.052 C 
ATOM     12  C   UNL     1      31.452 -15.487 -27.737  0.00  0.00    +0.003 C 
ATOM     13  C   UNL     1      31.775 -14.183 -27.346  0.00  0.00    +0.015 C 
BRANCH   5  14
ATOM     14  C   UNL     1      34.046 -17.719 -24.246  0.00  0.00    +0.100 C 
BRANCH  14  15
ATOM     15  C   UNL     1      33.613 -18.877 -23.342  0.00  0.00    +0.048 C 
BRANCH  15  17
ATOM     16  N   UNL     1      36.436 -19.766 -20.243  0.00  0.00    -0.242 NA
ATOM     17  C   UNL     1      34.606 -19.189 -22.251  0.00  0.00    -0.017 C 
ATOM     18  C   UNL     1      34.255 -20.065 -21.241  0.00  0.00    +0.016 C 
ATOM     19  C   UNL     1      35.854 -18.596 -22.276  0.00  0.00    +0.016 C 
ATOM     20  C   UNL     1      35.203 -20.320 -20.263  0.00  0.00    +0.099 C 
ATOM     21  C   UNL     1      36.730 -18.916 -21.252  0.00  0.00    +0.099 C 
ENDBRANCH  15  17
ENDBRANCH  14  15
ENDBRANCH   5  14
ENDBRANCH   2  11
BRANCH   3  25
ATOM     22  F   UNL     1      35.483  -7.219 -26.498  0.00  0.00    -0.204 F 
ATOM     23  C   UNL     1      33.441  -8.959 -24.041  0.00  0.00    +0.050 C 
ATOM     24  C   UNL     1      33.314 -10.208 -24.650  0.00  0.00    +0.019 C 
ATOM     25  C   UNL     1      33.924 -10.419 -25.869  0.00  0.00    +0.057 C 
ATOM     26  C   UNL     1      34.173  -7.951 -24.665  0.00  0.00    +0.044 C 
ATOM     27  C   UNL     1      34.654  -9.437 -26.507  0.00  0.00    +0.034 C 
ATOM     28  C   UNL     1      34.780  -8.189 -25.898  0.00  0.00    +0.142 C 
BRANCH  23  30
ATOM     29  O   UNL     1      31.435  -8.070 -20.453  0.00  0.00    -0.350 OA
ATOM     30  N   UNL     1      32.832  -8.720 -22.805  0.00  0.00    -0.303 N 
ATOM     31  C   UNL     1      33.219  -7.547 -22.013  0.00  0.00    +0.123 C 
ATOM     32  C   UNL     1      31.449  -9.176 -22.613  0.00  0.00    +0.123 C 
ATOM     33  C   UNL     1      32.824  -7.756 -20.555  0.00  0.00    +0.164 C 
ATOM     34  C   UNL     1      31.148  -9.298 -21.123  0.00  0.00    +0.164 C 
ENDBRANCH  23  30
ENDBRANCH   3  25
TORSDOF 6
ENDMDL
MODEL 9
REMARK VINA RESULT:     -11.4      3.941     10.576
REMARK  Name = 5326869
REMARK  6 active torsions:
REMARK  status: ('A' for Active; 'I' for Inactive)
REMARK    1  A    between atoms: N_2  and  C_11
REMARK    2  A    between atoms: C_3  and  C_25
REMARK    3  A    between atoms: N_5  and  C_14
REMARK    4  A    between atoms: C_14  and  C_15
REMARK    5  A    between atoms: C_15  and  C_17
REMARK    6  A    between atoms: C_23  and  N_30
REMARK                            x       y       z     vdW  Elec       q    Type
REMARK                         _______ _______ _______ _____ _____    ______ ____
ROOT
ATOM      1  O   UNL     1      32.508 -21.300 -20.315  0.00  0.00    -0.270 OA
ATOM      2  N   UNL     1      34.602 -20.239 -20.190  0.00  0.00    -0.280 N 
ATOM      3  C   UNL     1      33.593 -21.117 -19.774  0.00  0.00    +0.250 C 
ATOM      4  H   UNL     1      35.414 -20.219 -19.633  0.00  0.00    +0.155 HD
ENDROOT
BRANCH   2  11
ATOM      5  N   UNL     1      34.658 -15.819 -22.350  0.00  0.00    -0.286 N 
ATOM      6  C   UNL     1      34.630 -17.191 -22.240  0.00  0.00    +0.053 C 
ATOM      7  C   UNL     1      34.595 -17.707 -23.537  0.00  0.00    +0.015 C 
ATOM      8  C   UNL     1      34.642 -15.452 -23.669  0.00  0.00    +0.065 C 
ATOM      9  C   UNL     1      34.633 -18.006 -21.102  0.00  0.00    +0.029 C 
ATOM     10  C   UNL     1      34.604 -16.598 -24.428  0.00  0.00    +0.017 C 
ATOM     11  C   UNL     1      34.599 -19.390 -21.298  0.00  0.00    +0.052 C 
ATOM     12  C   UNL     1      34.563 -19.106 -23.709  0.00  0.00    +0.003 C 
ATOM     13  C   UNL     1      34.565 -19.933 -22.580  0.00  0.00    +0.015 C 
BRANCH   5  14
ATOM     14  C   UNL     1      34.699 -14.887 -21.244  0.00  0.00    +0.100 C 
BRANCH  14  15
ATOM     15  C   UNL     1      33.338 -14.669 -20.577  0.00  0.00    +0.048 C 
BRANCH  15  17
ATOM     16  N   UNL     1      31.337 -11.120 -21.906  0.00  0.00    -0.242 NA
ATOM     17  C   UNL     1      32.635 -13.420 -21.045  0.00  0.00    -0.017 C 
ATOM     18  C   UNL     1      32.813 -12.982 -22.343  0.00  0.00    +0.016 C 
ATOM     19  C   UNL     1      31.818 -12.729 -20.168  0.00  0.00    +0.016 C 
ATOM     20  C   UNL     1      32.145 -11.830 -22.724  0.00  0.00    +0.099 C 
ATOM     21  C   UNL     1      31.195 -11.589 -20.646  0.00  0.00    +0.099 C 
ENDBRANCH  15  17
ENDBRANCH  14  15
ENDBRANCH   5  14
ENDBRANCH   2  11
BRANCH   3  25
ATOM     22  F   UNL     1      36.728 -22.856 -16.529  0.00  0.00    -0.204 F 
ATOM     23  C   UNL     1      33.102 -23.130 -16.653  0.00  0.00    +0.050 C 
ATOM     24  C   UNL     1      32.830 -22.421 -17.822  0.00  0.00    +0.019 C 
ATOM     25  C   UNL     1      33.881 -21.875 -18.529  0.00  0.00    +0.057 C 
ATOM     26  C   UNL     1      34.418 -23.278 -16.216  0.00  0.00    +0.044 C 
ATOM     27  C   UNL     1      35.192 -22.006 -18.118  0.00  0.00    +0.034 C 
ATOM     28  C   UNL     1      35.464 -22.716 -16.949  0.00  0.00    +0.142 C 
BRANCH  23  30
ATOM     29  O   UNL     1      29.888 -24.571 -14.355  0.00  0.00    -0.350 OA
ATOM     30  N   UNL     1      32.054 -23.694 -15.918  0.00  0.00    -0.303 N 
ATOM     31  C   UNL     1      32.248 -24.025 -14.501  0.00  0.00    +0.123 C 
ATOM     32  C   UNL     1      30.677 -23.349 -16.297  0.00  0.00    +0.123 C 
ATOM     33  C   UNL     1      31.202 -25.045 -14.063  0.00  0.00    +0.164 C 
ATOM     34  C   UNL     1      29.715 -24.404 -15.763  0.00  0.00    +0.164 C 
ENDBRANCH  23  30
ENDBRANCH   3  25
TORSDOF 6
ENDMDL
