MODEL 1
REMARK VINA RESULT:     -12.2      0.000      0.000
REMARK  Name = 52920501
REMARK  9 active torsions:
REMARK  status: ('A' for Active; 'I' for Inactive)
REMARK    1  A    between atoms: N_1  and  C_12
REMARK    2  A    between atoms: C_5  and  O_27
REMARK    3  A    between atoms: C_9  and  C_15
REMARK    4  A    between atoms: C_15  and  S_16
REMARK    5  A    between atoms: S_16  and  N_19
REMARK    6  A    between atoms: N_19  and  C_21
REMARK    7  A    between atoms: C_21  and  C_22
REMARK    8  A    between atoms: C_22  and  N_23
REMARK    9  A    between atoms: O_27  and  C_35
REMARK                            x       y       z     vdW  Elec       q    Type
REMARK                         _______ _______ _______ _____ _____    ______ ____
ROOT
ATOM      1  N   UNL     1      32.190 -22.468 -18.527  0.00  0.00    -0.247 N 
ATOM      2  N   UNL     1      32.961 -22.785 -16.334  0.00  0.00    -0.300 NA
ATOM      3  N   UNL     1      30.763 -23.524 -16.993  0.00  0.00    -0.170 NA
ATOM      4  C   UNL     1      31.961 -22.950 -17.220  0.00  0.00    +0.152 C 
ATOM      5  C   UNL     1      32.706 -23.255 -15.095  0.00  0.00    +0.295 C 
ATOM      6  C   UNL     1      31.522 -23.864 -14.734  0.00  0.00    +0.094 C 
ATOM      7  C   UNL     1      30.577 -23.972 -15.734  0.00  0.00    +0.118 C 
ATOM      8  H   UNL     1      31.433 -22.610 -19.141  0.00  0.00    +0.165 HD
ENDROOT
BRANCH   1  12
ATOM      9  C   UNL     1      34.177 -20.236 -20.713  0.00  0.00    +0.004 C 
ATOM     10  C   UNL     1      33.086 -20.872 -20.121  0.00  0.00    +0.013 C 
ATOM     11  C   UNL     1      35.474 -20.555 -20.309  0.00  0.00    -0.002 C 
ATOM     12  C   UNL     1      33.291 -21.826 -19.125  0.00  0.00    +0.057 C 
ATOM     13  C   UNL     1      35.679 -21.510 -19.313  0.00  0.00    +0.001 C 
ATOM     14  C   UNL     1      34.587 -22.145 -18.721  0.00  0.00    +0.015 C 
BRANCH   9  15
ATOM     15  C   UNL     1      33.958 -19.215 -21.778  0.00  0.00    +0.195 C 
BRANCH  15  16
ATOM     16  S   UNL     1      35.263 -18.033 -21.673  0.00  0.00    +0.045 S 
ATOM     17  O   UNL     1      35.316 -17.524 -20.312  0.00  0.00    -0.157 OA
ATOM     18  O   UNL     1      36.447 -18.619 -22.281  0.00  0.00    -0.157 OA
BRANCH  16  19
ATOM     19  N   UNL     1      34.681 -16.809 -22.716  0.00  0.00    -0.185 NA
ATOM     20  H   UNL     1      35.189 -15.954 -22.487  0.00  0.00    +0.148 HD
BRANCH  19  21
ATOM     21  C   UNL     1      34.792 -17.000 -24.173  0.00  0.00    +0.068 C 
BRANCH  21  22
ATOM     22  C   UNL     1      33.479 -16.606 -24.833  0.00  0.00    -0.058 C 
BRANCH  22  23
ATOM     23  N   UNL     1      32.718 -17.796 -25.195  0.00  0.00    +0.385 N 
ATOM     24  C   UNL     1      31.761 -17.492 -26.261  0.00  0.00    -0.101 C 
ATOM     25  C   UNL     1      33.615 -18.875 -25.612  0.00  0.00    -0.101 C 
ATOM     26  H   UNL     1      32.200 -18.104 -24.372  0.00  0.00    -0.080 HD
ENDBRANCH  22  23
ENDBRANCH  21  22
ENDBRANCH  19  21
ENDBRANCH  16  19
ENDBRANCH  15  16
ENDBRANCH   9  15
ENDBRANCH   1  12
BRANCH   5  27
ATOM     27  O   UNL     1      33.706 -23.110 -14.148  0.00  0.00    -0.427 OA
BRANCH  27  35
ATOM     28  N   UNL     1      38.823 -24.547 -15.494  0.00  0.00    -0.316 N 
ATOM     29  C   UNL     1      36.931 -24.843 -14.349  0.00  0.00    +0.017 C 
ATOM     30  C   UNL     1      37.564 -24.029 -15.292  0.00  0.00    +0.048 C 
ATOM     31  C   UNL     1      39.009 -25.656 -14.715  0.00  0.00    +0.026 C 
ATOM     32  C   UNL     1      37.855 -25.865 -13.994  0.00  0.00    +0.012 C 
ATOM     33  C   UNL     1      35.615 -24.531 -13.957  0.00  0.00    +0.039 C 
ATOM     34  C   UNL     1      36.942 -22.914 -15.864  0.00  0.00    +0.018 C 
ATOM     35  C   UNL     1      34.980 -23.418 -14.522  0.00  0.00    +0.148 C 
ATOM     36  C   UNL     1      35.635 -22.624 -15.460  0.00  0.00    +0.039 C 
ATOM     37  C   UNL     1      40.278 -26.406 -14.739  0.00  0.00    +0.047 C 
ATOM     38  H   UNL     1      39.493 -24.173 -16.112  0.00  0.00    +0.152 HD
ENDBRANCH  27  35
ENDBRANCH   5  27
TORSDOF 9
ENDMDL
MODEL 2
REMARK VINA RESULT:     -12.1      2.905      9.947
REMARK  Name = 52920501
REMARK  9 active torsions:
REMARK  status: ('A' for Active; 'I' for Inactive)
REMARK    1  A    between atoms: N_1  and  C_12
REMARK    2  A    between atoms: C_5  and  O_27
REMARK    3  A    between atoms: C_9  and  C_15
REMARK    4  A    between atoms: C_15  and  S_16
REMARK    5  A    between atoms: S_16  and  N_19
REMARK    6  A    between atoms: N_19  and  C_21
REMARK    7  A    between atoms: C_21  and  C_22
REMARK    8  A    between atoms: C_22  and  N_23
REMARK    9  A    between atoms: O_27  and  C_35
REMARK                            x       y       z     vdW  Elec       q    Type
REMARK                         _______ _______ _______ _____ _____    ______ ____
ROOT
ATOM      1  N   UNL     1      33.915 -22.760 -17.522  0.00  0.00    -0.247 N 
ATOM      2  N   UNL     1      34.758 -21.205 -19.063  0.00  0.00    -0.300 NA
ATOM      3  N   UNL     1      32.453 -21.904 -19.146  0.00  0.00    -0.170 NA
ATOM      4  C   UNL     1      33.699 -21.914 -18.632  0.00  0.00    +0.152 C 
ATOM      5  C   UNL     1      34.516 -20.409 -20.125  0.00  0.00    +0.295 C 
ATOM      6  C   UNL     1      33.287 -20.307 -20.743  0.00  0.00    +0.094 C 
ATOM      7  C   UNL     1      32.282 -21.086 -20.206  0.00  0.00    +0.118 C 
ATOM      8  H   UNL     1      33.113 -23.259 -17.241  0.00  0.00    +0.165 HD
ENDROOT
BRANCH   1  12
ATOM      9  C   UNL     1      36.138 -24.294 -14.989  0.00  0.00    +0.004 C 
ATOM     10  C   UNL     1      35.010 -24.028 -15.766  0.00  0.00    +0.013 C 
ATOM     11  C   UNL     1      37.308 -23.559 -15.184  0.00  0.00    -0.002 C 
ATOM     12  C   UNL     1      35.052 -23.029 -16.738  0.00  0.00    +0.057 C 
ATOM     13  C   UNL     1      37.350 -22.559 -16.156  0.00  0.00    +0.001 C 
ATOM     14  C   UNL     1      36.222 -22.294 -16.933  0.00  0.00    +0.015 C 
BRANCH   9  15
ATOM     15  C   UNL     1      36.093 -25.363 -13.951  0.00  0.00    +0.195 C 
BRANCH  15  16
ATOM     16  S   UNL     1      35.570 -24.626 -12.436  0.00  0.00    +0.045 S 
ATOM     17  O   UNL     1      36.184 -25.350 -11.335  0.00  0.00    -0.157 OA
ATOM     18  O   UNL     1      35.747 -23.187 -12.553  0.00  0.00    -0.157 OA
BRANCH  16  19
ATOM     19  N   UNL     1      33.892 -24.958 -12.471  0.00  0.00    -0.185 NA
ATOM     20  H   UNL     1      33.570 -24.973 -11.504  0.00  0.00    +0.148 HD
BRANCH  19  21
ATOM     21  C   UNL     1      32.999 -24.048 -13.210  0.00  0.00    +0.068 C 
BRANCH  21  22
ATOM     22  C   UNL     1      31.905 -24.859 -13.888  0.00  0.00    -0.058 C 
BRANCH  22  23
ATOM     23  N   UNL     1      30.685 -24.068 -13.999  0.00  0.00    +0.385 N 
ATOM     24  C   UNL     1      30.926 -22.854 -14.781  0.00  0.00    -0.101 C 
ATOM     25  C   UNL     1      29.611 -24.858 -14.605  0.00  0.00    -0.101 C 
ATOM     26  H   UNL     1      30.396 -23.797 -13.059  0.00  0.00    -0.080 HD
ENDBRANCH  22  23
ENDBRANCH  21  22
ENDBRANCH  19  21
ENDBRANCH  16  19
ENDBRANCH  15  16
ENDBRANCH   9  15
ENDBRANCH   1  12
BRANCH   5  27
ATOM     27  O   UNL     1      35.576 -19.658 -20.605  0.00  0.00    -0.427 OA
BRANCH  27  35
ATOM     28  N   UNL     1      34.407 -15.445 -23.913  0.00  0.00    -0.316 N 
ATOM     29  C   UNL     1      34.727 -16.330 -21.890  0.00  0.00    +0.017 C 
ATOM     30  C   UNL     1      34.716 -16.614 -23.258  0.00  0.00    +0.048 C 
ATOM     31  C   UNL     1      34.221 -14.432 -23.011  0.00  0.00    +0.026 C 
ATOM     32  C   UNL     1      34.413 -14.949 -21.749  0.00  0.00    +0.012 C 
ATOM     33  C   UNL     1      35.020 -17.367 -20.983  0.00  0.00    +0.039 C 
ATOM     34  C   UNL     1      34.985 -17.891 -23.765  0.00  0.00    +0.018 C 
ATOM     35  C   UNL     1      35.291 -18.649 -21.476  0.00  0.00    +0.148 C 
ATOM     36  C   UNL     1      35.273 -18.904 -22.846  0.00  0.00    +0.039 C 
ATOM     37  C   UNL     1      33.877 -13.068 -23.449  0.00  0.00    +0.047 C 
ATOM     38  H   UNL     1      34.330 -15.349 -24.890  0.00  0.00    +0.152 HD
ENDBRANCH  27  35
ENDBRANCH   5  27
TORSDOF 9
ENDMDL
MODEL 3
REMARK VINA RESULT:     -11.4      1.621      4.964
REMARK  Name = 52920501
REMARK  9 active torsions:
REMARK  status: ('A' for Active; 'I' for Inactive)
REMARK    1  A    between atoms: N_1  and  C_12
REMARK    2  A    between atoms: C_5  and  O_27
REMARK    3  A    between atoms: C_9  and  C_15
REMARK    4  A    between atoms: C_15  and  S_16
REMARK    5  A    between atoms: S_16  and  N_19
REMARK    6  A    between atoms: N_19  and  C_21
REMARK    7  A    between atoms: C_21  and  C_22
REMARK    8  A    between atoms: C_22  and  N_23
REMARK    9  A    between atoms: O_27  and  C_35
REMARK                            x       y       z     vdW  Elec       q    Type
REMARK                         _______ _______ _______ _____ _____    ______ ____
ROOT
ATOM      1  N   UNL     1      36.257 -21.916 -17.629  0.00  0.00    -0.247 N 
ATOM      2  N   UNL     1      35.213 -23.489 -16.236  0.00  0.00    -0.300 NA
ATOM      3  N   UNL     1      37.491 -22.808 -15.844  0.00  0.00    -0.170 NA
ATOM      4  C   UNL     1      36.323 -22.780 -16.515  0.00  0.00    +0.152 C 
ATOM      5  C   UNL     1      35.312 -24.305 -15.166  0.00  0.00    +0.295 C 
ATOM      6  C   UNL     1      36.450 -24.424 -14.396  0.00  0.00    +0.094 C 
ATOM      7  C   UNL     1      37.520 -23.644 -14.786  0.00  0.00    +0.118 C 
ATOM      8  H   UNL     1      37.090 -21.418 -17.795  0.00  0.00    +0.165 HD
ENDROOT
BRANCH   1  12
ATOM      9  C   UNL     1      34.504 -20.638 -20.630  0.00  0.00    +0.004 C 
ATOM     10  C   UNL     1      35.521 -20.925 -19.719  0.00  0.00    +0.013 C 
ATOM     11  C   UNL     1      33.198 -21.052 -20.370  0.00  0.00    -0.002 C 
ATOM     12  C   UNL     1      35.232 -21.626 -18.549  0.00  0.00    +0.057 C 
ATOM     13  C   UNL     1      32.908 -21.753 -19.199  0.00  0.00    +0.001 C 
ATOM     14  C   UNL     1      33.925 -22.039 -18.288  0.00  0.00    +0.015 C 
BRANCH   9  15
ATOM     15  C   UNL     1      34.814 -19.889 -21.882  0.00  0.00    +0.195 C 
BRANCH  15  16
ATOM     16  S   UNL     1      35.836 -18.516 -21.454  0.00  0.00    +0.045 S 
ATOM     17  O   UNL     1      35.134 -17.708 -20.470  0.00  0.00    -0.157 OA
ATOM     18  O   UNL     1      37.169 -19.023 -21.166  0.00  0.00    -0.157 OA
BRANCH  16  19
ATOM     19  N   UNL     1      35.896 -17.676 -22.942  0.00  0.00    -0.185 NA
ATOM     20  H   UNL     1      36.029 -18.374 -23.674  0.00  0.00    +0.148 HD
BRANCH  19  21
ATOM     21  C   UNL     1      34.745 -16.847 -23.342  0.00  0.00    +0.068 C 
BRANCH  21  22
ATOM     22  C   UNL     1      34.511 -16.999 -24.838  0.00  0.00    -0.058 C 
BRANCH  22  23
ATOM     23  N   UNL     1      33.123 -17.359 -25.098  0.00  0.00    +0.385 N 
ATOM     24  C   UNL     1      32.544 -16.479 -26.115  0.00  0.00    -0.101 C 
ATOM     25  C   UNL     1      33.023 -18.757 -25.521  0.00  0.00    -0.101 C 
ATOM     26  H   UNL     1      32.597 -17.244 -24.232  0.00  0.00    -0.080 HD
ENDBRANCH  22  23
ENDBRANCH  21  22
ENDBRANCH  19  21
ENDBRANCH  16  19
ENDBRANCH  15  16
ENDBRANCH   9  15
ENDBRANCH   1  12
BRANCH   5  27
ATOM     27  O   UNL     1      34.195 -25.054 -14.839  0.00  0.00    -0.427 OA
BRANCH  27  35
ATOM     28  N   UNL     1      29.342 -22.506 -14.713  0.00  0.00    -0.316 N 
ATOM     29  C   UNL     1      30.894 -23.737 -15.740  0.00  0.00    +0.017 C 
ATOM     30  C   UNL     1      30.584 -23.075 -14.550  0.00  0.00    +0.048 C 
ATOM     31  C   UNL     1      28.856 -22.782 -15.962  0.00  0.00    +0.026 C 
ATOM     32  C   UNL     1      29.794 -23.543 -16.623  0.00  0.00    +0.012 C 
ATOM     33  C   UNL     1      32.126 -24.413 -15.841  0.00  0.00    +0.039 C 
ATOM     34  C   UNL     1      31.449 -23.057 -13.450  0.00  0.00    +0.018 C 
ATOM     35  C   UNL     1      33.001 -24.402 -14.749  0.00  0.00    +0.148 C 
ATOM     36  C   UNL     1      32.666 -23.734 -13.573  0.00  0.00    +0.039 C 
ATOM     37  C   UNL     1      27.538 -22.288 -16.399  0.00  0.00    +0.047 C 
ATOM     38  H   UNL     1      28.871 -21.976 -14.030  0.00  0.00    +0.152 HD
ENDBRANCH  27  35
ENDBRANCH   5  27
TORSDOF 9
ENDMDL
MODEL 4
REMARK VINA RESULT:     -11.3      4.897      9.704
REMARK  Name = 52920501
REMARK  9 active torsions:
REMARK  status: ('A' for Active; 'I' for Inactive)
REMARK    1  A    between atoms: N_1  and  C_12
REMARK    2  A    between atoms: C_5  and  O_27
REMARK    3  A    between atoms: C_9  and  C_15
REMARK    4  A    between atoms: C_15  and  S_16
REMARK    5  A    between atoms: S_16  and  N_19
REMARK    6  A    between atoms: N_19  and  C_21
REMARK    7  A    between atoms: C_21  and  C_22
REMARK    8  A    between atoms: C_22  and  N_23
REMARK    9  A    between atoms: O_27  and  C_35
REMARK                            x       y       z     vdW  Elec       q    Type
REMARK                         _______ _______ _______ _____ _____    ______ ____
ROOT
ATOM      1  N   UNL     1      32.923 -15.353 -26.804  0.00  0.00    -0.247 N 
ATOM      2  N   UNL     1      34.066 -16.326 -25.001  0.00  0.00    -0.300 NA
ATOM      3  N   UNL     1      32.749 -17.674 -26.503  0.00  0.00    -0.170 NA
ATOM      4  C   UNL     1      33.263 -16.508 -26.066  0.00  0.00    +0.152 C 
ATOM      5  C   UNL     1      34.369 -17.450 -24.319  0.00  0.00    +0.295 C 
ATOM      6  C   UNL     1      33.908 -18.704 -24.663  0.00  0.00    +0.094 C 
ATOM      7  C   UNL     1      33.093 -18.756 -25.775  0.00  0.00    +0.118 C 
ATOM      8  H   UNL     1      32.335 -15.533 -27.574  0.00  0.00    +0.165 HD
ENDROOT
BRANCH   1  12
ATOM      9  C   UNL     1      33.347 -11.995 -25.303  0.00  0.00    +0.004 C 
ATOM     10  C   UNL     1      33.012 -13.341 -25.450  0.00  0.00    +0.013 C 
ATOM     11  C   UNL     1      33.931 -11.303 -26.365  0.00  0.00    -0.002 C 
ATOM     12  C   UNL     1      33.261 -13.995 -26.656  0.00  0.00    +0.057 C 
ATOM     13  C   UNL     1      34.180 -11.957 -27.572  0.00  0.00    +0.001 C 
ATOM     14  C   UNL     1      33.844 -13.303 -27.717  0.00  0.00    +0.015 C 
BRANCH   9  15
ATOM     15  C   UNL     1      33.081 -11.297 -24.013  0.00  0.00    +0.195 C 
BRANCH  15  16
ATOM     16  S   UNL     1      32.889  -9.577 -24.357  0.00  0.00    +0.045 S 
ATOM     17  O   UNL     1      34.156  -8.912 -24.103  0.00  0.00    -0.157 OA
ATOM     18  O   UNL     1      32.244  -9.450 -25.654  0.00  0.00    -0.157 OA
BRANCH  16  19
ATOM     19  N   UNL     1      31.758  -9.127 -23.155  0.00  0.00    -0.185 NA
ATOM     20  H   UNL     1      30.833  -9.374 -23.507  0.00  0.00    +0.148 HD
BRANCH  19  21
ATOM     21  C   UNL     1      31.877  -9.713 -21.808  0.00  0.00    +0.068 C 
BRANCH  21  22
ATOM     22  C   UNL     1      30.605 -10.482 -21.481  0.00  0.00    -0.058 C 
BRANCH  22  23
ATOM     23  N   UNL     1      30.816 -11.337 -20.319  0.00  0.00    +0.385 N 
ATOM     24  C   UNL     1      31.594 -12.522 -20.685  0.00  0.00    -0.101 C 
ATOM     25  C   UNL     1      31.491 -10.598 -19.250  0.00  0.00    -0.101 C 
ATOM     26  H   UNL     1      29.904 -11.641 -19.978  0.00  0.00    -0.080 HD
ENDBRANCH  22  23
ENDBRANCH  21  22
ENDBRANCH  19  21
ENDBRANCH  16  19
ENDBRANCH  15  16
ENDBRANCH   9  15
ENDBRANCH   1  12
BRANCH   5  27
ATOM     27  O   UNL     1      35.194 -17.314 -23.215  0.00  0.00    -0.427 OA
BRANCH  27  35
ATOM     28  N   UNL     1      34.827 -21.302 -19.471  0.00  0.00    -0.316 N 
ATOM     29  C   UNL     1      33.914 -19.861 -20.908  0.00  0.00    +0.017 C 
ATOM     30  C   UNL     1      35.125 -20.315 -20.381  0.00  0.00    +0.048 C 
ATOM     31  C   UNL     1      33.473 -21.490 -19.402  0.00  0.00    +0.026 C 
ATOM     32  C   UNL     1      32.880 -20.611 -20.281  0.00  0.00    +0.012 C 
ATOM     33  C   UNL     1      33.935 -18.837 -21.875  0.00  0.00    +0.039 C 
ATOM     34  C   UNL     1      36.362 -19.793 -20.776  0.00  0.00    +0.018 C 
ATOM     35  C   UNL     1      35.165 -18.305 -22.279  0.00  0.00    +0.148 C 
ATOM     36  C   UNL     1      36.358 -18.777 -21.737  0.00  0.00    +0.039 C 
ATOM     37  C   UNL     1      32.882 -22.493 -18.499  0.00  0.00    +0.047 C 
ATOM     38  H   UNL     1      35.492 -21.803 -18.944  0.00  0.00    +0.152 HD
ENDBRANCH  27  35
ENDBRANCH   5  27
TORSDOF 9
ENDMDL
MODEL 5
REMARK VINA RESULT:     -11.3      5.002      9.111
REMARK  Name = 52920501
REMARK  9 active torsions:
REMARK  status: ('A' for Active; 'I' for Inactive)
REMARK    1  A    between atoms: N_1  and  C_12
REMARK    2  A    between atoms: C_5  and  O_27
REMARK    3  A    between atoms: C_9  and  C_15
REMARK    4  A    between atoms: C_15  and  S_16
REMARK    5  A    between atoms: S_16  and  N_19
REMARK    6  A    between atoms: N_19  and  C_21
REMARK    7  A    between atoms: C_21  and  C_22
REMARK    8  A    between atoms: C_22  and  N_23
REMARK    9  A    between atoms: O_27  and  C_35
REMARK                            x       y       z     vdW  Elec       q    Type
REMARK                         _______ _______ _______ _____ _____    ______ ____
ROOT
ATOM      1  N   UNL     1      33.381 -15.785 -25.578  0.00  0.00    -0.247 N 
ATOM      2  N   UNL     1      34.309 -17.257 -24.003  0.00  0.00    -0.300 NA
ATOM      3  N   UNL     1      33.629 -18.040 -26.179  0.00  0.00    -0.170 NA
ATOM      4  C   UNL     1      33.794 -17.091 -25.236  0.00  0.00    +0.152 C 
ATOM      5  C   UNL     1      34.691 -18.517 -23.711  0.00  0.00    +0.295 C 
ATOM      6  C   UNL     1      34.577 -19.577 -24.587  0.00  0.00    +0.094 C 
ATOM      7  C   UNL     1      34.033 -19.276 -25.819  0.00  0.00    +0.118 C 
ATOM      8  H   UNL     1      33.012 -15.711 -26.487  0.00  0.00    +0.165 HD
ENDROOT
BRANCH   1  12
ATOM      9  C   UNL     1      33.100 -12.170 -24.827  0.00  0.00    +0.004 C 
ATOM     10  C   UNL     1      33.085 -13.376 -25.527  0.00  0.00    +0.013 C 
ATOM     11  C   UNL     1      33.428 -12.155 -23.471  0.00  0.00    -0.002 C 
ATOM     12  C   UNL     1      33.397 -14.567 -24.872  0.00  0.00    +0.057 C 
ATOM     13  C   UNL     1      33.740 -13.346 -22.815  0.00  0.00    +0.001 C 
ATOM     14  C   UNL     1      33.725 -14.552 -23.516  0.00  0.00    +0.015 C 
BRANCH   9  15
ATOM     15  C   UNL     1      32.766 -10.897 -25.528  0.00  0.00    +0.195 C 
BRANCH  15  16
ATOM     16  S   UNL     1      34.205  -9.877 -25.514  0.00  0.00    +0.045 S 
ATOM     17  O   UNL     1      35.374 -10.726 -25.675  0.00  0.00    -0.157 OA
ATOM     18  O   UNL     1      33.976  -8.767 -26.427  0.00  0.00    -0.157 OA
BRANCH  16  19
ATOM     19  N   UNL     1      34.159  -9.268 -23.916  0.00  0.00    -0.185 NA
ATOM     20  H   UNL     1      35.086  -8.892 -23.713  0.00  0.00    +0.148 HD
BRANCH  19  21
ATOM     21  C   UNL     1      33.183  -8.216 -23.581  0.00  0.00    +0.068 C 
BRANCH  21  22
ATOM     22  C   UNL     1      33.080  -8.091 -22.068  0.00  0.00    -0.058 C 
BRANCH  22  23
ATOM     23  N   UNL     1      32.009  -8.940 -21.562  0.00  0.00    +0.385 N 
ATOM     24  C   UNL     1      31.481  -8.410 -20.303  0.00  0.00    -0.101 C 
ATOM     25  C   UNL     1      30.936  -9.063 -22.551  0.00  0.00    -0.101 C 
ATOM     26  H   UNL     1      32.396  -9.868 -21.386  0.00  0.00    -0.080 HD
ENDBRANCH  22  23
ENDBRANCH  21  22
ENDBRANCH  19  21
ENDBRANCH  16  19
ENDBRANCH  15  16
ENDBRANCH   9  15
ENDBRANCH   1  12
BRANCH   5  27
ATOM     27  O   UNL     1      35.229 -18.737 -22.454  0.00  0.00    -0.427 OA
BRANCH  27  35
ATOM     28  N   UNL     1      32.564 -21.923 -18.874  0.00  0.00    -0.316 N 
ATOM     29  C   UNL     1      34.438 -21.125 -19.785  0.00  0.00    +0.017 C 
ATOM     30  C   UNL     1      33.044 -21.064 -19.836  0.00  0.00    +0.048 C 
ATOM     31  C   UNL     1      33.604 -22.524 -18.217  0.00  0.00    +0.026 C 
ATOM     32  C   UNL     1      34.777 -22.051 -18.759  0.00  0.00    +0.012 C 
ATOM     33  C   UNL     1      35.186 -20.332 -20.678  0.00  0.00    +0.039 C 
ATOM     34  C   UNL     1      32.357 -20.245 -20.740  0.00  0.00    +0.018 C 
ATOM     35  C   UNL     1      34.513 -19.508 -21.587  0.00  0.00    +0.148 C 
ATOM     36  C   UNL     1      33.120 -19.467 -21.616  0.00  0.00    +0.039 C 
ATOM     37  C   UNL     1      33.367 -23.495 -17.134  0.00  0.00    +0.047 C 
ATOM     38  H   UNL     1      31.611 -22.082 -18.685  0.00  0.00    +0.152 HD
ENDBRANCH  27  35
ENDBRANCH   5  27
TORSDOF 9
ENDMDL
MODEL 6
REMARK VINA RESULT:     -11.2      5.550     10.161
REMARK  Name = 52920501
REMARK  9 active torsions:
REMARK  status: ('A' for Active; 'I' for Inactive)
REMARK    1  A    between atoms: N_1  and  C_12
REMARK    2  A    between atoms: C_5  and  O_27
REMARK    3  A    between atoms: C_9  and  C_15
REMARK    4  A    between atoms: C_15  and  S_16
REMARK    5  A    between atoms: S_16  and  N_19
REMARK    6  A    between atoms: N_19  and  C_21
REMARK    7  A    between atoms: C_21  and  C_22
REMARK    8  A    between atoms: C_22  and  N_23
REMARK    9  A    between atoms: O_27  and  C_35
REMARK                            x       y       z     vdW  Elec       q    Type
REMARK                         _______ _______ _______ _____ _____    ______ ____
ROOT
ATOM      1  N   UNL     1      32.850 -15.264 -26.869  0.00  0.00    -0.247 N 
ATOM      2  N   UNL     1      34.002 -16.238 -25.072  0.00  0.00    -0.300 NA
ATOM      3  N   UNL     1      32.656 -17.581 -26.552  0.00  0.00    -0.170 NA
ATOM      4  C   UNL     1      33.187 -16.418 -26.128  0.00  0.00    +0.152 C 
ATOM      5  C   UNL     1      34.302 -17.361 -24.386  0.00  0.00    +0.295 C 
ATOM      6  C   UNL     1      33.824 -18.612 -24.718  0.00  0.00    +0.094 C 
ATOM      7  C   UNL     1      32.997 -18.662 -25.821  0.00  0.00    +0.118 C 
ATOM      8  H   UNL     1      32.253 -15.442 -27.631  0.00  0.00    +0.165 HD
ENDROOT
BRANCH   1  12
ATOM      9  C   UNL     1      33.237 -11.876 -25.428  0.00  0.00    +0.004 C 
ATOM     10  C   UNL     1      32.886 -13.219 -25.563  0.00  0.00    +0.013 C 
ATOM     11  C   UNL     1      33.905 -11.222 -26.464  0.00  0.00    -0.002 C 
ATOM     12  C   UNL     1      33.204 -13.909 -26.732  0.00  0.00    +0.057 C 
ATOM     13  C   UNL     1      34.222 -11.912 -27.635  0.00  0.00    +0.001 C 
ATOM     14  C   UNL     1      33.871 -13.255 -27.768  0.00  0.00    +0.015 C 
BRANCH   9  15
ATOM     15  C   UNL     1      32.898 -11.138 -24.177  0.00  0.00    +0.195 C 
BRANCH  15  16
ATOM     16  S   UNL     1      32.996  -9.411 -24.522  0.00  0.00    +0.045 S 
ATOM     17  O   UNL     1      34.358  -8.968 -24.276  0.00  0.00    -0.157 OA
ATOM     18  O   UNL     1      32.374  -9.177 -25.816  0.00  0.00    -0.157 OA
BRANCH  16  19
ATOM     19  N   UNL     1      31.964  -8.777 -23.314  0.00  0.00    -0.185 NA
ATOM     20  H   UNL     1      31.030  -9.145 -23.495  0.00  0.00    +0.148 HD
BRANCH  19  21
ATOM     21  C   UNL     1      32.269  -9.052 -21.898  0.00  0.00    +0.068 C 
BRANCH  21  22
ATOM     22  C   UNL     1      32.909  -7.821 -21.274  0.00  0.00    -0.058 C 
BRANCH  22  23
ATOM     23  N   UNL     1      32.443  -7.648 -19.903  0.00  0.00    +0.385 N 
ATOM     24  C   UNL     1      31.901  -6.302 -19.708  0.00  0.00    -0.101 C 
ATOM     25  C   UNL     1      31.433  -8.655 -19.571  0.00  0.00    -0.101 C 
ATOM     26  H   UNL     1      33.241  -7.770 -19.279  0.00  0.00    -0.080 HD
ENDBRANCH  22  23
ENDBRANCH  21  22
ENDBRANCH  19  21
ENDBRANCH  16  19
ENDBRANCH  15  16
ENDBRANCH   9  15
ENDBRANCH   1  12
BRANCH   5  27
ATOM     27  O   UNL     1      35.139 -17.227 -23.292  0.00  0.00    -0.427 OA
BRANCH  27  35
ATOM     28  N   UNL     1      34.853 -21.247 -19.574  0.00  0.00    -0.316 N 
ATOM     29  C   UNL     1      33.909 -19.794 -20.980  0.00  0.00    +0.017 C 
ATOM     30  C   UNL     1      35.132 -20.251 -20.482  0.00  0.00    +0.048 C 
ATOM     31  C   UNL     1      33.501 -21.436 -19.479  0.00  0.00    +0.026 C 
ATOM     32  C   UNL     1      32.889 -20.550 -20.337  0.00  0.00    +0.012 C 
ATOM     33  C   UNL     1      33.909 -18.762 -21.938  0.00  0.00    +0.039 C 
ATOM     34  C   UNL     1      36.359 -19.725 -20.899  0.00  0.00    +0.018 C 
ATOM     35  C   UNL     1      35.130 -18.226 -22.364  0.00  0.00    +0.148 C 
ATOM     36  C   UNL     1      36.335 -18.701 -21.851  0.00  0.00    +0.039 C 
ATOM     37  C   UNL     1      32.930 -22.447 -18.572  0.00  0.00    +0.047 C 
ATOM     38  H   UNL     1      35.530 -21.751 -19.066  0.00  0.00    +0.152 HD
ENDBRANCH  27  35
ENDBRANCH   5  27
TORSDOF 9
ENDMDL
MODEL 7
REMARK VINA RESULT:     -11.1      2.771     10.441
REMARK  Name = 52920501
REMARK  9 active torsions:
REMARK  status: ('A' for Active; 'I' for Inactive)
REMARK    1  A    between atoms: N_1  and  C_12
REMARK    2  A    between atoms: C_5  and  O_27
REMARK    3  A    between atoms: C_9  and  C_15
REMARK    4  A    between atoms: C_15  and  S_16
REMARK    5  A    between atoms: S_16  and  N_19
REMARK    6  A    between atoms: N_19  and  C_21
REMARK    7  A    between atoms: C_21  and  C_22
REMARK    8  A    between atoms: C_22  and  N_23
REMARK    9  A    between atoms: O_27  and  C_35
REMARK                            x       y       z     vdW  Elec       q    Type
REMARK                         _______ _______ _______ _____ _____    ______ ____
ROOT
ATOM      1  N   UNL     1      33.664 -22.572 -17.849  0.00  0.00    -0.247 N 
ATOM      2  N   UNL     1      34.582 -20.928 -19.249  0.00  0.00    -0.300 NA
ATOM      3  N   UNL     1      32.346 -21.752 -19.609  0.00  0.00    -0.170 NA
ATOM      4  C   UNL     1      33.524 -21.708 -18.957  0.00  0.00    +0.152 C 
ATOM      5  C   UNL     1      34.413 -20.116 -20.314  0.00  0.00    +0.295 C 
ATOM      6  C   UNL     1      33.257 -20.066 -21.064  0.00  0.00    +0.094 C 
ATOM      7  C   UNL     1      32.246 -20.915 -20.662  0.00  0.00    +0.118 C 
ATOM      8  H   UNL     1      32.867 -23.123 -17.672  0.00  0.00    +0.165 HD
ENDROOT
BRANCH   1  12
ATOM      9  C   UNL     1      35.576 -23.855 -14.950  0.00  0.00    +0.004 C 
ATOM     10  C   UNL     1      34.529 -23.630 -15.843  0.00  0.00    +0.013 C 
ATOM     11  C   UNL     1      36.815 -23.249 -15.161  0.00  0.00    -0.002 C 
ATOM     12  C   UNL     1      34.720 -22.800 -16.947  0.00  0.00    +0.057 C 
ATOM     13  C   UNL     1      37.007 -22.418 -16.265  0.00  0.00    +0.001 C 
ATOM     14  C   UNL     1      35.959 -22.194 -17.158  0.00  0.00    +0.015 C 
BRANCH   9  15
ATOM     15  C   UNL     1      35.372 -24.743 -13.770  0.00  0.00    +0.195 C 
BRANCH  15  16
ATOM     16  S   UNL     1      35.726 -23.806 -12.318  0.00  0.00    +0.045 S 
ATOM     17  O   UNL     1      36.318 -22.540 -12.719  0.00  0.00    -0.157 OA
ATOM     18  O   UNL     1      34.541 -23.823 -11.474  0.00  0.00    -0.157 OA
BRANCH  16  19
ATOM     19  N   UNL     1      36.918 -24.784 -11.579  0.00  0.00    -0.185 NA
ATOM     20  H   UNL     1      36.507 -25.164 -10.726  0.00  0.00    +0.148 HD
BRANCH  19  21
ATOM     21  C   UNL     1      37.477 -25.921 -12.333  0.00  0.00    +0.068 C 
BRANCH  21  22
ATOM     22  C   UNL     1      38.625 -25.432 -13.203  0.00  0.00    -0.058 C 
BRANCH  22  23
ATOM     23  N   UNL     1      38.970 -26.439 -14.198  0.00  0.00    +0.385 N 
ATOM     24  C   UNL     1      37.801 -26.786 -15.008  0.00  0.00    -0.101 C 
ATOM     25  C   UNL     1      40.059 -25.967 -15.055  0.00  0.00    -0.101 C 
ATOM     26  H   UNL     1      39.284 -27.277 -13.707  0.00  0.00    -0.080 HD
ENDBRANCH  22  23
ENDBRANCH  21  22
ENDBRANCH  19  21
ENDBRANCH  16  19
ENDBRANCH  15  16
ENDBRANCH   9  15
ENDBRANCH   1  12
BRANCH   5  27
ATOM     27  O   UNL     1      35.474 -19.294 -20.653  0.00  0.00    -0.427 OA
BRANCH  27  35
ATOM     28  N   UNL     1      34.454 -15.073 -24.001  0.00  0.00    -0.316 N 
ATOM     29  C   UNL     1      34.630 -15.976 -21.968  0.00  0.00    +0.017 C 
ATOM     30  C   UNL     1      34.744 -16.242 -23.335  0.00  0.00    +0.048 C 
ATOM     31  C   UNL     1      34.160 -14.080 -23.106  0.00  0.00    +0.026 C 
ATOM     32  C   UNL     1      34.261 -14.608 -21.839  0.00  0.00    +0.012 C 
ATOM     33  C   UNL     1      34.879 -17.016 -21.051  0.00  0.00    +0.039 C 
ATOM     34  C   UNL     1      35.096 -17.502 -23.832  0.00  0.00    +0.018 C 
ATOM     35  C   UNL     1      35.232 -18.282 -21.534  0.00  0.00    +0.148 C 
ATOM     36  C   UNL     1      35.338 -18.519 -22.903  0.00  0.00    +0.039 C 
ATOM     37  C   UNL     1      33.811 -12.721 -23.557  0.00  0.00    +0.047 C 
ATOM     38  H   UNL     1      34.457 -14.967 -24.980  0.00  0.00    +0.152 HD
ENDBRANCH  27  35
ENDBRANCH   5  27
TORSDOF 9
ENDMDL
MODEL 8
REMARK VINA RESULT:     -11.1      6.440     11.821
REMARK  Name = 52920501
REMARK  9 active torsions:
REMARK  status: ('A' for Active; 'I' for Inactive)
REMARK    1  A    between atoms: N_1  and  C_12
REMARK    2  A    between atoms: C_5  and  O_27
REMARK    3  A    between atoms: C_9  and  C_15
REMARK    4  A    between atoms: C_15  and  S_16
REMARK    5  A    between atoms: S_16  and  N_19
REMARK    6  A    between atoms: N_19  and  C_21
REMARK    7  A    between atoms: C_21  and  C_22
REMARK    8  A    between atoms: C_22  and  N_23
REMARK    9  A    between atoms: O_27  and  C_35
REMARK                            x       y       z     vdW  Elec       q    Type
REMARK                         _______ _______ _______ _____ _____    ______ ____
ROOT
ATOM      1  N   UNL     1      32.317 -11.788 -26.549  0.00  0.00    -0.247 N 
ATOM      2  N   UNL     1      33.339 -13.899 -26.494  0.00  0.00    -0.300 NA
ATOM      3  N   UNL     1      31.145 -13.610 -27.450  0.00  0.00    -0.170 NA
ATOM      4  C   UNL     1      32.265 -13.167 -26.846  0.00  0.00    +0.152 C 
ATOM      5  C   UNL     1      33.254 -15.213 -26.791  0.00  0.00    +0.295 C 
ATOM      6  C   UNL     1      32.164 -15.791 -27.409  0.00  0.00    +0.094 C 
ATOM      7  C   UNL     1      31.128 -14.932 -27.718  0.00  0.00    +0.118 C 
ATOM      8  H   UNL     1      31.512 -11.292 -26.824  0.00  0.00    +0.165 HD
ENDROOT
BRANCH   1  12
ATOM      9  C   UNL     1      33.951  -9.439 -24.199  0.00  0.00    +0.004 C 
ATOM     10  C   UNL     1      32.980 -10.237 -24.803  0.00  0.00    +0.013 C 
ATOM     11  C   UNL     1      35.239  -9.385 -24.731  0.00  0.00    -0.002 C 
ATOM     12  C   UNL     1      33.297 -10.982 -25.939  0.00  0.00    +0.057 C 
ATOM     13  C   UNL     1      35.557 -10.130 -25.867  0.00  0.00    +0.001 C 
ATOM     14  C   UNL     1      34.585 -10.928 -26.471  0.00  0.00    +0.015 C 
BRANCH   9  15
ATOM     15  C   UNL     1      33.612  -8.644 -22.984  0.00  0.00    +0.195 C 
BRANCH  15  16
ATOM     16  S   UNL     1      32.264  -7.580 -23.391  0.00  0.00    +0.045 S 
ATOM     17  O   UNL     1      32.436  -6.325 -22.678  0.00  0.00    -0.157 OA
ATOM     18  O   UNL     1      32.111  -7.585 -24.837  0.00  0.00    -0.157 OA
BRANCH  16  19
ATOM     19  N   UNL     1      30.951  -8.443 -22.715  0.00  0.00    -0.185 NA
ATOM     20  H   UNL     1      30.657  -9.132 -23.408  0.00  0.00    +0.148 HD
BRANCH  19  21
ATOM     21  C   UNL     1      31.149  -9.166 -21.446  0.00  0.00    +0.068 C 
BRANCH  21  22
ATOM     22  C   UNL     1      30.927 -10.654 -21.675  0.00  0.00    -0.058 C 
BRANCH  22  23
ATOM     23  N   UNL     1      30.927 -11.367 -20.404  0.00  0.00    +0.385 N 
ATOM     24  C   UNL     1      31.589 -12.666 -20.542  0.00  0.00    -0.101 C 
ATOM     25  C   UNL     1      31.584 -10.571 -19.366  0.00  0.00    -0.101 C 
ATOM     26  H   UNL     1      29.958 -11.524 -20.127  0.00  0.00    -0.080 HD
ENDBRANCH  22  23
ENDBRANCH  21  22
ENDBRANCH  19  21
ENDBRANCH  16  19
ENDBRANCH  15  16
ENDBRANCH   9  15
ENDBRANCH   1  12
BRANCH   5  27
ATOM     27  O   UNL     1      34.335 -16.008 -26.449  0.00  0.00    -0.427 OA
BRANCH  27  35
ATOM     28  N   UNL     1      34.648 -17.987 -21.346  0.00  0.00    -0.316 N 
ATOM     29  C   UNL     1      34.461 -18.253 -23.553  0.00  0.00    +0.017 C 
ATOM     30  C   UNL     1      34.585 -17.302 -22.538  0.00  0.00    +0.048 C 
ATOM     31  C   UNL     1      34.569 -19.335 -21.570  0.00  0.00    +0.026 C 
ATOM     32  C   UNL     1      34.452 -19.532 -22.928  0.00  0.00    +0.012 C 
ATOM     33  C   UNL     1      34.376 -17.814 -24.889  0.00  0.00    +0.039 C 
ATOM     34  C   UNL     1      34.627 -15.927 -22.794  0.00  0.00    +0.018 C 
ATOM     35  C   UNL     1      34.417 -16.441 -25.159  0.00  0.00    +0.148 C 
ATOM     36  C   UNL     1      34.540 -15.514 -24.126  0.00  0.00    +0.039 C 
ATOM     37  C   UNL     1      34.612 -20.301 -20.458  0.00  0.00    +0.047 C 
ATOM     38  H   UNL     1      34.738 -17.568 -20.459  0.00  0.00    +0.152 HD
ENDBRANCH  27  35
ENDBRANCH   5  27
TORSDOF 9
ENDMDL
MODEL 9
REMARK VINA RESULT:     -11.0      4.095     12.017
REMARK  Name = 52920501
REMARK  9 active torsions:
REMARK  status: ('A' for Active; 'I' for Inactive)
REMARK    1  A    between atoms: N_1  and  C_12
REMARK    2  A    between atoms: C_5  and  O_27
REMARK    3  A    between atoms: C_9  and  C_15
REMARK    4  A    between atoms: C_15  and  S_16
REMARK    5  A    between atoms: S_16  and  N_19
REMARK    6  A    between atoms: N_19  and  C_21
REMARK    7  A    between atoms: C_21  and  C_22
REMARK    8  A    between atoms: C_22  and  N_23
REMARK    9  A    between atoms: O_27  and  C_35
REMARK                            x       y       z     vdW  Elec       q    Type
REMARK                         _______ _______ _______ _____ _____    ______ ____
ROOT
ATOM      1  N   UNL     1      33.601 -18.696 -23.797  0.00  0.00    -0.247 N 
ATOM      2  N   UNL     1      34.023 -16.396 -23.601  0.00  0.00    -0.300 NA
ATOM      3  N   UNL     1      32.926 -17.290 -25.551  0.00  0.00    -0.170 NA
ATOM      4  C   UNL     1      33.512 -17.396 -24.343  0.00  0.00    +0.152 C 
ATOM      5  C   UNL     1      33.922 -15.169 -24.153  0.00  0.00    +0.295 C 
ATOM      6  C   UNL     1      33.344 -14.926 -25.382  0.00  0.00    +0.094 C 
ATOM      7  C   UNL     1      32.858 -16.036 -26.043  0.00  0.00    +0.118 C 
ATOM      8  H   UNL     1      33.215 -19.395 -24.373  0.00  0.00    +0.165 HD
ENDROOT
BRANCH   1  12
ATOM      9  C   UNL     1      33.836 -20.342 -20.489  0.00  0.00    +0.004 C 
ATOM     10  C   UNL     1      33.309 -19.855 -21.685  0.00  0.00    +0.013 C 
ATOM     11  C   UNL     1      35.188 -20.158 -20.197  0.00  0.00    -0.002 C 
ATOM     12  C   UNL     1      34.132 -19.186 -22.590  0.00  0.00    +0.057 C 
ATOM     13  C   UNL     1      36.012 -19.488 -21.102  0.00  0.00    +0.001 C 
ATOM     14  C   UNL     1      35.484 -19.003 -22.298  0.00  0.00    +0.015 C 
BRANCH   9  15
ATOM     15  C   UNL     1      32.955 -21.058 -19.522  0.00  0.00    +0.195 C 
BRANCH  15  16
ATOM     16  S   UNL     1      33.791 -22.525 -19.011  0.00  0.00    +0.045 S 
ATOM     17  O   UNL     1      33.906 -23.412 -20.156  0.00  0.00    -0.157 OA
ATOM     18  O   UNL     1      34.978 -22.128 -18.270  0.00  0.00    -0.157 OA
BRANCH  16  19
ATOM     19  N   UNL     1      32.664 -23.173 -17.899  0.00  0.00    -0.185 NA
ATOM     20  H   UNL     1      32.356 -24.070 -18.275  0.00  0.00    +0.148 HD
BRANCH  19  21
ATOM     21  C   UNL     1      33.088 -23.410 -16.508  0.00  0.00    +0.068 C 
BRANCH  21  22
ATOM     22  C   UNL     1      31.865 -23.411 -15.603  0.00  0.00    -0.058 C 
BRANCH  22  23
ATOM     23  N   UNL     1      32.263 -23.213 -14.215  0.00  0.00    +0.385 N 
ATOM     24  C   UNL     1      31.136 -23.460 -13.314  0.00  0.00    -0.101 C 
ATOM     25  C   UNL     1      33.388 -24.085 -13.870  0.00  0.00    -0.101 C 
ATOM     26  H   UNL     1      32.560 -22.243 -14.104  0.00  0.00    -0.080 HD
ENDBRANCH  22  23
ENDBRANCH  21  22
ENDBRANCH  19  21
ENDBRANCH  16  19
ENDBRANCH  15  16
ENDBRANCH   9  15
ENDBRANCH   1  12
BRANCH   5  27
ATOM     27  O   UNL     1      34.432 -14.107 -23.426  0.00  0.00    -0.427 OA
BRANCH  27  35
ATOM     28  N   UNL     1      31.024 -10.041 -22.042  0.00  0.00    -0.316 N 
ATOM     29  C   UNL     1      32.641 -10.909 -23.312  0.00  0.00    +0.017 C 
ATOM     30  C   UNL     1      31.792 -11.167 -22.233  0.00  0.00    +0.048 C 
ATOM     31  C   UNL     1      31.356  -9.082 -22.960  0.00  0.00    +0.026 C 
ATOM     32  C   UNL     1      32.354  -9.590 -23.761  0.00  0.00    +0.012 C 
ATOM     33  C   UNL     1      33.543 -11.911 -23.721  0.00  0.00    +0.039 C 
ATOM     34  C   UNL     1      31.801 -12.382 -21.539  0.00  0.00    +0.018 C 
ATOM     35  C   UNL     1      33.563 -13.132 -23.037  0.00  0.00    +0.148 C 
ATOM     36  C   UNL     1      32.705 -13.362 -21.963  0.00  0.00    +0.039 C 
ATOM     37  C   UNL     1      30.682  -7.771 -22.978  0.00  0.00    +0.047 C 
ATOM     38  H   UNL     1      30.335  -9.940 -21.346  0.00  0.00    +0.152 HD
ENDBRANCH  27  35
ENDBRANCH   5  27
TORSDOF 9
ENDMDL
