MODEL 1
REMARK VINA RESULT:     -11.8      0.000      0.000
REMARK  Name = 71360
REMARK  8 active torsions:
REMARK  status: ('A' for Active; 'I' for Inactive)
REMARK    1  A    between atoms: N_1  and  C_18
REMARK    2  A    between atoms: C_2  and  C_11
REMARK    3  A    between atoms: C_18  and  C_19
REMARK    4  A    between atoms: C_19  and  C_20
REMARK    5  A    between atoms: C_20  and  O_21
REMARK    6  A    between atoms: O_21  and  C_22
REMARK    7  A    between atoms: C_23  and  O_31
REMARK    8  A    between atoms: C_27  and  C_29
REMARK                            x       y       z     vdW  Elec       q    Type
REMARK                         _______ _______ _______ _____ _____    ______ ____
ROOT
ATOM      1  N   UNL     1      34.453 -20.893 -19.491  0.00  0.00    +0.387 N 
ATOM      2  C   UNL     1      34.517 -19.372 -21.999  0.00  0.00    +0.039 C 
ATOM      3  C   UNL     1      35.729 -19.463 -21.058  0.00  0.00    -0.017 C 
ATOM      4  C   UNL     1      33.221 -19.598 -21.204  0.00  0.00    -0.017 C 
ATOM      5  C   UNL     1      35.706 -20.762 -20.247  0.00  0.00    -0.077 C 
ATOM      6  C   UNL     1      33.289 -20.892 -20.388  0.00  0.00    -0.077 C 
ATOM      7  H   UNL     1      34.373 -20.086 -18.872  0.00  0.00    -0.080 HD
ENDROOT
BRANCH   2  11
ATOM      8  F   UNL     1      32.643 -16.021 -27.521  0.00  0.00    -0.204 F 
ATOM      9  O   UNL     1      34.888 -16.019 -23.267  0.00  0.00    -0.354 OA
ATOM     10  N   UNL     1      35.088 -17.004 -22.307  0.00  0.00    -0.081 NA
ATOM     11  C   UNL     1      34.494 -18.088 -22.799  0.00  0.00    +0.100 A 
ATOM     12  C   UNL     1      33.901 -17.870 -24.051  0.00  0.00    +0.054 A 
ATOM     13  C   UNL     1      34.179 -16.539 -24.307  0.00  0.00    +0.179 A 
ATOM     14  C   UNL     1      33.174 -18.609 -24.997  0.00  0.00    +0.007 C 
ATOM     15  C   UNL     1      33.782 -15.861 -25.455  0.00  0.00    +0.070 C 
ATOM     16  C   UNL     1      32.758 -17.957 -26.168  0.00  0.00    +0.030 C 
ATOM     17  C   UNL     1      33.057 -16.609 -26.390  0.00  0.00    +0.143 C 
ENDBRANCH   2  11
BRANCH   1  18
ATOM     18  C   UNL     1      34.471 -22.109 -18.678  0.00  0.00    -0.074 C 
BRANCH  18  19
ATOM     19  C   UNL     1      33.051 -22.515 -18.303  0.00  0.00    +0.025 C 
BRANCH  19  20
ATOM     20  C   UNL     1      33.042 -23.686 -17.330  0.00  0.00    +0.203 C 
BRANCH  20  21
ATOM     21  O   UNL     1      32.937 -23.183 -16.005  0.00  0.00    -0.472 OA
BRANCH  21  22
ATOM     22  C   UNL     1      33.845 -23.651 -15.092  0.00  0.00    +0.172 C 
ATOM     23  C   UNL     1      33.438 -23.972 -13.801  0.00  0.00    +0.172 C 
ATOM     24  C   UNL     1      35.175 -23.799 -15.471  0.00  0.00    +0.040 C 
ATOM     25  C   UNL     1      34.371 -24.447 -12.880  0.00  0.00    +0.043 C 
ATOM     26  C   UNL     1      36.108 -24.274 -14.550  0.00  0.00    +0.006 C 
ATOM     27  C   UNL     1      35.707 -24.597 -13.254  0.00  0.00    +0.038 C 
BRANCH  27  29
ATOM     28  O   UNL     1      36.476 -26.136 -11.639  0.00  0.00    -0.291 OA
ATOM     29  C   UNL     1      36.680 -25.093 -12.294  0.00  0.00    +0.174 C 
ATOM     30  C   UNL     1      37.986 -24.341 -12.066  0.00  0.00    +0.077 C 
ENDBRANCH  27  29
BRANCH  23  31
ATOM     31  O   UNL     1      32.136 -23.830 -13.423  0.00  0.00    -0.468 OA
ATOM     32  C   UNL     1      31.277 -24.950 -13.624  0.00  0.00    +0.253 C 
ENDBRANCH  23  31
ENDBRANCH  21  22
ENDBRANCH  20  21
ENDBRANCH  19  20
ENDBRANCH  18  19
ENDBRANCH   1  18
TORSDOF 8
ENDMDL
MODEL 2
REMARK VINA RESULT:     -11.8      1.123      1.913
REMARK  Name = 71360
REMARK  8 active torsions:
REMARK  status: ('A' for Active; 'I' for Inactive)
REMARK    1  A    between atoms: N_1  and  C_18
REMARK    2  A    between atoms: C_2  and  C_11
REMARK    3  A    between atoms: C_18  and  C_19
REMARK    4  A    between atoms: C_19  and  C_20
REMARK    5  A    between atoms: C_20  and  O_21
REMARK    6  A    between atoms: O_21  and  C_22
REMARK    7  A    between atoms: C_23  and  O_31
REMARK    8  A    between atoms: C_27  and  C_29
REMARK                            x       y       z     vdW  Elec       q    Type
REMARK                         _______ _______ _______ _____ _____    ______ ____
ROOT
ATOM      1  N   UNL     1      34.272 -20.901 -19.567  0.00  0.00    +0.387 N 
ATOM      2  C   UNL     1      34.451 -19.400 -22.081  0.00  0.00    +0.039 C 
ATOM      3  C   UNL     1      35.618 -19.482 -21.084  0.00  0.00    -0.017 C 
ATOM      4  C   UNL     1      33.120 -19.621 -21.345  0.00  0.00    -0.017 C 
ATOM      5  C   UNL     1      35.558 -20.775 -20.265  0.00  0.00    -0.077 C 
ATOM      6  C   UNL     1      33.150 -20.909 -20.518  0.00  0.00    -0.077 C 
ATOM      7  H   UNL     1      34.163 -20.090 -18.958  0.00  0.00    -0.080 HD
ENDROOT
BRANCH   2  11
ATOM      8  F   UNL     1      32.625 -16.023 -27.603  0.00  0.00    -0.204 F 
ATOM      9  O   UNL     1      34.928 -16.073 -23.380  0.00  0.00    -0.354 OA
ATOM     10  N   UNL     1      35.105 -17.057 -22.416  0.00  0.00    -0.081 NA
ATOM     11  C   UNL     1      34.465 -18.122 -22.891  0.00  0.00    +0.100 A 
ATOM     12  C   UNL     1      33.862 -17.892 -24.136  0.00  0.00    +0.054 A 
ATOM     13  C   UNL     1      34.186 -16.574 -24.406  0.00  0.00    +0.179 A 
ATOM     14  C   UNL     1      33.095 -18.609 -25.066  0.00  0.00    +0.007 C 
ATOM     15  C   UNL     1      33.798 -15.890 -25.554  0.00  0.00    +0.070 C 
ATOM     16  C   UNL     1      32.687 -17.952 -26.236  0.00  0.00    +0.030 C 
ATOM     17  C   UNL     1      33.033 -16.617 -26.473  0.00  0.00    +0.143 C 
ENDBRANCH   2  11
BRANCH   1  18
ATOM     18  C   UNL     1      34.253 -22.111 -18.745  0.00  0.00    -0.074 C 
BRANCH  18  19
ATOM     19  C   UNL     1      32.822 -22.463 -18.354  0.00  0.00    +0.025 C 
BRANCH  19  20
ATOM     20  C   UNL     1      32.780 -23.313 -17.092  0.00  0.00    +0.203 C 
BRANCH  20  21
ATOM     21  O   UNL     1      34.085 -23.810 -16.828  0.00  0.00    -0.472 OA
BRANCH  21  22
ATOM     22  C   UNL     1      34.445 -23.936 -15.512  0.00  0.00    +0.172 C 
ATOM     23  C   UNL     1      35.768 -23.749 -15.127  0.00  0.00    +0.172 C 
ATOM     24  C   UNL     1      33.472 -24.254 -14.570  0.00  0.00    +0.040 C 
ATOM     25  C   UNL     1      36.122 -23.880 -13.784  0.00  0.00    +0.043 C 
ATOM     26  C   UNL     1      33.826 -24.385 -13.227  0.00  0.00    +0.006 C 
ATOM     27  C   UNL     1      35.152 -24.198 -12.834  0.00  0.00    +0.038 C 
BRANCH  27  29
ATOM     28  O   UNL     1      34.971 -25.176 -10.695  0.00  0.00    -0.291 OA
ATOM     29  C   UNL     1      35.521 -24.334 -11.434  0.00  0.00    +0.174 C 
ATOM     30  C   UNL     1      36.601 -23.441 -10.834  0.00  0.00    +0.077 C 
ENDBRANCH  27  29
BRANCH  23  31
ATOM     31  O   UNL     1      36.725 -23.437 -16.045  0.00  0.00    -0.468 OA
ATOM     32  C   UNL     1      36.947 -22.052 -16.305  0.00  0.00    +0.253 C 
ENDBRANCH  23  31
ENDBRANCH  21  22
ENDBRANCH  20  21
ENDBRANCH  19  20
ENDBRANCH  18  19
ENDBRANCH   1  18
TORSDOF 8
ENDMDL
MODEL 3
REMARK VINA RESULT:     -11.7      1.227      2.990
REMARK  Name = 71360
REMARK  8 active torsions:
REMARK  status: ('A' for Active; 'I' for Inactive)
REMARK    1  A    between atoms: N_1  and  C_18
REMARK    2  A    between atoms: C_2  and  C_11
REMARK    3  A    between atoms: C_18  and  C_19
REMARK    4  A    between atoms: C_19  and  C_20
REMARK    5  A    between atoms: C_20  and  O_21
REMARK    6  A    between atoms: O_21  and  C_22
REMARK    7  A    between atoms: C_23  and  O_31
REMARK    8  A    between atoms: C_27  and  C_29
REMARK                            x       y       z     vdW  Elec       q    Type
REMARK                         _______ _______ _______ _____ _____    ______ ____
ROOT
ATOM      1  N   UNL     1      35.108 -20.681 -19.543  0.00  0.00    +0.387 N 
ATOM      2  C   UNL     1      34.861 -19.164 -22.042  0.00  0.00    +0.039 C 
ATOM      3  C   UNL     1      36.103 -19.074 -21.142  0.00  0.00    -0.017 C 
ATOM      4  C   UNL     1      33.641 -19.583 -21.207  0.00  0.00    -0.017 C 
ATOM      5  C   UNL     1      36.302 -20.363 -20.338  0.00  0.00    -0.077 C 
ATOM      6  C   UNL     1      33.927 -20.853 -20.402  0.00  0.00    -0.077 C 
ATOM      7  H   UNL     1      34.929 -19.896 -18.916  0.00  0.00    -0.080 HD
ENDROOT
BRANCH   2  11
ATOM      8  F   UNL     1      32.339 -16.125 -27.486  0.00  0.00    -0.204 F 
ATOM      9  O   UNL     1      34.682 -15.791 -23.298  0.00  0.00    -0.354 OA
ATOM     10  N   UNL     1      35.058 -16.736 -22.352  0.00  0.00    -0.081 NA
ATOM     11  C   UNL     1      34.621 -17.897 -22.833  0.00  0.00    +0.100 A 
ATOM     12  C   UNL     1      33.964 -17.769 -24.066  0.00  0.00    +0.054 A 
ATOM     13  C   UNL     1      34.030 -16.411 -24.321  0.00  0.00    +0.179 A 
ATOM     14  C   UNL     1      33.331 -18.607 -24.995  0.00  0.00    +0.007 C 
ATOM     15  C   UNL     1      33.501 -15.799 -25.453  0.00  0.00    +0.070 C 
ATOM     16  C   UNL     1      32.786 -18.024 -26.149  0.00  0.00    +0.030 C 
ATOM     17  C   UNL     1      32.871 -16.646 -26.371  0.00  0.00    +0.143 C 
ENDBRANCH   2  11
BRANCH   1  18
ATOM     18  C   UNL     1      35.334 -21.882 -18.739  0.00  0.00    -0.074 C 
BRANCH  18  19
ATOM     19  C   UNL     1      36.458 -21.644 -17.737  0.00  0.00    +0.025 C 
BRANCH  19  20
ATOM     20  C   UNL     1      36.068 -22.103 -16.339  0.00  0.00    +0.203 C 
BRANCH  20  21
ATOM     21  O   UNL     1      35.522 -23.412 -16.420  0.00  0.00    -0.472 OA
BRANCH  21  22
ATOM     22  C   UNL     1      34.333 -23.628 -15.773  0.00  0.00    +0.172 C 
ATOM     23  C   UNL     1      34.324 -24.143 -14.481  0.00  0.00    +0.172 C 
ATOM     24  C   UNL     1      33.142 -23.327 -16.423  0.00  0.00    +0.040 C 
ATOM     25  C   UNL     1      33.108 -24.358 -13.832  0.00  0.00    +0.043 C 
ATOM     26  C   UNL     1      31.926 -23.542 -15.774  0.00  0.00    +0.006 C 
ATOM     27  C   UNL     1      31.909 -24.058 -14.479  0.00  0.00    +0.038 C 
BRANCH  27  29
ATOM     28  O   UNL     1      30.476 -23.962 -12.607  0.00  0.00    -0.291 OA
ATOM     29  C   UNL     1      30.641 -24.283 -13.802  0.00  0.00    +0.174 C 
ATOM     30  C   UNL     1      29.474 -24.920 -14.548  0.00  0.00    +0.077 C 
ENDBRANCH  27  29
BRANCH  23  31
ATOM     31  O   UNL     1      35.488 -24.439 -13.838  0.00  0.00    -0.468 OA
ATOM     32  C   UNL     1      35.929 -23.522 -12.840  0.00  0.00    +0.253 C 
ENDBRANCH  23  31
ENDBRANCH  21  22
ENDBRANCH  20  21
ENDBRANCH  19  20
ENDBRANCH  18  19
ENDBRANCH   1  18
TORSDOF 8
ENDMDL
MODEL 4
REMARK VINA RESULT:     -11.7      1.711      2.505
REMARK  Name = 71360
REMARK  8 active torsions:
REMARK  status: ('A' for Active; 'I' for Inactive)
REMARK    1  A    between atoms: N_1  and  C_18
REMARK    2  A    between atoms: C_2  and  C_11
REMARK    3  A    between atoms: C_18  and  C_19
REMARK    4  A    between atoms: C_19  and  C_20
REMARK    5  A    between atoms: C_20  and  O_21
REMARK    6  A    between atoms: O_21  and  C_22
REMARK    7  A    between atoms: C_23  and  O_31
REMARK    8  A    between atoms: C_27  and  C_29
REMARK                            x       y       z     vdW  Elec       q    Type
REMARK                         _______ _______ _______ _____ _____    ______ ____
ROOT
ATOM      1  N   UNL     1      33.713 -21.925 -18.768  0.00  0.00    +0.387 N 
ATOM      2  C   UNL     1      34.177 -20.125 -21.037  0.00  0.00    +0.039 C 
ATOM      3  C   UNL     1      35.318 -20.643 -20.148  0.00  0.00    -0.017 C 
ATOM      4  C   UNL     1      32.856 -20.139 -20.251  0.00  0.00    -0.017 C 
ATOM      5  C   UNL     1      34.968 -21.998 -19.528  0.00  0.00    -0.077 C 
ATOM      6  C   UNL     1      32.595 -21.512 -19.628  0.00  0.00    -0.077 C 
ATOM      7  H   UNL     1      33.826 -21.220 -18.039  0.00  0.00    -0.080 HD
ENDROOT
BRANCH   2  11
ATOM      8  F   UNL     1      34.235 -16.080 -26.410  0.00  0.00    -0.204 F 
ATOM      9  O   UNL     1      35.136 -16.722 -21.729  0.00  0.00    -0.354 OA
ATOM     10  N   UNL     1      34.978 -17.810 -20.880  0.00  0.00    -0.081 NA
ATOM     11  C   UNL     1      34.479 -18.775 -21.648  0.00  0.00    +0.100 A 
ATOM     12  C   UNL     1      34.293 -18.377 -22.980  0.00  0.00    +0.054 A 
ATOM     13  C   UNL     1      34.727 -17.062 -22.982  0.00  0.00    +0.179 A 
ATOM     14  C   UNL     1      33.824 -18.941 -24.176  0.00  0.00    +0.007 C 
ATOM     15  C   UNL     1      34.731 -16.239 -24.103  0.00  0.00    +0.070 C 
ATOM     16  C   UNL     1      33.814 -18.140 -25.327  0.00  0.00    +0.030 C 
ATOM     17  C   UNL     1      34.260 -16.814 -25.289  0.00  0.00    +0.143 C 
ENDBRANCH   2  11
BRANCH   1  18
ATOM     18  C   UNL     1      33.423 -23.212 -18.135  0.00  0.00    -0.074 C 
BRANCH  18  19
ATOM     19  C   UNL     1      32.283 -23.063 -17.133  0.00  0.00    +0.025 C 
BRANCH  19  20
ATOM     20  C   UNL     1      32.589 -23.785 -15.827  0.00  0.00    +0.203 C 
BRANCH  20  21
ATOM     21  O   UNL     1      33.651 -23.110 -15.167  0.00  0.00    -0.472 OA
BRANCH  21  22
ATOM     22  C   UNL     1      34.835 -23.788 -15.047  0.00  0.00    +0.172 C 
ATOM     23  C   UNL     1      36.024 -23.200 -15.466  0.00  0.00    +0.172 C 
ATOM     24  C   UNL     1      34.832 -25.068 -14.505  0.00  0.00    +0.040 C 
ATOM     25  C   UNL     1      37.224 -23.900 -15.339  0.00  0.00    +0.043 C 
ATOM     26  C   UNL     1      36.032 -25.769 -14.378  0.00  0.00    +0.006 C 
ATOM     27  C   UNL     1      37.228 -25.185 -14.795  0.00  0.00    +0.038 C 
BRANCH  27  29
ATOM     28  O   UNL     1      38.524 -27.156 -14.783  0.00  0.00    -0.291 OA
ATOM     29  C   UNL     1      38.479 -25.915 -14.662  0.00  0.00    +0.174 C 
ATOM     30  C   UNL     1      39.776 -25.169 -14.370  0.00  0.00    +0.077 C 
ENDBRANCH  27  29
BRANCH  23  31
ATOM     31  O   UNL     1      36.034 -21.945 -15.997  0.00  0.00    -0.468 OA
ATOM     32  C   UNL     1      37.184 -21.571 -16.753  0.00  0.00    +0.253 C 
ENDBRANCH  23  31
ENDBRANCH  21  22
ENDBRANCH  20  21
ENDBRANCH  19  20
ENDBRANCH  18  19
ENDBRANCH   1  18
TORSDOF 8
ENDMDL
MODEL 5
REMARK VINA RESULT:     -11.4      5.683     12.406
REMARK  Name = 71360
REMARK  8 active torsions:
REMARK  status: ('A' for Active; 'I' for Inactive)
REMARK    1  A    between atoms: N_1  and  C_18
REMARK    2  A    between atoms: C_2  and  C_11
REMARK    3  A    between atoms: C_18  and  C_19
REMARK    4  A    between atoms: C_19  and  C_20
REMARK    5  A    between atoms: C_20  and  O_21
REMARK    6  A    between atoms: O_21  and  C_22
REMARK    7  A    between atoms: C_23  and  O_31
REMARK    8  A    between atoms: C_27  and  C_29
REMARK                            x       y       z     vdW  Elec       q    Type
REMARK                         _______ _______ _______ _____ _____    ______ ____
ROOT
ATOM      1  N   UNL     1      33.738 -15.573 -23.527  0.00  0.00    +0.387 N 
ATOM      2  C   UNL     1      35.416 -17.570 -22.186  0.00  0.00    +0.039 C 
ATOM      3  C   UNL     1      34.623 -17.884 -23.464  0.00  0.00    -0.017 C 
ATOM      4  C   UNL     1      34.749 -16.410 -21.429  0.00  0.00    -0.017 C 
ATOM      5  C   UNL     1      34.406 -16.624 -24.307  0.00  0.00    -0.077 C 
ATOM      6  C   UNL     1      34.529 -15.204 -22.344  0.00  0.00    -0.077 C 
ATOM      7  H   UNL     1      32.843 -15.942 -23.203  0.00  0.00    -0.080 HD
ENDROOT
BRANCH   2  11
ATOM      8  F   UNL     1      32.847 -22.748 -18.749  0.00  0.00    -0.204 F 
ATOM      9  O   UNL     1      36.713 -20.280 -20.197  0.00  0.00    -0.354 OA
ATOM     10  N   UNL     1      36.865 -19.144 -20.981  0.00  0.00    -0.081 NA
ATOM     11  C   UNL     1      35.628 -18.790 -21.316  0.00  0.00    +0.100 A 
ATOM     12  C   UNL     1      34.649 -19.645 -20.789  0.00  0.00    +0.054 A 
ATOM     13  C   UNL     1      35.389 -20.577 -20.083  0.00  0.00    +0.179 A 
ATOM     14  C   UNL     1      33.251 -19.759 -20.809  0.00  0.00    +0.007 C 
ATOM     15  C   UNL     1      34.840 -21.644 -19.378  0.00  0.00    +0.070 C 
ATOM     16  C   UNL     1      32.663 -20.822 -20.108  0.00  0.00    +0.030 C 
ATOM     17  C   UNL     1      33.445 -21.746 -19.406  0.00  0.00    +0.143 C 
ENDBRANCH   2  11
BRANCH   1  18
ATOM     18  C   UNL     1      33.487 -14.397 -24.361  0.00  0.00    -0.074 C 
BRANCH  18  19
ATOM     19  C   UNL     1      33.730 -13.121 -23.564  0.00  0.00    +0.025 C 
BRANCH  19  20
ATOM     20  C   UNL     1      33.818 -11.902 -24.472  0.00  0.00    +0.203 C 
BRANCH  20  21
ATOM     21  O   UNL     1      32.612 -11.159 -24.363  0.00  0.00    -0.472 OA
BRANCH  21  22
ATOM     22  C   UNL     1      32.598 -10.132 -23.455  0.00  0.00    +0.172 C 
ATOM     23  C   UNL     1      31.912 -10.269 -22.253  0.00  0.00    +0.172 C 
ATOM     24  C   UNL     1      33.276  -8.955 -23.753  0.00  0.00    +0.040 C 
ATOM     25  C   UNL     1      31.905  -9.217 -21.338  0.00  0.00    +0.043 C 
ATOM     26  C   UNL     1      33.270  -7.902 -22.837  0.00  0.00    +0.006 C 
ATOM     27  C   UNL     1      32.584  -8.033 -21.630  0.00  0.00    +0.038 C 
BRANCH  27  29
ATOM     28  O   UNL     1      32.868  -7.116 -19.475  0.00  0.00    -0.291 OA
ATOM     29  C   UNL     1      32.577  -6.936 -20.675  0.00  0.00    +0.174 C 
ATOM     30  C   UNL     1      32.211  -5.526 -21.127  0.00  0.00    +0.077 C 
ENDBRANCH  27  29
BRANCH  23  31
ATOM     31  O   UNL     1      31.247 -11.420 -21.956  0.00  0.00    -0.468 OA
ATOM     32  C   UNL     1      31.426 -11.952 -20.645  0.00  0.00    +0.253 C 
ENDBRANCH  23  31
ENDBRANCH  21  22
ENDBRANCH  20  21
ENDBRANCH  19  20
ENDBRANCH  18  19
ENDBRANCH   1  18
TORSDOF 8
ENDMDL
MODEL 6
REMARK VINA RESULT:     -11.3      4.664     12.210
REMARK  Name = 71360
REMARK  8 active torsions:
REMARK  status: ('A' for Active; 'I' for Inactive)
REMARK    1  A    between atoms: N_1  and  C_18
REMARK    2  A    between atoms: C_2  and  C_11
REMARK    3  A    between atoms: C_18  and  C_19
REMARK    4  A    between atoms: C_19  and  C_20
REMARK    5  A    between atoms: C_20  and  O_21
REMARK    6  A    between atoms: O_21  and  C_22
REMARK    7  A    between atoms: C_23  and  O_31
REMARK    8  A    between atoms: C_27  and  C_29
REMARK                            x       y       z     vdW  Elec       q    Type
REMARK                         _______ _______ _______ _____ _____    ______ ____
ROOT
ATOM      1  N   UNL     1      35.031 -17.113 -24.613  0.00  0.00    +0.387 N 
ATOM      2  C   UNL     1      34.630 -18.607 -22.120  0.00  0.00    +0.039 C 
ATOM      3  C   UNL     1      35.431 -17.297 -22.177  0.00  0.00    -0.017 C 
ATOM      4  C   UNL     1      34.648 -19.290 -23.498  0.00  0.00    -0.017 C 
ATOM      5  C   UNL     1      34.957 -16.405 -23.328  0.00  0.00    -0.077 C 
ATOM      6  C   UNL     1      34.201 -18.326 -24.600  0.00  0.00    -0.077 C 
ATOM      7  H   UNL     1      36.000 -17.397 -24.760  0.00  0.00    -0.080 HD
ENDROOT
BRANCH   2  11
ATOM      8  F   UNL     1      33.231 -23.399 -17.614  0.00  0.00    -0.204 F 
ATOM      9  O   UNL     1      36.452 -20.433 -19.604  0.00  0.00    -0.354 OA
ATOM     10  N   UNL     1      36.361 -19.488 -20.617  0.00  0.00    -0.081 NA
ATOM     11  C   UNL     1      35.090 -19.525 -21.009  0.00  0.00    +0.100 A 
ATOM     12  C   UNL     1      34.323 -20.460 -20.298  0.00  0.00    +0.054 A 
ATOM     13  C   UNL     1      35.234 -21.011 -19.414  0.00  0.00    +0.179 A 
ATOM     14  C   UNL     1      32.995 -20.911 -20.278  0.00  0.00    +0.007 C 
ATOM     15  C   UNL     1      34.927 -22.004 -18.489  0.00  0.00    +0.070 C 
ATOM     16  C   UNL     1      32.649 -21.911 -19.357  0.00  0.00    +0.030 C 
ATOM     17  C   UNL     1      33.599 -22.446 -18.480  0.00  0.00    +0.143 C 
ENDBRANCH   2  11
BRANCH   1  18
ATOM     18  C   UNL     1      34.629 -16.230 -25.708  0.00  0.00    -0.074 C 
BRANCH  18  19
ATOM     19  C   UNL     1      33.147 -16.410 -26.014  0.00  0.00    +0.025 C 
BRANCH  19  20
ATOM     20  C   UNL     1      32.668 -15.417 -27.065  0.00  0.00    +0.203 C 
BRANCH  20  21
ATOM     21  O   UNL     1      32.008 -14.341 -26.414  0.00  0.00    -0.472 OA
BRANCH  21  22
ATOM     22  C   UNL     1      32.761 -13.229 -26.139  0.00  0.00    +0.172 C 
ATOM     23  C   UNL     1      33.059 -12.893 -24.823  0.00  0.00    +0.172 C 
ATOM     24  C   UNL     1      33.218 -12.443 -27.191  0.00  0.00    +0.040 C 
ATOM     25  C   UNL     1      33.826 -11.759 -24.556  0.00  0.00    +0.043 C 
ATOM     26  C   UNL     1      33.985 -11.308 -26.924  0.00  0.00    +0.006 C 
ATOM     27  C   UNL     1      34.288 -10.966 -25.606  0.00  0.00    +0.038 C 
BRANCH  27  29
ATOM     28  O   UNL     1      35.657  -9.626 -24.229  0.00  0.00    -0.291 OA
ATOM     29  C   UNL     1      35.088  -9.783 -25.328  0.00  0.00    +0.174 C 
ATOM     30  C   UNL     1      35.249  -8.698 -26.387  0.00  0.00    +0.077 C 
ENDBRANCH  27  29
BRANCH  23  31
ATOM     31  O   UNL     1      32.614 -13.660 -23.788  0.00  0.00    -0.468 OA
ATOM     32  C   UNL     1      32.896 -13.195 -22.470  0.00  0.00    +0.253 C 
ENDBRANCH  23  31
ENDBRANCH  21  22
ENDBRANCH  20  21
ENDBRANCH  19  20
ENDBRANCH  18  19
ENDBRANCH   1  18
TORSDOF 8
ENDMDL
MODEL 7
REMARK VINA RESULT:     -11.3      1.990      3.819
REMARK  Name = 71360
REMARK  8 active torsions:
REMARK  status: ('A' for Active; 'I' for Inactive)
REMARK    1  A    between atoms: N_1  and  C_18
REMARK    2  A    between atoms: C_2  and  C_11
REMARK    3  A    between atoms: C_18  and  C_19
REMARK    4  A    between atoms: C_19  and  C_20
REMARK    5  A    between atoms: C_20  and  O_21
REMARK    6  A    between atoms: O_21  and  C_22
REMARK    7  A    between atoms: C_23  and  O_31
REMARK    8  A    between atoms: C_27  and  C_29
REMARK                            x       y       z     vdW  Elec       q    Type
REMARK                         _______ _______ _______ _____ _____    ______ ____
ROOT
ATOM      1  N   UNL     1      35.143 -19.956 -21.504  0.00  0.00    +0.387 N 
ATOM      2  C   UNL     1      34.206 -17.743 -23.187  0.00  0.00    +0.039 C 
ATOM      3  C   UNL     1      33.436 -19.067 -23.060  0.00  0.00    -0.017 C 
ATOM      4  C   UNL     1      35.695 -17.975 -22.882  0.00  0.00    -0.017 C 
ATOM      5  C   UNL     1      33.705 -19.740 -21.711  0.00  0.00    -0.077 C 
ATOM      6  C   UNL     1      35.882 -18.685 -21.539  0.00  0.00    -0.077 C 
ATOM      7  H   UNL     1      35.487 -20.540 -22.267  0.00  0.00    -0.080 HD
ENDROOT
BRANCH   2  11
ATOM      8  F   UNL     1      32.722 -12.190 -26.679  0.00  0.00    -0.204 F 
ATOM      9  O   UNL     1      33.840 -16.869 -26.663  0.00  0.00    -0.354 OA
ATOM     10  N   UNL     1      34.102 -17.771 -25.640  0.00  0.00    -0.081 NA
ATOM     11  C   UNL     1      33.982 -17.063 -24.519  0.00  0.00    +0.100 A 
ATOM     12  C   UNL     1      33.651 -15.720 -24.750  0.00  0.00    +0.054 A 
ATOM     13  C   UNL     1      33.571 -15.645 -26.130  0.00  0.00    +0.179 A 
ATOM     14  C   UNL     1      33.409 -14.566 -23.990  0.00  0.00    +0.007 C 
ATOM     15  C   UNL     1      33.264 -14.487 -26.836  0.00  0.00    +0.070 C 
ATOM     16  C   UNL     1      33.095 -13.380 -24.669  0.00  0.00    +0.030 C 
ATOM     17  C   UNL     1      33.024 -13.343 -26.066  0.00  0.00    +0.143 C 
ENDBRANCH   2  11
BRANCH   1  18
ATOM     18  C   UNL     1      35.380 -20.650 -20.238  0.00  0.00    -0.074 C 
BRANCH  18  19
ATOM     19  C   UNL     1      34.057 -21.097 -19.625  0.00  0.00    +0.025 C 
BRANCH  19  20
ATOM     20  C   UNL     1      34.083 -22.573 -19.256  0.00  0.00    +0.203 C 
BRANCH  20  21
ATOM     21  O   UNL     1      34.521 -22.704 -17.911  0.00  0.00    -0.472 OA
BRANCH  21  22
ATOM     22  C   UNL     1      33.586 -23.102 -16.991  0.00  0.00    +0.172 C 
ATOM     23  C   UNL     1      33.980 -23.774 -15.839  0.00  0.00    +0.172 C 
ATOM     24  C   UNL     1      32.243 -22.829 -17.227  0.00  0.00    +0.040 C 
ATOM     25  C   UNL     1      33.019 -24.175 -14.910  0.00  0.00    +0.043 C 
ATOM     26  C   UNL     1      31.282 -23.230 -16.299  0.00  0.00    +0.006 C 
ATOM     27  C   UNL     1      31.670 -23.903 -15.141  0.00  0.00    +0.038 C 
BRANCH  27  29
ATOM     28  O   UNL     1      30.765 -24.022 -12.965  0.00  0.00    -0.291 OA
ATOM     29  C   UNL     1      30.668 -24.321 -14.172  0.00  0.00    +0.174 C 
ATOM     30  C   UNL     1      29.464 -25.143 -14.619  0.00  0.00    +0.077 C 
ENDBRANCH  27  29
BRANCH  23  31
ATOM     31  O   UNL     1      35.294 -24.044 -15.602  0.00  0.00    -0.468 OA
ATOM     32  C   UNL     1      35.586 -24.981 -14.568  0.00  0.00    +0.253 C 
ENDBRANCH  23  31
ENDBRANCH  21  22
ENDBRANCH  20  21
ENDBRANCH  19  20
ENDBRANCH  18  19
ENDBRANCH   1  18
TORSDOF 8
ENDMDL
MODEL 8
REMARK VINA RESULT:     -11.2      2.255      3.542
REMARK  Name = 71360
REMARK  8 active torsions:
REMARK  status: ('A' for Active; 'I' for Inactive)
REMARK    1  A    between atoms: N_1  and  C_18
REMARK    2  A    between atoms: C_2  and  C_11
REMARK    3  A    between atoms: C_18  and  C_19
REMARK    4  A    between atoms: C_19  and  C_20
REMARK    5  A    between atoms: C_20  and  O_21
REMARK    6  A    between atoms: O_21  and  C_22
REMARK    7  A    between atoms: C_23  and  O_31
REMARK    8  A    between atoms: C_27  and  C_29
REMARK                            x       y       z     vdW  Elec       q    Type
REMARK                         _______ _______ _______ _____ _____    ______ ____
ROOT
ATOM      1  N   UNL     1      35.713 -18.625 -22.206  0.00  0.00    +0.387 N 
ATOM      2  C   UNL     1      33.870 -17.291 -24.058  0.00  0.00    +0.039 C 
ATOM      3  C   UNL     1      34.440 -18.693 -24.328  0.00  0.00    -0.017 C 
ATOM      4  C   UNL     1      34.819 -16.512 -23.133  0.00  0.00    -0.017 C 
ATOM      5  C   UNL     1      34.780 -19.415 -23.021  0.00  0.00    -0.077 C 
ATOM      6  C   UNL     1      35.144 -17.312 -21.870  0.00  0.00    -0.077 C 
ATOM      7  H   UNL     1      36.558 -18.470 -22.756  0.00  0.00    -0.080 HD
ENDROOT
BRANCH   2  11
ATOM      8  F   UNL     1      32.352 -11.509 -27.138  0.00  0.00    -0.204 F 
ATOM      9  O   UNL     1      33.186 -16.237 -27.435  0.00  0.00    -0.354 OA
ATOM     10  N   UNL     1      33.502 -17.199 -26.484  0.00  0.00    -0.081 NA
ATOM     11  C   UNL     1      33.546 -16.539 -25.329  0.00  0.00    +0.100 A 
ATOM     12  C   UNL     1      33.272 -15.170 -25.468  0.00  0.00    +0.054 A 
ATOM     13  C   UNL     1      33.049 -15.027 -26.826  0.00  0.00    +0.179 A 
ATOM     14  C   UNL     1      33.181 -14.042 -24.639  0.00  0.00    +0.007 C 
ATOM     15  C   UNL     1      32.737 -13.821 -27.446  0.00  0.00    +0.070 C 
ATOM     16  C   UNL     1      32.868 -12.809 -25.231  0.00  0.00    +0.030 C 
ATOM     17  C   UNL     1      32.650 -12.703 -26.609  0.00  0.00    +0.143 C 
ENDBRANCH   2  11
BRANCH   1  18
ATOM     18  C   UNL     1      36.072 -19.354 -20.989  0.00  0.00    -0.074 C 
BRANCH  18  19
ATOM     19  C   UNL     1      34.951 -20.308 -20.594  0.00  0.00    +0.025 C 
BRANCH  19  20
ATOM     20  C   UNL     1      35.479 -21.487 -19.788  0.00  0.00    +0.203 C 
BRANCH  20  21
ATOM     21  O   UNL     1      34.584 -21.748 -18.715  0.00  0.00    -0.472 OA
BRANCH  21  22
ATOM     22  C   UNL     1      35.126 -22.270 -17.570  0.00  0.00    +0.172 C 
ATOM     23  C   UNL     1      34.350 -23.052 -16.721  0.00  0.00    +0.172 C 
ATOM     24  C   UNL     1      36.458 -22.005 -17.268  0.00  0.00    +0.040 C 
ATOM     25  C   UNL     1      34.913 -23.577 -15.558  0.00  0.00    +0.043 C 
ATOM     26  C   UNL     1      37.021 -22.531 -16.105  0.00  0.00    +0.006 C 
ATOM     27  C   UNL     1      36.249 -23.316 -15.250  0.00  0.00    +0.038 C 
BRANCH  27  29
ATOM     28  O   UNL     1      37.467 -24.940 -14.049  0.00  0.00    -0.291 OA
ATOM     29  C   UNL     1      36.836 -23.864 -14.037  0.00  0.00    +0.174 C 
ATOM     30  C   UNL     1      36.691 -23.125 -12.711  0.00  0.00    +0.077 C 
ENDBRANCH  27  29
BRANCH  23  31
ATOM     31  O   UNL     1      33.045 -23.315 -17.011  0.00  0.00    -0.468 OA
ATOM     32  C   UNL     1      32.159 -23.492 -15.908  0.00  0.00    +0.253 C 
ENDBRANCH  23  31
ENDBRANCH  21  22
ENDBRANCH  20  21
ENDBRANCH  19  20
ENDBRANCH  18  19
ENDBRANCH   1  18
TORSDOF 8
ENDMDL
MODEL 9
REMARK VINA RESULT:     -11.0      1.599      2.329
REMARK  Name = 71360
REMARK  8 active torsions:
REMARK  status: ('A' for Active; 'I' for Inactive)
REMARK    1  A    between atoms: N_1  and  C_18
REMARK    2  A    between atoms: C_2  and  C_11
REMARK    3  A    between atoms: C_18  and  C_19
REMARK    4  A    between atoms: C_19  and  C_20
REMARK    5  A    between atoms: C_20  and  O_21
REMARK    6  A    between atoms: O_21  and  C_22
REMARK    7  A    between atoms: C_23  and  O_31
REMARK    8  A    between atoms: C_27  and  C_29
REMARK                            x       y       z     vdW  Elec       q    Type
REMARK                         _______ _______ _______ _____ _____    ______ ____
ROOT
ATOM      1  N   UNL     1      35.695 -20.103 -20.893  0.00  0.00    +0.387 N 
ATOM      2  C   UNL     1      34.535 -18.238 -22.837  0.00  0.00    +0.039 C 
ATOM      3  C   UNL     1      33.728 -19.387 -22.213  0.00  0.00    -0.017 C 
ATOM      4  C   UNL     1      36.033 -18.580 -22.814  0.00  0.00    -0.017 C 
ATOM      5  C   UNL     1      34.268 -19.758 -20.829  0.00  0.00    -0.077 C 
ATOM      6  C   UNL     1      36.490 -18.979 -21.409  0.00  0.00    -0.077 C 
ATOM      7  H   UNL     1      35.802 -20.886 -21.537  0.00  0.00    -0.080 HD
ENDROOT
BRANCH   2  11
ATOM      8  F   UNL     1      32.527 -13.512 -27.180  0.00  0.00    -0.204 F 
ATOM      9  O   UNL     1      33.427 -18.147 -26.265  0.00  0.00    -0.354 OA
ATOM     10  N   UNL     1      33.877 -18.813 -25.132  0.00  0.00    -0.081 NA
ATOM     11  C   UNL     1      34.043 -17.861 -24.217  0.00  0.00    +0.100 A 
ATOM     12  C   UNL     1      33.724 -16.581 -24.692  0.00  0.00    +0.054 A 
ATOM     13  C   UNL     1      33.336 -16.815 -26.000  0.00  0.00    +0.179 A 
ATOM     14  C   UNL     1      33.707 -15.266 -24.202  0.00  0.00    +0.007 C 
ATOM     15  C   UNL     1      32.924 -15.824 -26.885  0.00  0.00    +0.070 C 
ATOM     16  C   UNL     1      33.297 -14.242 -25.067  0.00  0.00    +0.030 C 
ATOM     17  C   UNL     1      32.913 -14.518 -26.384  0.00  0.00    +0.143 C 
ENDBRANCH   2  11
BRANCH   1  18
ATOM     18  C   UNL     1      36.182 -20.509 -19.574  0.00  0.00    -0.074 C 
BRANCH  18  19
ATOM     19  C   UNL     1      35.309 -21.623 -19.008  0.00  0.00    +0.025 C 
BRANCH  19  20
ATOM     20  C   UNL     1      35.757 -22.031 -17.611  0.00  0.00    +0.203 C 
BRANCH  20  21
ATOM     21  O   UNL     1      34.802 -22.931 -17.066  0.00  0.00    -0.472 OA
BRANCH  21  22
ATOM     22  C   UNL     1      35.056 -23.416 -15.810  0.00  0.00    +0.172 C 
ATOM     23  C   UNL     1      34.006 -23.676 -14.935  0.00  0.00    +0.172 C 
ATOM     24  C   UNL     1      36.372 -23.641 -15.423  0.00  0.00    +0.040 C 
ATOM     25  C   UNL     1      34.277 -24.169 -13.658  0.00  0.00    +0.043 C 
ATOM     26  C   UNL     1      36.643 -24.135 -14.146  0.00  0.00    +0.006 C 
ATOM     27  C   UNL     1      35.596 -24.398 -13.264  0.00  0.00    +0.038 C 
BRANCH  27  29
ATOM     28  O   UNL     1      36.311 -26.070 -11.762  0.00  0.00    -0.291 OA
ATOM     29  C   UNL     1      35.878 -24.913 -11.933  0.00  0.00    +0.174 C 
ATOM     30  C   UNL     1      35.648 -24.037 -10.706  0.00  0.00    +0.077 C 
ENDBRANCH  27  29
BRANCH  23  31
ATOM     31  O   UNL     1      32.715 -23.457 -15.308  0.00  0.00    -0.468 OA
ATOM     32  C   UNL     1      31.749 -23.342 -14.265  0.00  0.00    +0.253 C 
ENDBRANCH  23  31
ENDBRANCH  21  22
ENDBRANCH  20  21
ENDBRANCH  19  20
ENDBRANCH  18  19
ENDBRANCH   1  18
TORSDOF 8
ENDMDL
