MODEL 1
REMARK VINA RESULT:     -13.1      0.000      0.000
REMARK  Name = 119057475
REMARK  5 active torsions:
REMARK  status: ('A' for Active; 'I' for Inactive)
REMARK    1  A    between atoms: N_1  and  C_22
REMARK    2  A    between atoms: C_2  and  N_8
REMARK    3  A    between atoms: N_8  and  C_11
REMARK    4  A    between atoms: C_11  and  C_16
REMARK    5  A    between atoms: C_22  and  C_26
REMARK                            x       y       z     vdW  Elec       q    Type
REMARK                         _______ _______ _______ _____ _____    ______ ____
ROOT
ATOM      1  N   UNL     1      35.029 -18.009 -22.260  0.00  0.00    +0.387 N 
ATOM      2  C   UNL     1      35.179 -20.434 -20.629  0.00  0.00    -0.066 C 
ATOM      3  C   UNL     1      36.325 -18.649 -21.994  0.00  0.00    -0.079 C 
ATOM      4  C   UNL     1      33.945 -19.001 -22.299  0.00  0.00    -0.079 C 
ATOM      5  C   UNL     1      36.307 -19.401 -20.660  0.00  0.00    -0.044 C 
ATOM      6  C   UNL     1      33.846 -19.765 -20.976  0.00  0.00    -0.044 C 
ATOM      7  H   UNL     1      34.836 -17.363 -21.495  0.00  0.00    -0.080 HD
ENDROOT
BRANCH   2   8
ATOM      8  N   UNL     1      35.116 -21.076 -19.317  0.00  0.00    +0.389 N 
ATOM      9  H   UNL     1      34.552 -20.501 -18.691  0.00  0.00    -0.084 HD
ATOM     10  H   UNL     1      36.065 -21.170 -18.954  0.00  0.00    -0.084 HD
BRANCH   8  11
ATOM     11  C   UNL     1      34.521 -22.400 -19.417  0.00  0.00    -0.032 C 
BRANCH  11  16
ATOM     12  O   UNL     1      33.291 -23.944 -14.979  0.00  0.00    -0.467 OA
ATOM     13  O   UNL     1      30.574 -23.223 -15.592  0.00  0.00    -0.453 OA
ATOM     14  N   UNL     1      32.231 -22.274 -18.596  0.00  0.00    -0.151 NA
ATOM     15  N   UNL     1      31.272 -22.475 -17.651  0.00  0.00    -0.107 NA
ATOM     16  C   UNL     1      33.503 -22.639 -18.334  0.00  0.00    +0.062 C 
ATOM     17  C   UNL     1      33.888 -23.205 -17.136  0.00  0.00    +0.056 C 
ATOM     18  C   UNL     1      32.913 -23.397 -16.172  0.00  0.00    +0.194 C 
ATOM     19  C   UNL     1      31.611 -23.037 -16.471  0.00  0.00    +0.278 C 
ATOM     20  C   UNL     1      32.277 -23.798 -13.979  0.00  0.00    +0.253 C 
ATOM     21  C   UNL     1      30.918 -24.145 -14.554  0.00  0.00    +0.254 C 
ENDBRANCH  11  16
ENDBRANCH   8  11
ENDBRANCH   2   8
BRANCH   1  22
ATOM     22  C   UNL     1      35.077 -17.254 -23.511  0.00  0.00    -0.071 C 
BRANCH  22  26
ATOM     23  F   UNL     1      34.321 -14.726 -21.556  0.00  0.00    -0.204 F 
ATOM     24  O   UNL     1      32.497 -16.226 -28.122  0.00  0.00    -0.270 OA
ATOM     25  N   UNL     1      33.096 -15.649 -25.963  0.00  0.00    -0.255 N 
ATOM     26  C   UNL     1      33.715 -16.664 -23.847  0.00  0.00    +0.025 C 
ATOM     27  C   UNL     1      33.300 -16.953 -25.320  0.00  0.00    +0.101 C 
ATOM     28  C   UNL     1      33.702 -15.161 -23.802  0.00  0.00    +0.018 C 
ATOM     29  C   UNL     1      33.338 -14.647 -25.034  0.00  0.00    +0.052 C 
ATOM     30  C   UNL     1      33.230 -13.302 -25.325  0.00  0.00    +0.014 C 
ATOM     31  C   UNL     1      33.974 -14.283 -22.770  0.00  0.00    +0.137 C 
ATOM     32  C   UNL     1      32.724 -15.379 -27.261  0.00  0.00    +0.253 C 
ATOM     33  C   UNL     1      33.505 -12.412 -24.292  0.00  0.00    +0.004 C 
ATOM     34  C   UNL     1      33.875 -12.903 -23.022  0.00  0.00    +0.029 C 
ATOM     35  C   UNL     1      32.837 -12.953 -26.687  0.00  0.00    +0.006 C 
ATOM     36  C   UNL     1      32.600 -13.917 -27.592  0.00  0.00    +0.058 C 
ENDBRANCH  22  26
ENDBRANCH   1  22
TORSDOF 5
ENDMDL
MODEL 2
REMARK VINA RESULT:     -13.0      1.975      2.486
REMARK  Name = 119057475
REMARK  5 active torsions:
REMARK  status: ('A' for Active; 'I' for Inactive)
REMARK    1  A    between atoms: N_1  and  C_22
REMARK    2  A    between atoms: C_2  and  N_8
REMARK    3  A    between atoms: N_8  and  C_11
REMARK    4  A    between atoms: C_11  and  C_16
REMARK    5  A    between atoms: C_22  and  C_26
REMARK                            x       y       z     vdW  Elec       q    Type
REMARK                         _______ _______ _______ _____ _____    ______ ____
ROOT
ATOM      1  N   UNL     1      35.288 -18.820 -22.856  0.00  0.00    +0.387 N 
ATOM      2  C   UNL     1      34.936 -20.077 -20.236  0.00  0.00    -0.066 C 
ATOM      3  C   UNL     1      33.945 -18.975 -22.278  0.00  0.00    -0.079 C 
ATOM      4  C   UNL     1      36.302 -18.649 -21.805  0.00  0.00    -0.079 C 
ATOM      5  C   UNL     1      33.883 -20.184 -21.341  0.00  0.00    -0.044 C 
ATOM      6  C   UNL     1      36.319 -19.847 -20.852  0.00  0.00    -0.044 C 
ATOM      7  H   UNL     1      35.509 -19.674 -23.368  0.00  0.00    -0.080 HD
ENDROOT
BRANCH   2   8
ATOM      8  N   UNL     1      34.926 -21.281 -19.408  0.00  0.00    +0.389 N 
ATOM      9  H   UNL     1      34.908 -22.102 -20.014  0.00  0.00    -0.084 HD
ATOM     10  H   UNL     1      34.098 -21.262 -18.813  0.00  0.00    -0.084 HD
BRANCH   8  11
ATOM     11  C   UNL     1      36.108 -21.337 -18.562  0.00  0.00    -0.032 C 
BRANCH  11  16
ATOM     12  O   UNL     1      37.601 -23.261 -14.359  0.00  0.00    -0.467 OA
ATOM     13  O   UNL     1      35.119 -24.713 -14.258  0.00  0.00    -0.453 OA
ATOM     14  N   UNL     1      34.724 -22.886 -17.288  0.00  0.00    -0.151 NA
ATOM     15  N   UNL     1      34.489 -23.706 -16.228  0.00  0.00    -0.107 NA
ATOM     16  C   UNL     1      35.898 -22.226 -17.365  0.00  0.00    +0.062 C 
ATOM     17  C   UNL     1      36.883 -22.334 -16.404  0.00  0.00    +0.056 C 
ATOM     18  C   UNL     1      36.636 -23.160 -15.321  0.00  0.00    +0.194 C 
ATOM     19  C   UNL     1      35.435 -23.846 -15.275  0.00  0.00    +0.278 C 
ATOM     20  C   UNL     1      37.106 -23.879 -13.168  0.00  0.00    +0.253 C 
ATOM     21  C   UNL     1      36.277 -25.100 -13.514  0.00  0.00    +0.254 C 
ENDBRANCH  11  16
ENDBRANCH   8  11
ENDBRANCH   2   8
BRANCH   1  22
ATOM     22  C   UNL     1      35.319 -17.693 -23.786  0.00  0.00    -0.071 C 
BRANCH  22  26
ATOM     23  F   UNL     1      34.599 -15.488 -21.463  0.00  0.00    -0.204 F 
ATOM     24  O   UNL     1      32.502 -16.103 -28.089  0.00  0.00    -0.270 OA
ATOM     25  N   UNL     1      33.189 -15.818 -25.899  0.00  0.00    -0.255 N 
ATOM     26  C   UNL     1      33.929 -17.102 -23.976  0.00  0.00    +0.025 C 
ATOM     27  C   UNL     1      33.453 -17.193 -25.456  0.00  0.00    +0.101 C 
ATOM     28  C   UNL     1      33.885 -15.620 -23.718  0.00  0.00    +0.018 C 
ATOM     29  C   UNL     1      33.452 -14.950 -24.849  0.00  0.00    +0.052 C 
ATOM     30  C   UNL     1      33.300 -13.581 -24.942  0.00  0.00    +0.014 C 
ATOM     31  C   UNL     1      34.185 -14.888 -22.586  0.00  0.00    +0.137 C 
ATOM     32  C   UNL     1      32.750 -15.380 -27.128  0.00  0.00    +0.253 C 
ATOM     33  C   UNL     1      33.604 -12.837 -23.806  0.00  0.00    +0.004 C 
ATOM     34  C   UNL     1      34.043 -13.491 -22.635  0.00  0.00    +0.029 C 
ATOM     35  C   UNL     1      32.835 -13.056 -26.222  0.00  0.00    +0.006 C 
ATOM     36  C   UNL     1      32.578 -13.890 -27.244  0.00  0.00    +0.058 C 
ENDBRANCH  22  26
ENDBRANCH   1  22
TORSDOF 5
ENDMDL
MODEL 3
REMARK VINA RESULT:     -12.8      2.840      3.997
REMARK  Name = 119057475
REMARK  5 active torsions:
REMARK  status: ('A' for Active; 'I' for Inactive)
REMARK    1  A    between atoms: N_1  and  C_22
REMARK    2  A    between atoms: C_2  and  N_8
REMARK    3  A    between atoms: N_8  and  C_11
REMARK    4  A    between atoms: C_11  and  C_16
REMARK    5  A    between atoms: C_22  and  C_26
REMARK                            x       y       z     vdW  Elec       q    Type
REMARK                         _______ _______ _______ _____ _____    ______ ____
ROOT
ATOM      1  N   UNL     1      33.972 -19.929 -20.990  0.00  0.00    +0.387 N 
ATOM      2  C   UNL     1      34.522 -22.027 -19.024  0.00  0.00    -0.066 C 
ATOM      3  C   UNL     1      35.269 -20.620 -20.981  0.00  0.00    -0.079 C 
ATOM      4  C   UNL     1      32.895 -20.815 -20.525  0.00  0.00    -0.079 C 
ATOM      5  C   UNL     1      35.621 -21.117 -19.576  0.00  0.00    -0.044 C 
ATOM      6  C   UNL     1      33.166 -21.318 -19.105  0.00  0.00    -0.044 C 
ATOM      7  H   UNL     1      34.032 -19.142 -20.344  0.00  0.00    -0.080 HD
ENDROOT
BRANCH   2   8
ATOM      8  N   UNL     1      34.828 -22.415 -17.650  0.00  0.00    +0.389 N 
ATOM      9  H   UNL     1      35.032 -21.577 -17.104  0.00  0.00    -0.084 HD
ATOM     10  H   UNL     1      35.636 -23.038 -17.658  0.00  0.00    -0.084 HD
BRANCH   8  11
ATOM     11  C   UNL     1      33.704 -23.116 -17.047  0.00  0.00    -0.032 C 
BRANCH  11  16
ATOM     12  O   UNL     1      36.606 -23.289 -13.155  0.00  0.00    -0.467 OA
ATOM     13  O   UNL     1      34.416 -24.458 -11.701  0.00  0.00    -0.453 OA
ATOM     14  N   UNL     1      32.931 -23.963 -14.898  0.00  0.00    -0.151 NA
ATOM     15  N   UNL     1      33.114 -24.284 -13.588  0.00  0.00    -0.107 NA
ATOM     16  C   UNL     1      33.960 -23.446 -15.601  0.00  0.00    +0.062 C 
ATOM     17  C   UNL     1      35.203 -23.213 -15.048  0.00  0.00    +0.056 C 
ATOM     18  C   UNL     1      35.382 -23.530 -13.712  0.00  0.00    +0.194 C 
ATOM     19  C   UNL     1      34.320 -24.081 -13.017  0.00  0.00    +0.278 C 
ATOM     20  C   UNL     1      36.566 -23.359 -11.727  0.00  0.00    +0.253 C 
ATOM     21  C   UNL     1      35.778 -24.575 -11.281  0.00  0.00    +0.254 C 
ENDBRANCH  11  16
ENDBRANCH   8  11
ENDBRANCH   2   8
BRANCH   1  22
ATOM     22  C   UNL     1      33.673 -19.417 -22.326  0.00  0.00    -0.071 C 
BRANCH  22  26
ATOM     23  F   UNL     1      34.049 -19.261 -25.585  0.00  0.00    -0.204 F 
ATOM     24  O   UNL     1      34.642 -14.409 -20.605  0.00  0.00    -0.270 OA
ATOM     25  N   UNL     1      34.421 -15.959 -22.308  0.00  0.00    -0.255 N 
ATOM     26  C   UNL     1      34.666 -18.337 -22.733  0.00  0.00    +0.025 C 
ATOM     27  C   UNL     1      34.789 -17.221 -21.653  0.00  0.00    +0.101 C 
ATOM     28  C   UNL     1      34.222 -17.561 -23.942  0.00  0.00    +0.018 C 
ATOM     29  C   UNL     1      34.107 -16.217 -23.635  0.00  0.00    +0.052 C 
ATOM     30  C   UNL     1      33.722 -15.236 -24.526  0.00  0.00    +0.014 C 
ATOM     31  C   UNL     1      33.944 -17.974 -25.231  0.00  0.00    +0.137 C 
ATOM     32  C   UNL     1      34.374 -14.693 -21.770  0.00  0.00    +0.253 C 
ATOM     33  C   UNL     1      33.436 -15.645 -25.825  0.00  0.00    +0.004 C 
ATOM     34  C   UNL     1      33.548 -17.008 -26.172  0.00  0.00    +0.029 C 
ATOM     35  C   UNL     1      33.654 -13.871 -24.014  0.00  0.00    +0.006 C 
ATOM     36  C   UNL     1      33.956 -13.613 -22.730  0.00  0.00    +0.058 C 
ENDBRANCH  22  26
ENDBRANCH   1  22
TORSDOF 5
ENDMDL
MODEL 4
REMARK VINA RESULT:     -12.8      2.795      4.221
REMARK  Name = 119057475
REMARK  5 active torsions:
REMARK  status: ('A' for Active; 'I' for Inactive)
REMARK    1  A    between atoms: N_1  and  C_22
REMARK    2  A    between atoms: C_2  and  N_8
REMARK    3  A    between atoms: N_8  and  C_11
REMARK    4  A    between atoms: C_11  and  C_16
REMARK    5  A    between atoms: C_22  and  C_26
REMARK                            x       y       z     vdW  Elec       q    Type
REMARK                         _______ _______ _______ _____ _____    ______ ____
ROOT
ATOM      1  N   UNL     1      34.100 -15.173 -22.463  0.00  0.00    +0.387 N 
ATOM      2  C   UNL     1      35.183 -17.891 -22.456  0.00  0.00    -0.066 C 
ATOM      3  C   UNL     1      34.863 -15.667 -21.309  0.00  0.00    -0.079 C 
ATOM      4  C   UNL     1      34.564 -15.792 -23.713  0.00  0.00    -0.079 C 
ATOM      5  C   UNL     1      34.737 -17.187 -21.173  0.00  0.00    -0.044 C 
ATOM      6  C   UNL     1      34.428 -17.316 -23.658  0.00  0.00    -0.044 C 
ATOM      7  H   UNL     1      33.123 -15.433 -22.328  0.00  0.00    -0.080 HD
ENDROOT
BRANCH   2   8
ATOM      8  N   UNL     1      34.968 -19.332 -22.344  0.00  0.00    +0.389 N 
ATOM      9  H   UNL     1      35.765 -19.752 -21.865  0.00  0.00    -0.084 HD
ATOM     10  H   UNL     1      34.871 -19.723 -23.281  0.00  0.00    -0.084 HD
BRANCH   8  11
ATOM     11  C   UNL     1      33.755 -19.618 -21.593  0.00  0.00    -0.032 C 
BRANCH  11  16
ATOM     12  O   UNL     1      32.252 -22.656 -18.114  0.00  0.00    -0.467 OA
ATOM     13  O   UNL     1      34.988 -22.855 -17.247  0.00  0.00    -0.453 OA
ATOM     14  N   UNL     1      35.306 -20.648 -20.022  0.00  0.00    -0.151 NA
ATOM     15  N   UNL     1      35.598 -21.447 -18.960  0.00  0.00    -0.107 NA
ATOM     16  C   UNL     1      34.022 -20.519 -20.417  0.00  0.00    +0.062 C 
ATOM     17  C   UNL     1      32.977 -21.173 -19.796  0.00  0.00    +0.056 C 
ATOM     18  C   UNL     1      33.280 -21.995 -18.724  0.00  0.00    +0.194 C 
ATOM     19  C   UNL     1      34.600 -22.094 -18.321  0.00  0.00    +0.278 C 
ATOM     20  C   UNL     1      32.723 -23.692 -17.247  0.00  0.00    +0.253 C 
ATOM     21  C   UNL     1      33.881 -23.190 -16.407  0.00  0.00    +0.254 C 
ENDBRANCH  11  16
ENDBRANCH   8  11
ENDBRANCH   2   8
BRANCH   1  22
ATOM     22  C   UNL     1      34.189 -13.716 -22.550  0.00  0.00    -0.071 C 
BRANCH  22  26
ATOM     23  F   UNL     1      31.731 -13.582 -20.377  0.00  0.00    -0.204 F 
ATOM     24  O   UNL     1      33.233  -9.641 -25.936  0.00  0.00    -0.270 OA
ATOM     25  N   UNL     1      32.701 -10.882 -24.058  0.00  0.00    -0.255 N 
ATOM     26  C   UNL     1      32.924 -13.126 -23.159  0.00  0.00    +0.025 C 
ATOM     27  C   UNL     1      33.236 -12.212 -24.381  0.00  0.00    +0.101 C 
ATOM     28  C   UNL     1      32.214 -12.183 -22.228  0.00  0.00    +0.018 C 
ATOM     29  C   UNL     1      32.116 -10.927 -22.800  0.00  0.00    +0.052 C 
ATOM     30  C   UNL     1      31.517  -9.835 -22.205  0.00  0.00    +0.014 C 
ATOM     31  C   UNL     1      31.673 -12.385 -20.972  0.00  0.00    +0.137 C 
ATOM     32  C   UNL     1      32.731  -9.735 -24.819  0.00  0.00    +0.253 C 
ATOM     33  C   UNL     1      30.973 -10.030 -20.939  0.00  0.00    +0.004 C 
ATOM     34  C   UNL     1      31.052 -11.300 -20.329  0.00  0.00    +0.029 C 
ATOM     35  C   UNL     1      31.515  -8.589 -22.965  0.00  0.00    +0.006 C 
ATOM     36  C   UNL     1      32.080  -8.537 -24.183  0.00  0.00    +0.058 C 
ENDBRANCH  22  26
ENDBRANCH   1  22
TORSDOF 5
ENDMDL
MODEL 5
REMARK VINA RESULT:     -12.5      3.147      4.921
REMARK  Name = 119057475
REMARK  5 active torsions:
REMARK  status: ('A' for Active; 'I' for Inactive)
REMARK    1  A    between atoms: N_1  and  C_22
REMARK    2  A    between atoms: C_2  and  N_8
REMARK    3  A    between atoms: N_8  and  C_11
REMARK    4  A    between atoms: C_11  and  C_16
REMARK    5  A    between atoms: C_22  and  C_26
REMARK                            x       y       z     vdW  Elec       q    Type
REMARK                         _______ _______ _______ _____ _____    ______ ____
ROOT
ATOM      1  N   UNL     1      33.233 -15.013 -24.393  0.00  0.00    +0.387 N 
ATOM      2  C   UNL     1      34.542 -17.619 -24.154  0.00  0.00    -0.066 C 
ATOM      3  C   UNL     1      34.469 -15.156 -23.611  0.00  0.00    -0.079 C 
ATOM      4  C   UNL     1      33.195 -15.970 -25.508  0.00  0.00    -0.079 C 
ATOM      5  C   UNL     1      34.601 -16.571 -23.041  0.00  0.00    -0.044 C 
ATOM      6  C   UNL     1      33.283 -17.412 -25.002  0.00  0.00    -0.044 C 
ATOM      7  H   UNL     1      32.447 -15.217 -23.777  0.00  0.00    -0.080 HD
ENDROOT
BRANCH   2   8
ATOM      8  N   UNL     1      34.574 -18.964 -23.585  0.00  0.00    +0.389 N 
ATOM      9  H   UNL     1      35.084 -19.582 -24.218  0.00  0.00    -0.084 HD
ATOM     10  H   UNL     1      33.616 -19.292 -23.465  0.00  0.00    -0.084 HD
BRANCH   8  11
ATOM     11  C   UNL     1      35.232 -18.962 -22.287  0.00  0.00    -0.032 C 
BRANCH  11  16
ATOM     12  O   UNL     1      35.202 -22.182 -18.651  0.00  0.00    -0.467 OA
ATOM     13  O   UNL     1      32.328 -22.084 -18.722  0.00  0.00    -0.453 OA
ATOM     14  N   UNL     1      33.158 -19.761 -21.289  0.00  0.00    -0.151 NA
ATOM     15  N   UNL     1      32.456 -20.526 -20.409  0.00  0.00    -0.107 NA
ATOM     16  C   UNL     1      34.506 -19.824 -21.289  0.00  0.00    +0.062 C 
ATOM     17  C   UNL     1      35.219 -20.627 -20.422  0.00  0.00    +0.056 C 
ATOM     18  C   UNL     1      34.502 -21.395 -19.520  0.00  0.00    +0.194 C 
ATOM     19  C   UNL     1      33.120 -21.333 -19.554  0.00  0.00    +0.278 C 
ATOM     20  C   UNL     1      34.378 -22.668 -17.587  0.00  0.00    +0.253 C 
ATOM     21  C   UNL     1      33.054 -23.166 -18.134  0.00  0.00    +0.254 C 
ENDBRANCH  11  16
ENDBRANCH   8  11
ENDBRANCH   2   8
BRANCH   1  22
ATOM     22  C   UNL     1      33.096 -13.644 -24.889  0.00  0.00    -0.071 C 
BRANCH  22  26
ATOM     23  F   UNL     1      35.072 -11.335 -26.132  0.00  0.00    -0.204 F 
ATOM     24  O   UNL     1      30.556 -11.209 -20.815  0.00  0.00    -0.270 OA
ATOM     25  N   UNL     1      32.039 -11.171 -22.590  0.00  0.00    -0.255 N 
ATOM     26  C   UNL     1      33.525 -12.634 -23.833  0.00  0.00    +0.025 C 
ATOM     27  C   UNL     1      32.512 -12.560 -22.652  0.00  0.00    +0.101 C 
ATOM     28  C   UNL     1      33.522 -11.220 -24.344  0.00  0.00    +0.018 C 
ATOM     29  C   UNL     1      32.662 -10.440 -23.591  0.00  0.00    +0.052 C 
ATOM     30  C   UNL     1      32.433  -9.095 -23.801  0.00  0.00    +0.014 C 
ATOM     31  C   UNL     1      34.220 -10.629 -25.380  0.00  0.00    +0.137 C 
ATOM     32  C   UNL     1      31.134 -10.609 -21.717  0.00  0.00    +0.253 C 
ATOM     33  C   UNL     1      33.129  -8.494 -24.845  0.00  0.00    +0.004 C 
ATOM     34  C   UNL     1      34.018  -9.260 -25.628  0.00  0.00    +0.029 C 
ATOM     35  C   UNL     1      31.484  -8.441 -22.904  0.00  0.00    +0.006 C 
ATOM     36  C   UNL     1      30.876  -9.143 -21.933  0.00  0.00    +0.058 C 
ENDBRANCH  22  26
ENDBRANCH   1  22
TORSDOF 5
ENDMDL
MODEL 6
REMARK VINA RESULT:     -12.5      1.559      2.259
REMARK  Name = 119057475
REMARK  5 active torsions:
REMARK  status: ('A' for Active; 'I' for Inactive)
REMARK    1  A    between atoms: N_1  and  C_22
REMARK    2  A    between atoms: C_2  and  N_8
REMARK    3  A    between atoms: N_8  and  C_11
REMARK    4  A    between atoms: C_11  and  C_16
REMARK    5  A    between atoms: C_22  and  C_26
REMARK                            x       y       z     vdW  Elec       q    Type
REMARK                         _______ _______ _______ _____ _____    ______ ____
ROOT
ATOM      1  N   UNL     1      34.909 -18.021 -22.324  0.00  0.00    +0.387 N 
ATOM      2  C   UNL     1      35.015 -20.455 -20.704  0.00  0.00    -0.066 C 
ATOM      3  C   UNL     1      36.198 -18.664 -22.030  0.00  0.00    -0.079 C 
ATOM      4  C   UNL     1      33.825 -19.010 -22.396  0.00  0.00    -0.079 C 
ATOM      5  C   UNL     1      36.145 -19.424 -20.701  0.00  0.00    -0.044 C 
ATOM      6  C   UNL     1      33.692 -19.781 -21.080  0.00  0.00    -0.044 C 
ATOM      7  H   UNL     1      34.698 -17.378 -21.560  0.00  0.00    -0.080 HD
ENDROOT
BRANCH   2   8
ATOM      8  N   UNL     1      34.919 -21.104 -19.398  0.00  0.00    +0.389 N 
ATOM      9  H   UNL     1      34.427 -21.992 -19.502  0.00  0.00    -0.084 HD
ATOM     10  H   UNL     1      34.409 -20.489 -18.763  0.00  0.00    -0.084 HD
BRANCH   8  11
ATOM     11  C   UNL     1      36.241 -21.353 -18.845  0.00  0.00    -0.032 C 
BRANCH  11  16
ATOM     12  O   UNL     1      33.752 -23.547 -15.298  0.00  0.00    -0.467 OA
ATOM     13  O   UNL     1      36.225 -23.783 -13.847  0.00  0.00    -0.453 OA
ATOM     14  N   UNL     1      37.328 -22.178 -16.827  0.00  0.00    -0.151 NA
ATOM     15  N   UNL     1      37.314 -22.779 -15.606  0.00  0.00    -0.107 NA
ATOM     16  C   UNL     1      36.169 -22.030 -17.502  0.00  0.00    +0.062 C 
ATOM     17  C   UNL     1      34.956 -22.473 -17.016  0.00  0.00    +0.056 C 
ATOM     18  C   UNL     1      34.947 -23.094 -15.778  0.00  0.00    +0.194 C 
ATOM     19  C   UNL     1      36.144 -23.214 -15.093  0.00  0.00    +0.278 C 
ATOM     20  C   UNL     1      33.923 -24.431 -14.185  0.00  0.00    +0.253 C 
ATOM     21  C   UNL     1      34.944 -23.866 -13.217  0.00  0.00    +0.254 C 
ENDBRANCH  11  16
ENDBRANCH   8  11
ENDBRANCH   2   8
BRANCH   1  22
ATOM     22  C   UNL     1      34.990 -17.258 -23.569  0.00  0.00    -0.071 C 
BRANCH  22  26
ATOM     23  F   UNL     1      34.237 -14.732 -21.611  0.00  0.00    -0.204 F 
ATOM     24  O   UNL     1      32.504 -16.164 -28.217  0.00  0.00    -0.270 OA
ATOM     25  N   UNL     1      33.074 -15.609 -26.045  0.00  0.00    -0.255 N 
ATOM     26  C   UNL     1      33.642 -16.646 -23.924  0.00  0.00    +0.025 C 
ATOM     27  C   UNL     1      33.249 -16.921 -25.406  0.00  0.00    +0.101 C 
ATOM     28  C   UNL     1      33.651 -15.143 -23.870  0.00  0.00    +0.018 C 
ATOM     29  C   UNL     1      33.316 -14.617 -25.105  0.00  0.00    +0.052 C 
ATOM     30  C   UNL     1      33.232 -13.269 -25.389  0.00  0.00    +0.014 C 
ATOM     31  C   UNL     1      33.918 -14.276 -22.828  0.00  0.00    +0.137 C 
ATOM     32  C   UNL     1      32.729 -15.327 -27.347  0.00  0.00    +0.253 C 
ATOM     33  C   UNL     1      33.503 -12.389 -24.346  0.00  0.00    +0.004 C 
ATOM     34  C   UNL     1      33.843 -12.894 -23.073  0.00  0.00    +0.029 C 
ATOM     35  C   UNL     1      32.867 -12.905 -26.755  0.00  0.00    +0.006 C 
ATOM     36  C   UNL     1      32.632 -13.861 -27.671  0.00  0.00    +0.058 C 
ENDBRANCH  22  26
ENDBRANCH   1  22
TORSDOF 5
ENDMDL
MODEL 7
REMARK VINA RESULT:     -12.5      2.802     11.424
REMARK  Name = 119057475
REMARK  5 active torsions:
REMARK  status: ('A' for Active; 'I' for Inactive)
REMARK    1  A    between atoms: N_1  and  C_22
REMARK    2  A    between atoms: C_2  and  N_8
REMARK    3  A    between atoms: N_8  and  C_11
REMARK    4  A    between atoms: C_11  and  C_16
REMARK    5  A    between atoms: C_22  and  C_26
REMARK                            x       y       z     vdW  Elec       q    Type
REMARK                         _______ _______ _______ _____ _____    ______ ____
ROOT
ATOM      1  N   UNL     1      34.087 -21.974 -19.879  0.00  0.00    +0.387 N 
ATOM      2  C   UNL     1      34.191 -19.236 -20.906  0.00  0.00    -0.066 C 
ATOM      3  C   UNL     1      35.348 -21.219 -19.861  0.00  0.00    -0.079 C 
ATOM      4  C   UNL     1      32.930 -21.079 -19.733  0.00  0.00    -0.079 C 
ATOM      5  C   UNL     1      35.388 -20.184 -20.989  0.00  0.00    -0.044 C 
ATOM      6  C   UNL     1      32.888 -20.040 -20.856  0.00  0.00    -0.044 C 
ATOM      7  H   UNL     1      34.012 -22.438 -20.784  0.00  0.00    -0.080 HD
ENDROOT
BRANCH   2   8
ATOM      8  N   UNL     1      34.194 -18.316 -22.042  0.00  0.00    +0.389 N 
ATOM      9  H   UNL     1      34.963 -17.653 -21.932  0.00  0.00    -0.084 HD
ATOM     10  H   UNL     1      33.302 -17.823 -22.066  0.00  0.00    -0.084 HD
BRANCH   8  11
ATOM     11  C   UNL     1      34.362 -19.039 -23.293  0.00  0.00    -0.032 C 
BRANCH  11  16
ATOM     12  O   UNL     1      33.317 -14.846 -25.511  0.00  0.00    -0.467 OA
ATOM     13  O   UNL     1      32.321 -16.385 -27.729  0.00  0.00    -0.453 OA
ATOM     14  N   UNL     1      33.394 -18.969 -25.527  0.00  0.00    -0.151 NA
ATOM     15  N   UNL     1      32.901 -18.309 -26.611  0.00  0.00    -0.107 NA
ATOM     16  C   UNL     1      33.833 -18.259 -24.467  0.00  0.00    +0.062 C 
ATOM     17  C   UNL     1      33.816 -16.880 -24.429  0.00  0.00    +0.056 C 
ATOM     18  C   UNL     1      33.324 -16.212 -25.538  0.00  0.00    +0.194 C 
ATOM     19  C   UNL     1      32.858 -16.960 -26.604  0.00  0.00    +0.278 C 
ATOM     20  C   UNL     1      33.089 -14.288 -26.809  0.00  0.00    +0.253 C 
ATOM     21  C   UNL     1      31.958 -15.021 -27.505  0.00  0.00    +0.254 C 
ENDBRANCH  11  16
ENDBRANCH   8  11
ENDBRANCH   2   8
BRANCH   1  22
ATOM     22  C   UNL     1      34.083 -22.992 -18.829  0.00  0.00    -0.071 C 
BRANCH  22  26
ATOM     23  F   UNL     1      31.222 -22.747 -17.236  0.00  0.00    -0.204 F 
ATOM     24  O   UNL     1      37.771 -23.466 -14.937  0.00  0.00    -0.270 OA
ATOM     25  N   UNL     1      35.574 -23.268 -15.633  0.00  0.00    -0.255 N 
ATOM     26  C   UNL     1      34.251 -22.360 -17.454  0.00  0.00    +0.025 C 
ATOM     27  C   UNL     1      35.697 -22.539 -16.902  0.00  0.00    +0.101 C 
ATOM     28  C   UNL     1      33.420 -23.033 -16.397  0.00  0.00    +0.018 C 
ATOM     29  C   UNL     1      34.232 -23.523 -15.389  0.00  0.00    +0.052 C 
ATOM     30  C   UNL     1      33.780 -24.193 -14.270  0.00  0.00    +0.014 C 
ATOM     31  C   UNL     1      32.054 -23.209 -16.294  0.00  0.00    +0.137 C 
ATOM     32  C   UNL     1      36.571 -23.666 -14.770  0.00  0.00    +0.253 C 
ATOM     33  C   UNL     1      32.405 -24.377 -14.161  0.00  0.00    +0.004 C 
ATOM     34  C   UNL     1      31.549 -23.886 -15.170  0.00  0.00    +0.029 C 
ATOM     35  C   UNL     1      34.791 -24.639 -13.316  0.00  0.00    +0.006 C 
ATOM     36  C   UNL     1      36.093 -24.396 -13.545  0.00  0.00    +0.058 C 
ENDBRANCH  22  26
ENDBRANCH   1  22
TORSDOF 5
ENDMDL
MODEL 8
REMARK VINA RESULT:     -12.2      3.146     11.934
REMARK  Name = 119057475
REMARK  5 active torsions:
REMARK  status: ('A' for Active; 'I' for Inactive)
REMARK    1  A    between atoms: N_1  and  C_22
REMARK    2  A    between atoms: C_2  and  N_8
REMARK    3  A    between atoms: N_8  and  C_11
REMARK    4  A    between atoms: C_11  and  C_16
REMARK    5  A    between atoms: C_22  and  C_26
REMARK                            x       y       z     vdW  Elec       q    Type
REMARK                         _______ _______ _______ _____ _____    ______ ____
ROOT
ATOM      1  N   UNL     1      34.612 -21.620 -18.630  0.00  0.00    +0.387 N 
ATOM      2  C   UNL     1      34.336 -20.213 -21.181  0.00  0.00    -0.066 C 
ATOM      3  C   UNL     1      33.360 -21.705 -19.395  0.00  0.00    -0.079 C 
ATOM      4  C   UNL     1      35.770 -21.459 -19.520  0.00  0.00    -0.079 C 
ATOM      5  C   UNL     1      33.148 -20.450 -20.247  0.00  0.00    -0.044 C 
ATOM      6  C   UNL     1      35.639 -20.196 -20.375  0.00  0.00    -0.044 C 
ATOM      7  H   UNL     1      34.558 -20.795 -18.032  0.00  0.00    -0.080 HD
ENDROOT
BRANCH   2   8
ATOM      8  N   UNL     1      34.160 -18.963 -21.917  0.00  0.00    +0.389 N 
ATOM      9  H   UNL     1      34.796 -18.260 -21.537  0.00  0.00    -0.084 HD
ATOM     10  H   UNL     1      33.193 -18.657 -21.816  0.00  0.00    -0.084 HD
BRANCH   8  11
ATOM     11  C   UNL     1      34.446 -19.150 -23.331  0.00  0.00    -0.032 C 
BRANCH  11  16
ATOM     12  O   UNL     1      32.386 -17.150 -27.249  0.00  0.00    -0.467 OA
ATOM     13  O   UNL     1      33.102 -14.574 -26.184  0.00  0.00    -0.453 OA
ATOM     14  N   UNL     1      34.343 -16.737 -23.643  0.00  0.00    -0.151 NA
ATOM     15  N   UNL     1      34.005 -15.622 -24.347  0.00  0.00    -0.107 NA
ATOM     16  C   UNL     1      34.044 -17.952 -24.148  0.00  0.00    +0.062 C 
ATOM     17  C   UNL     1      33.394 -18.123 -25.353  0.00  0.00    +0.056 C 
ATOM     18  C   UNL     1      33.041 -16.987 -26.061  0.00  0.00    +0.194 C 
ATOM     19  C   UNL     1      33.379 -15.752 -25.536  0.00  0.00    +0.278 C 
ATOM     20  C   UNL     1      31.810 -15.925 -27.713  0.00  0.00    +0.253 C 
ATOM     21  C   UNL     1      32.802 -14.788 -27.566  0.00  0.00    +0.254 C 
ENDBRANCH  11  16
ENDBRANCH   8  11
ENDBRANCH   2   8
BRANCH   1  22
ATOM     22  C   UNL     1      34.776 -22.802 -17.784  0.00  0.00    -0.071 C 
BRANCH  22  26
ATOM     23  F   UNL     1      32.463 -22.545 -15.468  0.00  0.00    -0.204 F 
ATOM     24  O   UNL     1      39.212 -24.282 -15.117  0.00  0.00    -0.270 OA
ATOM     25  N   UNL     1      36.960 -23.754 -15.169  0.00  0.00    -0.255 N 
ATOM     26  C   UNL     1      35.366 -22.428 -16.431  0.00  0.00    +0.025 C 
ATOM     27  C   UNL     1      36.864 -22.840 -16.314  0.00  0.00    +0.101 C 
ATOM     28  C   UNL     1      34.738 -23.184 -15.292  0.00  0.00    +0.018 C 
ATOM     29  C   UNL     1      35.698 -23.913 -14.613  0.00  0.00    +0.052 C 
ATOM     30  C   UNL     1      35.449 -24.712 -13.516  0.00  0.00    +0.014 C 
ATOM     31  C   UNL     1      33.429 -23.238 -14.853  0.00  0.00    +0.137 C 
ATOM     32  C   UNL     1      38.074 -24.387 -14.665  0.00  0.00    +0.253 C 
ATOM     33  C   UNL     1      34.132 -24.775 -13.070  0.00  0.00    +0.004 C 
ATOM     34  C   UNL     1      33.130 -24.039 -13.738  0.00  0.00    +0.029 C 
ATOM     35  C   UNL     1      36.593 -25.409 -12.936  0.00  0.00    +0.006 C 
ATOM     36  C   UNL     1      37.818 -25.261 -13.468  0.00  0.00    +0.058 C 
ENDBRANCH  22  26
ENDBRANCH   1  22
TORSDOF 5
ENDMDL
MODEL 9
REMARK VINA RESULT:     -12.2      2.609      3.312
REMARK  Name = 119057475
REMARK  5 active torsions:
REMARK  status: ('A' for Active; 'I' for Inactive)
REMARK    1  A    between atoms: N_1  and  C_22
REMARK    2  A    between atoms: C_2  and  N_8
REMARK    3  A    between atoms: N_8  and  C_11
REMARK    4  A    between atoms: C_11  and  C_16
REMARK    5  A    between atoms: C_22  and  C_26
REMARK                            x       y       z     vdW  Elec       q    Type
REMARK                         _______ _______ _______ _____ _____    ______ ____
ROOT
ATOM      1  N   UNL     1      35.405 -19.176 -21.103  0.00  0.00    +0.387 N 
ATOM      2  C   UNL     1      35.520 -21.567 -19.419  0.00  0.00    -0.066 C 
ATOM      3  C   UNL     1      36.690 -19.835 -20.833  0.00  0.00    -0.079 C 
ATOM      4  C   UNL     1      34.301 -20.147 -21.111  0.00  0.00    -0.079 C 
ATOM      5  C   UNL     1      36.668 -20.557 -19.482  0.00  0.00    -0.044 C 
ATOM      6  C   UNL     1      34.198 -20.879 -19.771  0.00  0.00    -0.044 C 
ATOM      7  H   UNL     1      35.231 -18.509 -20.351  0.00  0.00    -0.080 HD
ENDROOT
BRANCH   2   8
ATOM      8  N   UNL     1      35.455 -22.178 -18.093  0.00  0.00    +0.389 N 
ATOM      9  H   UNL     1      35.506 -23.192 -18.190  0.00  0.00    -0.084 HD
ATOM     10  H   UNL     1      34.577 -21.907 -17.650  0.00  0.00    -0.084 HD
BRANCH   8  11
ATOM     11  C   UNL     1      36.557 -21.722 -17.259  0.00  0.00    -0.032 C 
BRANCH  11  16
ATOM     12  O   UNL     1      34.896 -23.641 -13.118  0.00  0.00    -0.467 OA
ATOM     13  O   UNL     1      37.450 -24.932 -12.810  0.00  0.00    -0.453 OA
ATOM     14  N   UNL     1      37.911 -23.223 -15.899  0.00  0.00    -0.151 NA
ATOM     15  N   UNL     1      38.118 -24.011 -14.809  0.00  0.00    -0.107 NA
ATOM     16  C   UNL     1      36.730 -22.585 -16.038  0.00  0.00    +0.062 C 
ATOM     17  C   UNL     1      35.704 -22.701 -15.122  0.00  0.00    +0.056 C 
ATOM     18  C   UNL     1      35.913 -23.512 -14.020  0.00  0.00    +0.194 C 
ATOM     19  C   UNL     1      37.140 -24.138 -13.886  0.00  0.00    +0.278 C 
ATOM     20  C   UNL     1      35.118 -24.730 -12.216  0.00  0.00    +0.253 C 
ATOM     21  C   UNL     1      36.550 -24.719 -11.719  0.00  0.00    +0.254 C 
ENDBRANCH  11  16
ENDBRANCH   8  11
ENDBRANCH   2   8
BRANCH   1  22
ATOM     22  C   UNL     1      35.458 -18.450 -22.371  0.00  0.00    -0.071 C 
BRANCH  22  26
ATOM     23  F   UNL     1      34.823 -15.680 -20.725  0.00  0.00    -0.204 F 
ATOM     24  O   UNL     1      32.723 -17.950 -26.981  0.00  0.00    -0.270 OA
ATOM     25  N   UNL     1      33.415 -17.121 -24.934  0.00  0.00    -0.255 N 
ATOM     26  C   UNL     1      34.095 -17.876 -22.730  0.00  0.00    +0.025 C 
ATOM     27  C   UNL     1      33.620 -18.339 -24.139  0.00  0.00    +0.101 C 
ATOM     28  C   UNL     1      34.112 -16.379 -22.875  0.00  0.00    +0.018 C 
ATOM     29  C   UNL     1      33.710 -16.016 -24.149  0.00  0.00    +0.052 C 
ATOM     30  C   UNL     1      33.616 -14.717 -24.603  0.00  0.00    +0.014 C 
ATOM     31  C   UNL     1      34.438 -15.385 -21.973  0.00  0.00    +0.137 C 
ATOM     32  C   UNL     1      32.999 -17.008 -26.242  0.00  0.00    +0.253 C 
ATOM     33  C   UNL     1      33.947 -13.710 -23.702  0.00  0.00    +0.004 C 
ATOM     34  C   UNL     1      34.355 -14.046 -22.393  0.00  0.00    +0.029 C 
ATOM     35  C   UNL     1      33.177 -14.532 -25.984  0.00  0.00    +0.006 C 
ATOM     36  C   UNL     1      32.889 -15.597 -26.751  0.00  0.00    +0.058 C 
ENDBRANCH  22  26
ENDBRANCH   1  22
TORSDOF 5
ENDMDL
