MODEL 1
REMARK VINA RESULT:     -12.2      0.000      0.000
REMARK  Name = 447735
REMARK  4 active torsions:
REMARK  status: ('A' for Active; 'I' for Inactive)
REMARK    1  A    between atoms: N_2  and  C_13
REMARK    2  A    between atoms: C_3  and  C_18
REMARK    3  A    between atoms: C_7  and  C_15
REMARK    4  A    between atoms: C_26  and  C_30
REMARK                            x       y       z     vdW  Elec       q    Type
REMARK                         _______ _______ _______ _____ _____    ______ ____
ROOT
ATOM      1  O   UNL     1      33.458 -23.823 -18.064  0.00  0.00    -0.270 OA
ATOM      2  N   UNL     1      34.673 -22.308 -16.739  0.00  0.00    -0.280 N 
ATOM      3  C   UNL     1      33.993 -22.735 -17.888  0.00  0.00    +0.249 C 
ATOM      4  H   UNL     1      35.043 -21.396 -16.771  0.00  0.00    +0.155 HD
ENDROOT
BRANCH   2  13
ATOM      5  N   UNL     1      37.962 -25.314 -12.591  0.00  0.00    -0.274 NA
ATOM      6  C   UNL     1      36.348 -24.287 -14.116  0.00  0.00    +0.010 C 
ATOM      7  C   UNL     1      37.641 -24.936 -13.784  0.00  0.00    +0.053 C 
ATOM      8  C   UNL     1      35.314 -24.424 -13.180  0.00  0.00    -0.019 C 
ATOM      9  C   UNL     1      35.571 -25.217 -11.934  0.00  0.00    +0.053 C 
ATOM     10  C   UNL     1      37.020 -25.024 -11.505  0.00  0.00    +0.130 C 
ATOM     11  C   UNL     1      36.140 -23.579 -15.302  0.00  0.00    +0.016 C 
ATOM     12  C   UNL     1      34.059 -23.870 -13.452  0.00  0.00    -0.003 C 
ATOM     13  C   UNL     1      34.888 -23.016 -15.557  0.00  0.00    +0.051 C 
ATOM     14  C   UNL     1      33.851 -23.164 -14.637  0.00  0.00    +0.014 C 
BRANCH   7  15
ATOM     15  C   UNL     1      38.638 -25.178 -14.892  0.00  0.00    +0.040 C 
ATOM     16  C   UNL     1      40.039 -25.071 -14.315  0.00  0.00    +0.006 C 
ATOM     17  C   UNL     1      38.379 -26.541 -15.508  0.00  0.00    +0.006 C 
ENDBRANCH   7  15
ENDBRANCH   2  13
BRANCH   3  18
ATOM     18  C   UNL     1      33.953 -21.755 -19.006  0.00  0.00    +0.054 C 
ATOM     19  C   UNL     1      35.114 -20.265 -20.494  0.00  0.00    +0.000 C 
ATOM     20  C   UNL     1      33.878 -19.928 -21.094  0.00  0.00    +0.000 C 
ATOM     21  C   UNL     1      35.136 -21.192 -19.439  0.00  0.00    +0.005 C 
ATOM     22  C   UNL     1      32.738 -21.444 -19.571  0.00  0.00    +0.005 C 
ATOM     23  C   UNL     1      32.698 -20.526 -20.621  0.00  0.00    +0.000 C 
ATOM     24  C   UNL     1      33.857 -19.000 -22.149  0.00  0.00    +0.003 C 
ATOM     25  C   UNL     1      36.293 -19.666 -20.967  0.00  0.00    +0.000 C 
ATOM     26  C   UNL     1      35.038 -18.415 -22.606  0.00  0.00    +0.031 C 
ATOM     27  C   UNL     1      36.254 -18.747 -22.016  0.00  0.00    +0.003 C 
BRANCH  26  30
ATOM     28  N   UNL     1      34.518 -17.813 -24.958  0.00  0.00    -0.343 N 
ATOM     29  N   UNL     1      35.431 -16.223 -23.509  0.00  0.00    -0.285 NA
ATOM     30  C   UNL     1      34.999 -17.458 -23.700  0.00  0.00    +0.117 C 
ATOM     31  H   UNL     1      34.501 -17.149 -25.684  0.00  0.00    +0.144 HD
ATOM     32  H   UNL     1      34.196 -18.729 -25.121  0.00  0.00    +0.144 HD
ATOM     33  H   UNL     1      35.406 -15.573 -24.248  0.00  0.00    +0.188 HD
ENDBRANCH  26  30
ENDBRANCH   3  18
TORSDOF 4
ENDMDL
MODEL 2
REMARK VINA RESULT:     -11.6      3.943     12.241
REMARK  Name = 447735
REMARK  4 active torsions:
REMARK  status: ('A' for Active; 'I' for Inactive)
REMARK    1  A    between atoms: N_2  and  C_13
REMARK    2  A    between atoms: C_3  and  C_18
REMARK    3  A    between atoms: C_7  and  C_15
REMARK    4  A    between atoms: C_26  and  C_30
REMARK                            x       y       z     vdW  Elec       q    Type
REMARK                         _______ _______ _______ _____ _____    ______ ____
ROOT
ATOM      1  O   UNL     1      33.950 -19.013 -24.664  0.00  0.00    -0.270 OA
ATOM      2  N   UNL     1      34.185 -16.919 -23.619  0.00  0.00    -0.280 N 
ATOM      3  C   UNL     1      34.269 -18.316 -23.708  0.00  0.00    +0.249 C 
ATOM      4  H   UNL     1      34.487 -16.523 -22.771  0.00  0.00    +0.155 HD
ENDROOT
BRANCH   2  13
ATOM      5  N   UNL     1      32.979 -11.440 -25.981  0.00  0.00    -0.274 NA
ATOM      6  C   UNL     1      33.208 -13.770 -25.271  0.00  0.00    +0.010 C 
ATOM      7  C   UNL     1      33.091 -12.309 -25.032  0.00  0.00    +0.053 C 
ATOM      8  C   UNL     1      32.820 -14.237 -26.534  0.00  0.00    -0.019 C 
ATOM      9  C   UNL     1      32.306 -13.251 -27.539  0.00  0.00    +0.053 C 
ATOM     10  C   UNL     1      33.037 -11.926 -27.364  0.00  0.00    +0.130 C 
ATOM     11  C   UNL     1      33.667 -14.660 -24.297  0.00  0.00    +0.016 C 
ATOM     12  C   UNL     1      32.869 -15.607 -26.808  0.00  0.00    -0.003 C 
ATOM     13  C   UNL     1      33.727 -16.025 -24.586  0.00  0.00    +0.051 C 
ATOM     14  C   UNL     1      33.326 -16.496 -25.836  0.00  0.00    +0.014 C 
BRANCH   7  15
ATOM     15  C   UNL     1      33.094 -11.802 -23.610  0.00  0.00    +0.040 C 
ATOM     16  C   UNL     1      33.007 -10.287 -23.635  0.00  0.00    +0.006 C 
ATOM     17  C   UNL     1      31.933 -12.426 -22.855  0.00  0.00    +0.006 C 
ENDBRANCH   7  15
ENDBRANCH   2  13
BRANCH   3  18
ATOM     18  C   UNL     1      34.777 -19.002 -22.490  0.00  0.00    +0.054 C 
ATOM     19  C   UNL     1      34.383 -20.466 -20.624  0.00  0.00    +0.000 C 
ATOM     20  C   UNL     1      35.727 -20.284 -20.219  0.00  0.00    +0.000 C 
ATOM     21  C   UNL     1      33.918 -19.811 -21.776  0.00  0.00    +0.005 C 
ATOM     22  C   UNL     1      36.087 -18.808 -22.119  0.00  0.00    +0.005 C 
ATOM     23  C   UNL     1      36.567 -19.451 -20.977  0.00  0.00    +0.000 C 
ATOM     24  C   UNL     1      36.192 -20.939 -19.067  0.00  0.00    +0.003 C 
ATOM     25  C   UNL     1      33.545 -21.299 -19.865  0.00  0.00    +0.000 C 
ATOM     26  C   UNL     1      35.344 -21.763 -18.325  0.00  0.00    +0.031 C 
ATOM     27  C   UNL     1      34.023 -21.942 -18.724  0.00  0.00    +0.003 C 
BRANCH  26  30
ATOM     28  N   UNL     1      37.130 -22.207 -16.659  0.00  0.00    -0.343 N 
ATOM     29  N   UNL     1      35.064 -23.285 -16.487  0.00  0.00    -0.285 NA
ATOM     30  C   UNL     1      35.841 -22.435 -17.136  0.00  0.00    +0.117 C 
ATOM     31  H   UNL     1      37.446 -22.674 -15.851  0.00  0.00    +0.144 HD
ATOM     32  H   UNL     1      37.726 -21.581 -17.130  0.00  0.00    +0.144 HD
ATOM     33  H   UNL     1      35.398 -23.742 -15.681  0.00  0.00    +0.188 HD
ENDBRANCH  26  30
ENDBRANCH   3  18
TORSDOF 4
ENDMDL
MODEL 3
REMARK VINA RESULT:     -11.4      7.278     14.701
REMARK  Name = 447735
REMARK  4 active torsions:
REMARK  status: ('A' for Active; 'I' for Inactive)
REMARK    1  A    between atoms: N_2  and  C_13
REMARK    2  A    between atoms: C_3  and  C_18
REMARK    3  A    between atoms: C_7  and  C_15
REMARK    4  A    between atoms: C_26  and  C_30
REMARK                            x       y       z     vdW  Elec       q    Type
REMARK                         _______ _______ _______ _____ _____    ______ ____
ROOT
ATOM      1  O   UNL     1      32.909 -13.432 -25.242  0.00  0.00    -0.270 OA
ATOM      2  N   UNL     1      34.293 -11.981 -24.014  0.00  0.00    -0.280 N 
ATOM      3  C   UNL     1      33.693 -13.208 -24.326  0.00  0.00    +0.249 C 
ATOM      4  H   UNL     1      34.902 -11.983 -23.240  0.00  0.00    +0.155 HD
ENDROOT
BRANCH   2  13
ATOM      5  N   UNL     1      32.561  -6.171 -24.574  0.00  0.00    -0.274 NA
ATOM      6  C   UNL     1      33.249  -8.515 -24.721  0.00  0.00    +0.010 C 
ATOM      7  C   UNL     1      32.462  -7.390 -24.155  0.00  0.00    +0.053 C 
ATOM      8  C   UNL     1      33.834  -8.308 -25.977  0.00  0.00    -0.019 C 
ATOM      9  C   UNL     1      33.619  -6.992 -26.663  0.00  0.00    +0.053 C 
ATOM     10  C   UNL     1      33.550  -5.885 -25.619  0.00  0.00    +0.130 C 
ATOM     11  C   UNL     1      33.402  -9.737 -24.061  0.00  0.00    +0.016 C 
ATOM     12  C   UNL     1      34.553  -9.343 -26.582  0.00  0.00    -0.003 C 
ATOM     13  C   UNL     1      34.136 -10.758 -24.667  0.00  0.00    +0.051 C 
ATOM     14  C   UNL     1      34.706 -10.563 -25.924  0.00  0.00    +0.014 C 
BRANCH   7  15
ATOM     15  C   UNL     1      31.489  -7.673 -23.036  0.00  0.00    +0.040 C 
ATOM     16  C   UNL     1      32.054  -7.106 -21.746  0.00  0.00    +0.006 C 
ATOM     17  C   UNL     1      30.141  -7.067 -23.382  0.00  0.00    +0.006 C 
ENDBRANCH   7  15
ENDBRANCH   2  13
BRANCH   3  18
ATOM     18  C   UNL     1      34.040 -14.336 -23.421  0.00  0.00    +0.054 C 
ATOM     19  C   UNL     1      34.563 -16.664 -23.122  0.00  0.00    +0.000 C 
ATOM     20  C   UNL     1      34.689 -16.439 -21.731  0.00  0.00    +0.000 C 
ATOM     21  C   UNL     1      34.235 -15.588 -23.964  0.00  0.00    +0.005 C 
ATOM     22  C   UNL     1      34.156 -14.090 -22.072  0.00  0.00    +0.005 C 
ATOM     23  C   UNL     1      34.482 -15.146 -21.220  0.00  0.00    +0.000 C 
ATOM     24  C   UNL     1      35.017 -17.514 -20.888  0.00  0.00    +0.003 C 
ATOM     25  C   UNL     1      34.770 -17.956 -23.630  0.00  0.00    +0.000 C 
ATOM     26  C   UNL     1      35.219 -18.792 -21.411  0.00  0.00    +0.031 C 
ATOM     27  C   UNL     1      35.096 -19.013 -22.779  0.00  0.00    +0.003 C 
BRANCH  26  30
ATOM     28  N   UNL     1      34.738 -21.015 -20.415  0.00  0.00    -0.343 N 
ATOM     29  N   UNL     1      36.666 -19.842 -19.804  0.00  0.00    -0.285 NA
ATOM     30  C   UNL     1      35.559 -19.895 -20.526  0.00  0.00    +0.117 C 
ATOM     31  H   UNL     1      34.989 -21.750 -19.809  0.00  0.00    +0.144 HD
ATOM     32  H   UNL     1      33.909 -21.072 -20.942  0.00  0.00    +0.144 HD
ATOM     33  H   UNL     1      36.898 -20.587 -19.204  0.00  0.00    +0.188 HD
ENDBRANCH  26  30
ENDBRANCH   3  18
TORSDOF 4
ENDMDL
MODEL 4
REMARK VINA RESULT:     -11.0      7.942     12.637
REMARK  Name = 447735
REMARK  4 active torsions:
REMARK  status: ('A' for Active; 'I' for Inactive)
REMARK    1  A    between atoms: N_2  and  C_13
REMARK    2  A    between atoms: C_3  and  C_18
REMARK    3  A    between atoms: C_7  and  C_15
REMARK    4  A    between atoms: C_26  and  C_30
REMARK                            x       y       z     vdW  Elec       q    Type
REMARK                         _______ _______ _______ _____ _____    ______ ____
ROOT
ATOM      1  O   UNL     1      33.874 -11.949 -26.075  0.00  0.00    -0.270 OA
ATOM      2  N   UNL     1      33.428 -13.237 -24.159  0.00  0.00    -0.280 N 
ATOM      3  C   UNL     1      33.599 -12.050 -24.885  0.00  0.00    +0.249 C 
ATOM      4  H   UNL     1      33.208 -13.132 -23.206  0.00  0.00    +0.155 HD
ENDROOT
BRANCH   2  13
ATOM      5  N   UNL     1      34.614 -19.194 -23.745  0.00  0.00    -0.274 NA
ATOM      6  C   UNL     1      34.186 -16.844 -24.278  0.00  0.00    +0.010 C 
ATOM      7  C   UNL     1      34.790 -17.942 -23.480  0.00  0.00    +0.053 C 
ATOM      8  C   UNL     1      33.721 -17.176 -25.557  0.00  0.00    -0.019 C 
ATOM      9  C   UNL     1      33.873 -18.589 -26.035  0.00  0.00    +0.053 C 
ATOM     10  C   UNL     1      33.718 -19.539 -24.855  0.00  0.00    +0.130 C 
ATOM     11  C   UNL     1      34.088 -15.533 -23.806  0.00  0.00    +0.016 C 
ATOM     12  C   UNL     1      33.178 -16.179 -26.374  0.00  0.00    -0.003 C 
ATOM     13  C   UNL     1      33.530 -14.549 -24.623  0.00  0.00    +0.051 C 
ATOM     14  C   UNL     1      33.080 -14.870 -25.904  0.00  0.00    +0.014 C 
BRANCH   7  15
ATOM     15  C   UNL     1      35.662 -17.588 -22.300  0.00  0.00    +0.040 C 
ATOM     16  C   UNL     1      34.779 -17.432 -21.074  0.00  0.00    +0.006 C 
ATOM     17  C   UNL     1      36.711 -18.669 -22.112  0.00  0.00    +0.006 C 
ENDBRANCH   7  15
ENDBRANCH   2  13
BRANCH   3  18
ATOM     18  C   UNL     1      33.452 -10.797 -24.099  0.00  0.00    +0.054 C 
ATOM     19  C   UNL     1      32.351  -9.568 -22.349  0.00  0.00    +0.000 C 
ATOM     20  C   UNL     1      33.178  -8.456 -22.632  0.00  0.00    +0.000 C 
ATOM     21  C   UNL     1      32.503 -10.746 -23.099  0.00  0.00    +0.005 C 
ATOM     22  C   UNL     1      34.268  -9.730 -24.396  0.00  0.00    +0.005 C 
ATOM     23  C   UNL     1      34.133  -8.552 -23.660  0.00  0.00    +0.000 C 
ATOM     24  C   UNL     1      33.027  -7.278 -21.882  0.00  0.00    +0.003 C 
ATOM     25  C   UNL     1      31.398  -9.471 -21.322  0.00  0.00    +0.000 C 
ATOM     26  C   UNL     1      32.075  -7.199 -20.865  0.00  0.00    +0.031 C 
ATOM     27  C   UNL     1      31.261  -8.294 -20.586  0.00  0.00    +0.003 C 
BRANCH  26  30
ATOM     28  N   UNL     1      31.311  -4.848 -20.636  0.00  0.00    -0.343 N 
ATOM     29  N   UNL     1      32.398  -5.913 -18.862  0.00  0.00    -0.285 NA
ATOM     30  C   UNL     1      31.931  -5.974 -20.097  0.00  0.00    +0.117 C 
ATOM     31  H   UNL     1      31.225  -4.029 -20.096  0.00  0.00    +0.144 HD
ATOM     32  H   UNL     1      30.959  -4.872 -21.555  0.00  0.00    +0.144 HD
ATOM     33  H   UNL     1      32.303  -5.083 -18.339  0.00  0.00    +0.188 HD
ENDBRANCH  26  30
ENDBRANCH   3  18
TORSDOF 4
ENDMDL
MODEL 5
REMARK VINA RESULT:     -10.9      2.666      4.666
REMARK  Name = 447735
REMARK  4 active torsions:
REMARK  status: ('A' for Active; 'I' for Inactive)
REMARK    1  A    between atoms: N_2  and  C_13
REMARK    2  A    between atoms: C_3  and  C_18
REMARK    3  A    between atoms: C_7  and  C_15
REMARK    4  A    between atoms: C_26  and  C_30
REMARK                            x       y       z     vdW  Elec       q    Type
REMARK                         _______ _______ _______ _____ _____    ______ ____
ROOT
ATOM      1  O   UNL     1      36.841 -19.437 -19.842  0.00  0.00    -0.270 OA
ATOM      2  N   UNL     1      34.951 -20.824 -19.655  0.00  0.00    -0.280 N 
ATOM      3  C   UNL     1      35.753 -19.836 -20.243  0.00  0.00    +0.249 C 
ATOM      4  H   UNL     1      34.102 -21.019 -20.114  0.00  0.00    +0.155 HD
ENDROOT
BRANCH   2  13
ATOM      5  N   UNL     1      33.564 -24.422 -14.944  0.00  0.00    -0.274 NA
ATOM      6  C   UNL     1      34.418 -22.874 -16.637  0.00  0.00    +0.010 C 
ATOM      7  C   UNL     1      33.347 -23.489 -15.812  0.00  0.00    +0.053 C 
ATOM      8  C   UNL     1      35.736 -23.056 -16.198  0.00  0.00    -0.019 C 
ATOM      9  C   UNL     1      35.975 -23.833 -14.938  0.00  0.00    +0.053 C 
ATOM     10  C   UNL     1      34.932 -24.937 -14.822  0.00  0.00    +0.130 C 
ATOM     11  C   UNL     1      34.151 -22.134 -17.791  0.00  0.00    +0.016 C 
ATOM     12  C   UNL     1      36.787 -22.468 -16.908  0.00  0.00    -0.003 C 
ATOM     13  C   UNL     1      35.209 -21.564 -18.502  0.00  0.00    +0.051 C 
ATOM     14  C   UNL     1      36.521 -21.728 -18.060  0.00  0.00    +0.014 C 
BRANCH   7  15
ATOM     15  C   UNL     1      31.928 -23.003 -15.982  0.00  0.00    +0.040 C 
ATOM     16  C   UNL     1      31.134 -24.070 -16.714  0.00  0.00    +0.006 C 
ATOM     17  C   UNL     1      31.340 -22.691 -14.618  0.00  0.00    +0.006 C 
ENDBRANCH   7  15
ENDBRANCH   2  13
BRANCH   3  18
ATOM     18  C   UNL     1      35.190 -19.201 -21.464  0.00  0.00    +0.054 C 
ATOM     19  C   UNL     1      34.640 -17.210 -22.695  0.00  0.00    +0.000 C 
ATOM     20  C   UNL     1      34.141 -18.017 -23.745  0.00  0.00    +0.000 C 
ATOM     21  C   UNL     1      35.169 -17.824 -21.548  0.00  0.00    +0.005 C 
ATOM     22  C   UNL     1      34.711 -20.009 -22.469  0.00  0.00    +0.005 C 
ATOM     23  C   UNL     1      34.183 -19.416 -23.617  0.00  0.00    +0.000 C 
ATOM     24  C   UNL     1      33.613 -17.403 -24.892  0.00  0.00    +0.003 C 
ATOM     25  C   UNL     1      34.597 -15.813 -22.825  0.00  0.00    +0.000 C 
ATOM     26  C   UNL     1      33.578 -16.012 -25.003  0.00  0.00    +0.031 C 
ATOM     27  C   UNL     1      34.069 -15.219 -23.971  0.00  0.00    +0.003 C 
BRANCH  26  30
ATOM     28  N   UNL     1      32.536 -14.089 -26.177  0.00  0.00    -0.343 N 
ATOM     29  N   UNL     1      32.986 -16.070 -27.332  0.00  0.00    -0.285 NA
ATOM     30  C   UNL     1      33.029 -15.392 -26.198  0.00  0.00    +0.117 C 
ATOM     31  H   UNL     1      32.169 -13.688 -26.998  0.00  0.00    +0.144 HD
ATOM     32  H   UNL     1      32.556 -13.568 -25.341  0.00  0.00    +0.144 HD
ATOM     33  H   UNL     1      32.614 -15.652 -28.142  0.00  0.00    +0.188 HD
ENDBRANCH  26  30
ENDBRANCH   3  18
TORSDOF 4
ENDMDL
MODEL 6
REMARK VINA RESULT:     -10.7      1.114      2.688
REMARK  Name = 447735
REMARK  4 active torsions:
REMARK  status: ('A' for Active; 'I' for Inactive)
REMARK    1  A    between atoms: N_2  and  C_13
REMARK    2  A    between atoms: C_3  and  C_18
REMARK    3  A    between atoms: C_7  and  C_15
REMARK    4  A    between atoms: C_26  and  C_30
REMARK                            x       y       z     vdW  Elec       q    Type
REMARK                         _______ _______ _______ _____ _____    ______ ____
ROOT
ATOM      1  O   UNL     1      34.007 -23.327 -17.719  0.00  0.00    -0.270 OA
ATOM      2  N   UNL     1      36.066 -22.244 -17.370  0.00  0.00    -0.280 N 
ATOM      3  C   UNL     1      34.827 -22.456 -17.991  0.00  0.00    +0.249 C 
ATOM      4  H   UNL     1      36.599 -21.494 -17.718  0.00  0.00    +0.155 HD
ENDROOT
BRANCH   2  13
ATOM      5  N   UNL     1      36.051 -25.439 -12.188  0.00  0.00    -0.274 NA
ATOM      6  C   UNL     1      36.414 -24.084 -14.193  0.00  0.00    +0.010 C 
ATOM      7  C   UNL     1      35.643 -24.522 -13.002  0.00  0.00    +0.053 C 
ATOM      8  C   UNL     1      37.775 -24.416 -14.221  0.00  0.00    -0.019 C 
ATOM      9  C   UNL     1      38.358 -25.165 -13.061  0.00  0.00    +0.053 C 
ATOM     10  C   UNL     1      37.311 -26.120 -12.502  0.00  0.00    +0.130 C 
ATOM     11  C   UNL     1      35.839 -23.363 -15.242  0.00  0.00    +0.016 C 
ATOM     12  C   UNL     1      38.565 -23.997 -15.296  0.00  0.00    -0.003 C 
ATOM     13  C   UNL     1      36.633 -22.964 -16.319  0.00  0.00    +0.051 C 
ATOM     14  C   UNL     1      37.992 -23.277 -16.344  0.00  0.00    +0.014 C 
BRANCH   7  15
ATOM     15  C   UNL     1      34.315 -23.864 -12.714  0.00  0.00    +0.040 C 
ATOM     16  C   UNL     1      33.220 -24.660 -13.401  0.00  0.00    +0.006 C 
ATOM     17  C   UNL     1      34.109 -23.793 -11.211  0.00  0.00    +0.006 C 
ENDBRANCH   7  15
ENDBRANCH   2  13
BRANCH   3  18
ATOM     18  C   UNL     1      34.509 -21.532 -19.111  0.00  0.00    +0.054 C 
ATOM     19  C   UNL     1      35.254 -19.968 -20.779  0.00  0.00    +0.000 C 
ATOM     20  C   UNL     1      33.914 -19.808 -21.204  0.00  0.00    +0.000 C 
ATOM     21  C   UNL     1      35.539 -20.845 -19.719  0.00  0.00    +0.005 C 
ATOM     22  C   UNL     1      33.198 -21.395 -19.504  0.00  0.00    +0.005 C 
ATOM     23  C   UNL     1      32.896 -20.529 -20.556  0.00  0.00    +0.000 C 
ATOM     24  C   UNL     1      33.630 -18.931 -22.264  0.00  0.00    +0.003 C 
ATOM     25  C   UNL     1      36.270 -19.247 -21.427  0.00  0.00    +0.000 C 
ATOM     26  C   UNL     1      34.652 -18.223 -22.896  0.00  0.00    +0.031 C 
ATOM     27  C   UNL     1      35.970 -18.381 -22.478  0.00  0.00    +0.003 C 
BRANCH  26  30
ATOM     28  N   UNL     1      35.165 -16.237 -24.295  0.00  0.00    -0.343 N 
ATOM     29  N   UNL     1      33.256 -17.518 -24.720  0.00  0.00    -0.285 NA
ATOM     30  C   UNL     1      34.342 -17.320 -23.992  0.00  0.00    +0.117 C 
ATOM     31  H   UNL     1      34.935 -15.638 -25.042  0.00  0.00    +0.144 HD
ATOM     32  H   UNL     1      35.976 -16.071 -23.763  0.00  0.00    +0.144 HD
ATOM     33  H   UNL     1      33.043 -16.907 -25.463  0.00  0.00    +0.188 HD
ENDBRANCH  26  30
ENDBRANCH   3  18
TORSDOF 4
ENDMDL
MODEL 7
REMARK VINA RESULT:     -10.6      9.574     14.176
REMARK  Name = 447735
REMARK  4 active torsions:
REMARK  status: ('A' for Active; 'I' for Inactive)
REMARK    1  A    between atoms: N_2  and  C_13
REMARK    2  A    between atoms: C_3  and  C_18
REMARK    3  A    between atoms: C_7  and  C_15
REMARK    4  A    between atoms: C_26  and  C_30
REMARK                            x       y       z     vdW  Elec       q    Type
REMARK                         _______ _______ _______ _____ _____    ______ ____
ROOT
ATOM      1  O   UNL     1      34.741 -11.158 -25.414  0.00  0.00    -0.270 OA
ATOM      2  N   UNL     1      33.329 -11.949 -23.708  0.00  0.00    -0.280 N 
ATOM      3  C   UNL     1      33.897 -10.978 -24.544  0.00  0.00    +0.249 C 
ATOM      4  H   UNL     1      32.661 -11.624 -23.062  0.00  0.00    +0.155 HD
ENDROOT
BRANCH   2  13
ATOM      5  N   UNL     1      33.592 -17.594 -25.973  0.00  0.00    -0.274 NA
ATOM      6  C   UNL     1      33.484 -15.489 -24.728  0.00  0.00    +0.010 C 
ATOM      7  C   UNL     1      33.093 -16.411 -25.825  0.00  0.00    +0.053 C 
ATOM      8  C   UNL     1      34.134 -16.060 -23.626  0.00  0.00    -0.019 C 
ATOM      9  C   UNL     1      34.375 -17.539 -23.618  0.00  0.00    +0.053 C 
ATOM     10  C   UNL     1      34.645 -18.013 -25.041  0.00  0.00    +0.130 C 
ATOM     11  C   UNL     1      33.217 -14.119 -24.762  0.00  0.00    +0.016 C 
ATOM     12  C   UNL     1      34.492 -15.252 -22.542  0.00  0.00    -0.003 C 
ATOM     13  C   UNL     1      33.592 -13.318 -23.682  0.00  0.00    +0.051 C 
ATOM     14  C   UNL     1      34.225 -13.883 -22.575  0.00  0.00    +0.014 C 
BRANCH   7  15
ATOM     15  C   UNL     1      32.054 -15.956 -26.822  0.00  0.00    +0.040 C 
ATOM     16  C   UNL     1      32.738 -15.116 -27.886  0.00  0.00    +0.006 C 
ATOM     17  C   UNL     1      31.364 -17.171 -27.413  0.00  0.00    +0.006 C 
ENDBRANCH   7  15
ENDBRANCH   2  13
BRANCH   3  18
ATOM     18  C   UNL     1      33.429  -9.585 -24.313  0.00  0.00    +0.054 C 
ATOM     19  C   UNL     1      32.014  -8.049 -23.122  0.00  0.00    +0.000 C 
ATOM     20  C   UNL     1      32.557  -6.986 -23.881  0.00  0.00    +0.000 C 
ATOM     21  C   UNL     1      32.466  -9.358 -23.352  0.00  0.00    +0.005 C 
ATOM     22  C   UNL     1      33.974  -8.570 -25.065  0.00  0.00    +0.005 C 
ATOM     23  C   UNL     1      33.537  -7.262 -24.850  0.00  0.00    +0.000 C 
ATOM     24  C   UNL     1      32.105  -5.676 -23.651  0.00  0.00    +0.003 C 
ATOM     25  C   UNL     1      31.035  -7.770 -22.155  0.00  0.00    +0.000 C 
ATOM     26  C   UNL     1      31.131  -5.418 -22.685  0.00  0.00    +0.031 C 
ATOM     27  C   UNL     1      30.597  -6.464 -21.939  0.00  0.00    +0.003 C 
BRANCH  26  30
ATOM     28  N   UNL     1      31.500  -2.963 -22.709  0.00  0.00    -0.343 N 
ATOM     29  N   UNL     1      29.452  -3.840 -22.002  0.00  0.00    -0.285 NA
ATOM     30  C   UNL     1      30.674  -4.057 -22.459  0.00  0.00    +0.117 C 
ATOM     31  H   UNL     1      31.169  -2.050 -22.548  0.00  0.00    +0.144 HD
ATOM     32  H   UNL     1      32.414  -3.104 -23.046  0.00  0.00    +0.144 HD
ATOM     33  H   UNL     1      29.141  -2.919 -21.847  0.00  0.00    +0.188 HD
ENDBRANCH  26  30
ENDBRANCH   3  18
TORSDOF 4
ENDMDL
MODEL 8
REMARK VINA RESULT:     -10.5      9.426     15.482
REMARK  Name = 447735
REMARK  4 active torsions:
REMARK  status: ('A' for Active; 'I' for Inactive)
REMARK    1  A    between atoms: N_2  and  C_13
REMARK    2  A    between atoms: C_3  and  C_18
REMARK    3  A    between atoms: C_7  and  C_15
REMARK    4  A    between atoms: C_26  and  C_30
REMARK                            x       y       z     vdW  Elec       q    Type
REMARK                         _______ _______ _______ _____ _____    ______ ____
ROOT
ATOM      1  O   UNL     1      34.138 -10.072 -24.071  0.00  0.00    -0.270 OA
ATOM      2  N   UNL     1      32.161 -10.503 -22.873  0.00  0.00    -0.280 N 
ATOM      3  C   UNL     1      33.261 -10.832 -23.677  0.00  0.00    +0.249 C 
ATOM      4  H   UNL     1      31.552 -11.244 -22.651  0.00  0.00    +0.155 HD
ENDROOT
BRANCH   2  13
ATOM      5  N   UNL     1      30.139  -4.764 -23.069  0.00  0.00    -0.274 NA
ATOM      6  C   UNL     1      31.123  -6.970 -22.676  0.00  0.00    +0.010 C 
ATOM      7  C   UNL     1      30.747  -5.809 -23.523  0.00  0.00    +0.053 C 
ATOM      8  C   UNL     1      31.141  -6.760 -21.290  0.00  0.00    -0.019 C 
ATOM      9  C   UNL     1      30.803  -5.398 -20.763  0.00  0.00    +0.053 C 
ATOM     10  C   UNL     1      29.745  -4.762 -21.656  0.00  0.00    +0.130 C 
ATOM     11  C   UNL     1      31.458  -8.217 -23.208  0.00  0.00    +0.016 C 
ATOM     12  C   UNL     1      31.525  -7.801 -20.440  0.00  0.00    -0.003 C 
ATOM     13  C   UNL     1      31.824  -9.255 -22.349  0.00  0.00    +0.051 C 
ATOM     14  C   UNL     1      31.861  -9.046 -20.971  0.00  0.00    +0.014 C 
BRANCH   7  15
ATOM     15  C   UNL     1      31.097  -5.838 -24.991  0.00  0.00    +0.040 C 
ATOM     16  C   UNL     1      30.031  -5.077 -25.759  0.00  0.00    +0.006 C 
ATOM     17  C   UNL     1      32.478  -5.238 -25.188  0.00  0.00    +0.006 C 
ENDBRANCH   7  15
ENDBRANCH   2  13
BRANCH   3  18
ATOM     18  C   UNL     1      33.335 -12.254 -24.104  0.00  0.00    +0.054 C 
ATOM     19  C   UNL     1      33.963 -14.527 -23.632  0.00  0.00    +0.000 C 
ATOM     20  C   UNL     1      33.471 -14.909 -24.903  0.00  0.00    +0.000 C 
ATOM     21  C   UNL     1      33.886 -13.180 -23.243  0.00  0.00    +0.005 C 
ATOM     22  C   UNL     1      32.850 -12.599 -25.344  0.00  0.00    +0.005 C 
ATOM     23  C   UNL     1      32.917 -13.933 -25.748  0.00  0.00    +0.000 C 
ATOM     24  C   UNL     1      33.548 -16.256 -25.292  0.00  0.00    +0.003 C 
ATOM     25  C   UNL     1      34.516 -15.504 -22.789  0.00  0.00    +0.000 C 
ATOM     26  C   UNL     1      34.101 -17.213 -24.441  0.00  0.00    +0.031 C 
ATOM     27  C   UNL     1      34.585 -16.837 -23.191  0.00  0.00    +0.003 C 
BRANCH  26  30
ATOM     28  N   UNL     1      34.642 -19.596 -24.000  0.00  0.00    -0.343 N 
ATOM     29  N   UNL     1      33.791 -18.946 -26.077  0.00  0.00    -0.285 NA
ATOM     30  C   UNL     1      34.172 -18.604 -24.858  0.00  0.00    +0.117 C 
ATOM     31  H   UNL     1      34.681 -20.532 -24.304  0.00  0.00    +0.144 HD
ATOM     32  H   UNL     1      34.934 -19.361 -23.089  0.00  0.00    +0.144 HD
ATOM     33  H   UNL     1      33.839 -19.887 -26.362  0.00  0.00    +0.188 HD
ENDBRANCH  26  30
ENDBRANCH   3  18
TORSDOF 4
ENDMDL
MODEL 9
REMARK VINA RESULT:     -10.5      3.384      5.546
REMARK  Name = 447735
REMARK  4 active torsions:
REMARK  status: ('A' for Active; 'I' for Inactive)
REMARK    1  A    between atoms: N_2  and  C_13
REMARK    2  A    between atoms: C_3  and  C_18
REMARK    3  A    between atoms: C_7  and  C_15
REMARK    4  A    between atoms: C_26  and  C_30
REMARK                            x       y       z     vdW  Elec       q    Type
REMARK                         _______ _______ _______ _____ _____    ______ ____
ROOT
ATOM      1  O   UNL     1      35.384 -22.413 -18.057  0.00  0.00    -0.270 OA
ATOM      2  N   UNL     1      33.076 -22.009 -18.250  0.00  0.00    -0.280 N 
ATOM      3  C   UNL     1      34.425 -21.883 -18.606  0.00  0.00    +0.249 C 
ATOM      4  H   UNL     1      32.435 -21.510 -18.805  0.00  0.00    +0.155 HD
ENDROOT
BRANCH   2  13
ATOM      5  N   UNL     1      28.621 -24.674 -15.070  0.00  0.00    -0.274 NA
ATOM      6  C   UNL     1      30.606 -23.615 -16.031  0.00  0.00    +0.010 C 
ATOM      7  C   UNL     1      29.144 -23.755 -15.812  0.00  0.00    +0.053 C 
ATOM      8  C   UNL     1      31.447 -24.269 -15.120  0.00  0.00    -0.019 C 
ATOM      9  C   UNL     1      30.827 -25.040 -13.994  0.00  0.00    +0.053 C 
ATOM     10  C   UNL     1      29.522 -25.664 -14.470  0.00  0.00    +0.130 C 
ATOM     11  C   UNL     1      31.145 -22.864 -17.078  0.00  0.00    +0.016 C 
ATOM     12  C   UNL     1      32.834 -24.143 -15.248  0.00  0.00    -0.003 C 
ATOM     13  C   UNL     1      32.531 -22.758 -17.207  0.00  0.00    +0.051 C 
ATOM     14  C   UNL     1      33.372 -23.392 -16.293  0.00  0.00    +0.014 C 
BRANCH   7  15
ATOM     15  C   UNL     1      28.212 -22.773 -16.480  0.00  0.00    +0.040 C 
ATOM     16  C   UNL     1      27.499 -23.479 -17.619  0.00  0.00    +0.006 C 
ATOM     17  C   UNL     1      27.239 -22.229 -15.449  0.00  0.00    +0.006 C 
ENDBRANCH   7  15
ENDBRANCH   2  13
BRANCH   3  18
ATOM     18  C   UNL     1      34.699 -20.984 -19.759  0.00  0.00    +0.054 C 
ATOM     19  C   UNL     1      33.911 -19.832 -21.717  0.00  0.00    +0.000 C 
ATOM     20  C   UNL     1      35.209 -19.304 -21.909  0.00  0.00    +0.000 C 
ATOM     21  C   UNL     1      33.668 -20.680 -20.624  0.00  0.00    +0.005 C 
ATOM     22  C   UNL     1      35.970 -20.484 -19.922  0.00  0.00    +0.005 C 
ATOM     23  C   UNL     1      36.229 -19.640 -21.003  0.00  0.00    +0.000 C 
ATOM     24  C   UNL     1      35.452 -18.457 -23.003  0.00  0.00    +0.003 C 
ATOM     25  C   UNL     1      32.893 -19.496 -22.624  0.00  0.00    +0.000 C 
ATOM     26  C   UNL     1      34.428 -18.134 -23.894  0.00  0.00    +0.031 C 
ATOM     27  C   UNL     1      33.150 -18.653 -23.705  0.00  0.00    +0.003 C 
BRANCH  26  30
ATOM     28  N   UNL     1      35.318 -16.020 -24.845  0.00  0.00    -0.343 N 
ATOM     29  N   UNL     1      34.339 -17.620 -26.240  0.00  0.00    -0.285 NA
ATOM     30  C   UNL     1      34.694 -17.254 -25.020  0.00  0.00    +0.117 C 
ATOM     31  H   UNL     1      35.488 -15.441 -25.623  0.00  0.00    +0.144 HD
ATOM     32  H   UNL     1      35.587 -15.728 -23.945  0.00  0.00    +0.144 HD
ATOM     33  H   UNL     1      34.517 -17.026 -27.004  0.00  0.00    +0.188 HD
ENDBRANCH  26  30
ENDBRANCH   3  18
TORSDOF 4
ENDMDL
