MODEL 1
REMARK VINA RESULT:     -13.0      0.000      0.000
REMARK  Name = 11955716
REMARK  6 active torsions:
REMARK  status: ('A' for Active; 'I' for Inactive)
REMARK    1  A    between atoms: C_4  and  C_25
REMARK    2  A    between atoms: C_11  and  C_12
REMARK    3  A    between atoms: C_13  and  C_18
REMARK    4  A    between atoms: C_15  and  O_21
REMARK    5  A    between atoms: C_16  and  O_23
REMARK    6  A    between atoms: C_25  and  N_26
REMARK                            x       y       z     vdW  Elec       q    Type
REMARK                         _______ _______ _______ _____ _____    ______ ____
ROOT
ATOM      1  O   UNL     1      35.383 -23.676 -16.179  0.00  0.00    -0.269 OA
ATOM      2  N   UNL     1      34.106 -22.567 -17.775  0.00  0.00    -0.231 N 
ATOM      3  C   UNL     1      34.612 -21.225 -19.608  0.00  0.00    +0.016 C 
ATOM      4  C   UNL     1      34.412 -19.791 -21.503  0.00  0.00    -0.043 C 
ATOM      5  C   UNL     1      33.216 -21.268 -19.492  0.00  0.00    +0.016 C 
ATOM      6  C   UNL     1      35.247 -22.049 -18.539  0.00  0.00    +0.072 C 
ATOM      7  C   UNL     1      32.817 -22.129 -18.340  0.00  0.00    +0.072 C 
ATOM      8  C   UNL     1      35.224 -20.492 -20.608  0.00  0.00    -0.005 C 
ATOM      9  C   UNL     1      33.012 -19.834 -21.388  0.00  0.00    -0.006 C 
ATOM     10  C   UNL     1      32.404 -20.578 -20.374  0.00  0.00    +0.001 C 
ATOM     11  C   UNL     1      34.295 -23.324 -16.627  0.00  0.00    +0.259 C 
ENDROOT
BRANCH  11  12
ATOM     12  C   UNL     1      33.094 -23.724 -15.881  0.00  0.00    +0.088 C 
ATOM     13  C   UNL     1      30.689 -23.737 -15.680  0.00  0.00    +0.012 C 
ATOM     14  C   UNL     1      31.841 -23.367 -16.375  0.00  0.00    +0.006 C 
ATOM     15  C   UNL     1      33.201 -24.449 -14.697  0.00  0.00    +0.141 C 
ATOM     16  C   UNL     1      30.793 -24.464 -14.494  0.00  0.00    +0.133 C 
ATOM     17  C   UNL     1      32.049 -24.819 -14.002  0.00  0.00    +0.073 C 
BRANCH  13  18
ATOM     18  C   UNL     1      29.353 -23.347 -16.222  0.00  0.00    +0.025 C 
ATOM     19  C   UNL     1      28.609 -22.366 -15.299  0.00  0.00    +0.005 C 
ATOM     20  C   UNL     1      28.461 -24.568 -16.518  0.00  0.00    +0.005 C 
ENDBRANCH  13  18
BRANCH  15  21
ATOM     21  O   UNL     1      34.419 -24.805 -14.199  0.00  0.00    -0.505 OA
ATOM     22  H   UNL     1      34.886 -25.525 -14.576  0.00  0.00    +0.292 HD
ENDBRANCH  15  21
BRANCH  16  23
ATOM     23  O   UNL     1      29.679 -24.832 -13.803  0.00  0.00    -0.506 OA
ATOM     24  H   UNL     1      29.728 -24.987 -12.881  0.00  0.00    +0.292 HD
ENDBRANCH  16  23
ENDBRANCH  11  12
BRANCH   4  25
ATOM     25  C   UNL     1      35.038 -18.984 -22.598  0.00  0.00    -0.050 C 
BRANCH  25  26
ATOM     26  N   UNL     1      34.421 -17.665 -22.723  0.00  0.00    +0.387 N 
ATOM     27  N   UNL     1      34.493 -14.832 -23.295  0.00  0.00    +0.383 N 
ATOM     28  C   UNL     1      35.033 -16.714 -21.787  0.00  0.00    -0.100 C 
ATOM     29  C   UNL     1      34.528 -17.168 -24.100  0.00  0.00    -0.100 C 
ATOM     30  C   UNL     1      34.389 -15.329 -21.919  0.00  0.00    -0.101 C 
ATOM     31  C   UNL     1      33.882 -15.785 -24.232  0.00  0.00    -0.101 C 
ATOM     32  C   UNL     1      33.874 -13.514 -23.420  0.00  0.00    -0.101 C 
ATOM     33  H   UNL     1      33.433 -17.757 -22.490  0.00  0.00    -0.079 HD
ATOM     34  H   UNL     1      35.481 -14.740 -23.530  0.00  0.00    -0.080 HD
ENDBRANCH  25  26
ENDBRANCH   4  25
TORSDOF 6
ENDMDL
MODEL 2
REMARK VINA RESULT:     -12.4      2.334      4.209
REMARK  Name = 11955716
REMARK  6 active torsions:
REMARK  status: ('A' for Active; 'I' for Inactive)
REMARK    1  A    between atoms: C_4  and  C_25
REMARK    2  A    between atoms: C_11  and  C_12
REMARK    3  A    between atoms: C_13  and  C_18
REMARK    4  A    between atoms: C_15  and  O_21
REMARK    5  A    between atoms: C_16  and  O_23
REMARK    6  A    between atoms: C_25  and  N_26
REMARK                            x       y       z     vdW  Elec       q    Type
REMARK                         _______ _______ _______ _____ _____    ______ ____
ROOT
ATOM      1  O   UNL     1      32.067 -24.249 -15.573  0.00  0.00    -0.269 OA
ATOM      2  N   UNL     1      33.820 -23.117 -16.599  0.00  0.00    -0.231 N 
ATOM      3  C   UNL     1      34.086 -22.066 -18.659  0.00  0.00    +0.016 C 
ATOM      4  C   UNL     1      35.032 -20.918 -20.523  0.00  0.00    -0.043 C 
ATOM      5  C   UNL     1      35.316 -21.998 -17.991  0.00  0.00    +0.016 C 
ATOM      6  C   UNL     1      33.075 -22.766 -17.813  0.00  0.00    +0.072 C 
ATOM      7  C   UNL     1      35.215 -22.641 -16.648  0.00  0.00    +0.072 C 
ATOM      8  C   UNL     1      33.929 -21.531 -19.924  0.00  0.00    -0.005 C 
ATOM      9  C   UNL     1      36.265 -20.849 -19.853  0.00  0.00    -0.006 C 
ATOM     10  C   UNL     1      36.413 -21.392 -18.575  0.00  0.00    +0.001 C 
ATOM     11  C   UNL     1      33.234 -23.866 -15.588  0.00  0.00    +0.259 C 
ENDROOT
BRANCH  11  12
ATOM     12  C   UNL     1      34.085 -24.242 -14.450  0.00  0.00    +0.088 C 
ATOM     13  C   UNL     1      36.080 -25.318 -13.624  0.00  0.00    +0.012 C 
ATOM     14  C   UNL     1      35.259 -24.951 -14.690  0.00  0.00    +0.006 C 
ATOM     15  C   UNL     1      33.726 -23.898 -13.149  0.00  0.00    +0.141 C 
ATOM     16  C   UNL     1      35.723 -24.975 -12.319  0.00  0.00    +0.133 C 
ATOM     17  C   UNL     1      34.547 -24.265 -12.082  0.00  0.00    +0.073 C 
BRANCH  13  18
ATOM     18  C   UNL     1      37.336 -26.078 -13.896  0.00  0.00    +0.025 C 
ATOM     19  C   UNL     1      38.587 -25.183 -13.845  0.00  0.00    +0.005 C 
ATOM     20  C   UNL     1      37.287 -26.834 -15.237  0.00  0.00    +0.005 C 
ENDBRANCH  13  18
BRANCH  15  21
ATOM     21  O   UNL     1      32.580 -23.205 -12.897  0.00  0.00    -0.505 OA
ATOM     22  H   UNL     1      32.198 -22.672 -13.566  0.00  0.00    +0.292 HD
ENDBRANCH  15  21
BRANCH  16  23
ATOM     23  O   UNL     1      36.513 -25.326 -11.266  0.00  0.00    -0.506 OA
ATOM     24  H   UNL     1      37.444 -25.343 -11.364  0.00  0.00    +0.292 HD
ENDBRANCH  16  23
ENDBRANCH  11  12
BRANCH   4  25
ATOM     25  C   UNL     1      34.901 -20.330 -21.893  0.00  0.00    -0.050 C 
BRANCH  25  26
ATOM     26  N   UNL     1      34.453 -18.939 -21.848  0.00  0.00    +0.387 N 
ATOM     27  N   UNL     1      34.830 -16.098 -22.224  0.00  0.00    +0.383 N 
ATOM     28  C   UNL     1      35.287 -18.154 -20.930  0.00  0.00    -0.100 C 
ATOM     29  C   UNL     1      34.466 -18.343 -23.189  0.00  0.00    -0.100 C 
ATOM     30  C   UNL     1      34.821 -16.694 -20.884  0.00  0.00    -0.101 C 
ATOM     31  C   UNL     1      33.997 -16.885 -23.143  0.00  0.00    -0.101 C 
ATOM     32  C   UNL     1      34.381 -14.708 -22.179  0.00  0.00    -0.101 C 
ATOM     33  H   UNL     1      33.494 -18.929 -21.500  0.00  0.00    -0.079 HD
ATOM     34  H   UNL     1      35.789 -16.108 -22.574  0.00  0.00    -0.080 HD
ENDBRANCH  25  26
ENDBRANCH   4  25
TORSDOF 6
ENDMDL
MODEL 3
REMARK VINA RESULT:     -12.3      5.720     11.670
REMARK  Name = 11955716
REMARK  6 active torsions:
REMARK  status: ('A' for Active; 'I' for Inactive)
REMARK    1  A    between atoms: C_4  and  C_25
REMARK    2  A    between atoms: C_11  and  C_12
REMARK    3  A    between atoms: C_13  and  C_18
REMARK    4  A    between atoms: C_15  and  O_21
REMARK    5  A    between atoms: C_16  and  O_23
REMARK    6  A    between atoms: C_25  and  N_26
REMARK                            x       y       z     vdW  Elec       q    Type
REMARK                         _______ _______ _______ _____ _____    ______ ____
ROOT
ATOM      1  O   UNL     1      32.982 -12.595 -25.786  0.00  0.00    -0.269 OA
ATOM      2  N   UNL     1      33.712 -13.660 -23.852  0.00  0.00    -0.231 N 
ATOM      3  C   UNL     1      34.198 -15.869 -23.303  0.00  0.00    +0.016 C 
ATOM      4  C   UNL     1      34.785 -17.836 -22.090  0.00  0.00    -0.043 C 
ATOM      5  C   UNL     1      34.354 -15.104 -22.140  0.00  0.00    +0.016 C 
ATOM      6  C   UNL     1      33.795 -14.999 -24.446  0.00  0.00    +0.072 C 
ATOM      7  C   UNL     1      34.073 -13.665 -22.422  0.00  0.00    +0.072 C 
ATOM      8  C   UNL     1      34.410 -17.235 -23.294  0.00  0.00    -0.005 C 
ATOM      9  C   UNL     1      34.942 -17.069 -20.923  0.00  0.00    -0.006 C 
ATOM     10  C   UNL     1      34.726 -15.690 -20.943  0.00  0.00    +0.001 C 
ATOM     11  C   UNL     1      33.276 -12.571 -24.593  0.00  0.00    +0.259 C 
ENDROOT
BRANCH  11  12
ATOM     12  C   UNL     1      33.143 -11.288 -23.889  0.00  0.00    +0.088 C 
ATOM     13  C   UNL     1      32.123  -9.987 -22.132  0.00  0.00    +0.012 C 
ATOM     14  C   UNL     1      32.264 -11.196 -22.813  0.00  0.00    +0.006 C 
ATOM     15  C   UNL     1      33.882 -10.177 -24.288  0.00  0.00    +0.141 C 
ATOM     16  C   UNL     1      32.862  -8.872 -22.529  0.00  0.00    +0.133 C 
ATOM     17  C   UNL     1      33.741  -8.967 -23.608  0.00  0.00    +0.073 C 
BRANCH  13  18
ATOM     18  C   UNL     1      31.177  -9.903 -20.979  0.00  0.00    +0.025 C 
ATOM     19  C   UNL     1      31.896  -9.992 -19.621  0.00  0.00    +0.005 C 
ATOM     20  C   UNL     1      30.064 -10.965 -21.054  0.00  0.00    +0.005 C 
ENDBRANCH  13  18
BRANCH  15  21
ATOM     21  O   UNL     1      34.745 -10.249 -25.341  0.00  0.00    -0.505 OA
ATOM     22  H   UNL     1      34.455 -10.020 -26.201  0.00  0.00    +0.292 HD
ENDBRANCH  15  21
BRANCH  16  23
ATOM     23  O   UNL     1      32.735  -7.684 -21.876  0.00  0.00    -0.506 OA
ATOM     24  H   UNL     1      33.497  -7.185 -21.658  0.00  0.00    +0.292 HD
ENDBRANCH  16  23
ENDBRANCH  11  12
BRANCH   4  25
ATOM     25  C   UNL     1      35.021 -19.314 -22.040  0.00  0.00    -0.050 C 
BRANCH  25  26
ATOM     26  N   UNL     1      34.518 -19.904 -20.801  0.00  0.00    +0.387 N 
ATOM     27  N   UNL     1      33.375 -22.063 -19.255  0.00  0.00    +0.383 N 
ATOM     28  C   UNL     1      33.104 -20.274 -20.938  0.00  0.00    -0.100 C 
ATOM     29  C   UNL     1      35.318 -21.074 -20.418  0.00  0.00    -0.100 C 
ATOM     30  C   UNL     1      32.575 -20.895 -19.640  0.00  0.00    -0.101 C 
ATOM     31  C   UNL     1      34.791 -21.694 -19.120  0.00  0.00    -0.101 C 
ATOM     32  C   UNL     1      32.873 -22.652 -18.015  0.00  0.00    -0.101 C 
ATOM     33  H   UNL     1      34.598 -19.205 -20.064  0.00  0.00    -0.079 HD
ATOM     34  H   UNL     1      33.296 -22.765 -19.992  0.00  0.00    -0.080 HD
ENDBRANCH  25  26
ENDBRANCH   4  25
TORSDOF 6
ENDMDL
MODEL 4
REMARK VINA RESULT:     -12.1      4.020      9.856
REMARK  Name = 11955716
REMARK  6 active torsions:
REMARK  status: ('A' for Active; 'I' for Inactive)
REMARK    1  A    between atoms: C_4  and  C_25
REMARK    2  A    between atoms: C_11  and  C_12
REMARK    3  A    between atoms: C_13  and  C_18
REMARK    4  A    between atoms: C_15  and  O_21
REMARK    5  A    between atoms: C_16  and  O_23
REMARK    6  A    between atoms: C_25  and  N_26
REMARK                            x       y       z     vdW  Elec       q    Type
REMARK                         _______ _______ _______ _____ _____    ______ ____
ROOT
ATOM      1  O   UNL     1      37.110 -18.634 -22.092  0.00  0.00    -0.269 OA
ATOM      2  N   UNL     1      35.221 -19.532 -21.075  0.00  0.00    -0.231 N 
ATOM      3  C   UNL     1      34.873 -21.194 -19.483  0.00  0.00    +0.016 C 
ATOM      4  C   UNL     1      33.828 -22.749 -18.008  0.00  0.00    -0.043 C 
ATOM      5  C   UNL     1      33.614 -20.737 -19.895  0.00  0.00    +0.016 C 
ATOM      6  C   UNL     1      35.953 -20.452 -20.196  0.00  0.00    +0.072 C 
ATOM      7  C   UNL     1      33.761 -19.653 -20.910  0.00  0.00    +0.072 C 
ATOM      8  C   UNL     1      34.995 -22.198 -18.541  0.00  0.00    -0.005 C 
ATOM      9  C   UNL     1      32.565 -22.291 -18.420  0.00  0.00    -0.006 C 
ATOM     10  C   UNL     1      32.452 -21.276 -19.373  0.00  0.00    +0.001 C 
ATOM     11  C   UNL     1      35.889 -18.715 -21.976  0.00  0.00    +0.259 C 
ENDROOT
BRANCH  11  12
ATOM     12  C   UNL     1      35.068 -17.891 -22.874  0.00  0.00    +0.088 C 
ATOM     13  C   UNL     1      33.952 -15.799 -23.323  0.00  0.00    +0.012 C 
ATOM     14  C   UNL     1      34.732 -16.597 -22.484  0.00  0.00    +0.006 C 
ATOM     15  C   UNL     1      34.630 -18.392 -24.097  0.00  0.00    +0.141 C 
ATOM     16  C   UNL     1      33.512 -16.298 -24.549  0.00  0.00    +0.133 C 
ATOM     17  C   UNL     1      33.850 -17.595 -24.936  0.00  0.00    +0.073 C 
BRANCH  13  18
ATOM     18  C   UNL     1      33.600 -14.413 -22.892  0.00  0.00    +0.025 C 
ATOM     19  C   UNL     1      34.169 -13.341 -23.839  0.00  0.00    +0.005 C 
ATOM     20  C   UNL     1      34.035 -14.119 -21.445  0.00  0.00    +0.005 C 
ENDBRANCH  13  18
BRANCH  15  21
ATOM     21  O   UNL     1      34.949 -19.657 -24.492  0.00  0.00    -0.505 OA
ATOM     22  H   UNL     1      35.838 -19.950 -24.453  0.00  0.00    +0.292 HD
ENDBRANCH  15  21
BRANCH  16  23
ATOM     23  O   UNL     1      32.749 -15.533 -25.379  0.00  0.00    -0.506 OA
ATOM     24  H   UNL     1      32.169 -14.891 -25.022  0.00  0.00    +0.292 HD
ENDBRANCH  16  23
ENDBRANCH  11  12
BRANCH   4  25
ATOM     25  C   UNL     1      33.921 -23.840 -16.986  0.00  0.00    -0.050 C 
BRANCH  25  26
ATOM     26  N   UNL     1      34.518 -23.369 -15.739  0.00  0.00    +0.387 N 
ATOM     27  N   UNL     1      36.018 -23.748 -13.297  0.00  0.00    +0.383 N 
ATOM     28  C   UNL     1      33.934 -24.065 -14.586  0.00  0.00    -0.100 C 
ATOM     29  C   UNL     1      35.975 -23.546 -15.759  0.00  0.00    -0.100 C 
ATOM     30  C   UNL     1      34.561 -23.574 -13.277  0.00  0.00    -0.101 C 
ATOM     31  C   UNL     1      36.603 -23.053 -14.451  0.00  0.00    -0.101 C 
ATOM     32  C   UNL     1      36.616 -23.275 -12.050  0.00  0.00    -0.101 C 
ATOM     33  H   UNL     1      34.317 -22.373 -15.650  0.00  0.00    -0.079 HD
ATOM     34  H   UNL     1      36.221 -24.744 -13.386  0.00  0.00    -0.080 HD
ENDBRANCH  25  26
ENDBRANCH   4  25
TORSDOF 6
ENDMDL
MODEL 5
REMARK VINA RESULT:     -12.0      1.731      2.356
REMARK  Name = 11955716
REMARK  6 active torsions:
REMARK  status: ('A' for Active; 'I' for Inactive)
REMARK    1  A    between atoms: C_4  and  C_25
REMARK    2  A    between atoms: C_11  and  C_12
REMARK    3  A    between atoms: C_13  and  C_18
REMARK    4  A    between atoms: C_15  and  O_21
REMARK    5  A    between atoms: C_16  and  O_23
REMARK    6  A    between atoms: C_25  and  N_26
REMARK                            x       y       z     vdW  Elec       q    Type
REMARK                         _______ _______ _______ _____ _____    ______ ____
ROOT
ATOM      1  O   UNL     1      37.223 -22.679 -16.150  0.00  0.00    -0.269 OA
ATOM      2  N   UNL     1      35.647 -22.043 -17.736  0.00  0.00    -0.231 N 
ATOM      3  C   UNL     1      35.722 -20.740 -19.663  0.00  0.00    +0.016 C 
ATOM      4  C   UNL     1      35.090 -19.533 -21.621  0.00  0.00    -0.043 C 
ATOM      5  C   UNL     1      34.390 -21.132 -19.474  0.00  0.00    +0.016 C 
ATOM      6  C   UNL     1      36.587 -21.301 -18.585  0.00  0.00    +0.072 C 
ATOM      7  C   UNL     1      34.269 -21.989 -18.258  0.00  0.00    +0.072 C 
ATOM      8  C   UNL     1      36.087 -19.942 -20.732  0.00  0.00    -0.005 C 
ATOM      9  C   UNL     1      33.754 -19.926 -21.431  0.00  0.00    -0.006 C 
ATOM     10  C   UNL     1      33.396 -20.733 -20.349  0.00  0.00    +0.001 C 
ATOM     11  C   UNL     1      36.066 -22.649 -16.560  0.00  0.00    +0.259 C 
ENDROOT
BRANCH  11  12
ATOM     12  C   UNL     1      35.037 -23.295 -15.733  0.00  0.00    +0.088 C 
ATOM     13  C   UNL     1      32.704 -23.718 -15.287  0.00  0.00    +0.012 C 
ATOM     14  C   UNL     1      33.695 -23.114 -16.061  0.00  0.00    +0.006 C 
ATOM     15  C   UNL     1      35.393 -24.076 -14.636  0.00  0.00    +0.141 C 
ATOM     16  C   UNL     1      33.057 -24.501 -14.188  0.00  0.00    +0.133 C 
ATOM     17  C   UNL     1      34.401 -24.680 -13.862  0.00  0.00    +0.073 C 
BRANCH  13  18
ATOM     18  C   UNL     1      31.269 -23.516 -15.650  0.00  0.00    +0.025 C 
ATOM     19  C   UNL     1      31.100 -22.835 -17.020  0.00  0.00    +0.005 C 
ATOM     20  C   UNL     1      30.496 -22.730 -14.575  0.00  0.00    +0.005 C 
ENDBRANCH  13  18
BRANCH  15  21
ATOM     21  O   UNL     1      36.701 -24.261 -14.301  0.00  0.00    -0.505 OA
ATOM     22  H   UNL     1      37.034 -23.907 -13.500  0.00  0.00    +0.292 HD
ENDBRANCH  15  21
BRANCH  16  23
ATOM     23  O   UNL     1      32.101 -25.097 -13.422  0.00  0.00    -0.506 OA
ATOM     24  H   UNL     1      31.590 -25.799 -13.772  0.00  0.00    +0.292 HD
ENDBRANCH  16  23
ENDBRANCH  11  12
BRANCH   4  25
ATOM     25  C   UNL     1      35.446 -18.666 -22.789  0.00  0.00    -0.050 C 
BRANCH  25  26
ATOM     26  N   UNL     1      34.275 -18.333 -23.596  0.00  0.00    +0.387 N 
ATOM     27  N   UNL     1      32.992 -17.455 -26.034  0.00  0.00    +0.383 N 
ATOM     28  C   UNL     1      34.314 -16.926 -24.014  0.00  0.00    -0.100 C 
ATOM     29  C   UNL     1      34.182 -19.212 -24.768  0.00  0.00    -0.100 C 
ATOM     30  C   UNL     1      33.087 -16.575 -24.863  0.00  0.00    -0.101 C 
ATOM     31  C   UNL     1      32.954 -18.863 -25.616  0.00  0.00    -0.101 C 
ATOM     32  C   UNL     1      31.819 -17.123 -26.841  0.00  0.00    -0.101 C 
ATOM     33  H   UNL     1      33.445 -18.476 -23.021  0.00  0.00    -0.079 HD
ATOM     34  H   UNL     1      33.822 -17.314 -26.611  0.00  0.00    -0.080 HD
ENDBRANCH  25  26
ENDBRANCH   4  25
TORSDOF 6
ENDMDL
MODEL 6
REMARK VINA RESULT:     -11.9      4.019      9.740
REMARK  Name = 11955716
REMARK  6 active torsions:
REMARK  status: ('A' for Active; 'I' for Inactive)
REMARK    1  A    between atoms: C_4  and  C_25
REMARK    2  A    between atoms: C_11  and  C_12
REMARK    3  A    between atoms: C_13  and  C_18
REMARK    4  A    between atoms: C_15  and  O_21
REMARK    5  A    between atoms: C_16  and  O_23
REMARK    6  A    between atoms: C_25  and  N_26
REMARK                            x       y       z     vdW  Elec       q    Type
REMARK                         _______ _______ _______ _____ _____    ______ ____
ROOT
ATOM      1  O   UNL     1      37.114 -18.603 -21.946  0.00  0.00    -0.269 OA
ATOM      2  N   UNL     1      35.223 -19.536 -20.966  0.00  0.00    -0.231 N 
ATOM      3  C   UNL     1      34.874 -21.215 -19.393  0.00  0.00    +0.016 C 
ATOM      4  C   UNL     1      33.829 -22.796 -17.946  0.00  0.00    -0.043 C 
ATOM      5  C   UNL     1      33.615 -20.773 -19.821  0.00  0.00    +0.016 C 
ATOM      6  C   UNL     1      35.954 -20.452 -20.083  0.00  0.00    +0.072 C 
ATOM      7  C   UNL     1      33.763 -19.678 -20.825  0.00  0.00    +0.072 C 
ATOM      8  C   UNL     1      34.996 -22.225 -18.456  0.00  0.00    -0.005 C 
ATOM      9  C   UNL     1      32.566 -22.353 -18.374  0.00  0.00    -0.006 C 
ATOM     10  C   UNL     1      32.453 -21.332 -19.320  0.00  0.00    +0.001 C 
ATOM     11  C   UNL     1      35.893 -18.702 -21.850  0.00  0.00    +0.259 C 
ENDROOT
BRANCH  11  12
ATOM     12  C   UNL     1      35.075 -17.883 -22.755  0.00  0.00    +0.088 C 
ATOM     13  C   UNL     1      33.825 -17.687 -24.810  0.00  0.00    +0.012 C 
ATOM     14  C   UNL     1      34.603 -18.449 -23.937  0.00  0.00    +0.006 C 
ATOM     15  C   UNL     1      34.772 -16.561 -22.440  0.00  0.00    +0.141 C 
ATOM     16  C   UNL     1      33.520 -16.363 -24.496  0.00  0.00    +0.133 C 
ATOM     17  C   UNL     1      33.994 -15.799 -23.312  0.00  0.00    +0.073 C 
BRANCH  13  18
ATOM     18  C   UNL     1      33.325 -18.307 -26.073  0.00  0.00    +0.025 C 
ATOM     19  C   UNL     1      31.790 -18.278 -26.175  0.00  0.00    +0.005 C 
ATOM     20  C   UNL     1      33.837 -19.746 -26.264  0.00  0.00    +0.005 C 
ENDBRANCH  13  18
BRANCH  15  21
ATOM     21  O   UNL     1      35.227 -15.992 -21.288  0.00  0.00    -0.505 OA
ATOM     22  H   UNL     1      35.964 -16.362 -20.842  0.00  0.00    +0.292 HD
ENDBRANCH  15  21
BRANCH  16  23
ATOM     23  O   UNL     1      32.762 -15.605 -25.337  0.00  0.00    -0.506 OA
ATOM     24  H   UNL     1      31.935 -15.271 -25.051  0.00  0.00    +0.292 HD
ENDBRANCH  16  23
ENDBRANCH  11  12
BRANCH   4  25
ATOM     25  C   UNL     1      33.921 -23.894 -16.931  0.00  0.00    -0.050 C 
BRANCH  25  26
ATOM     26  N   UNL     1      34.489 -23.423 -15.670  0.00  0.00    +0.387 N 
ATOM     27  N   UNL     1      35.959 -23.796 -13.209  0.00  0.00    +0.383 N 
ATOM     28  C   UNL     1      33.902 -24.144 -14.534  0.00  0.00    -0.100 C 
ATOM     29  C   UNL     1      35.950 -23.569 -15.669  0.00  0.00    -0.100 C 
ATOM     30  C   UNL     1      34.499 -23.653 -13.210  0.00  0.00    -0.101 C 
ATOM     31  C   UNL     1      36.547 -23.076 -14.347  0.00  0.00    -0.101 C 
ATOM     32  C   UNL     1      36.527 -23.323 -11.948  0.00  0.00    -0.101 C 
ATOM     33  H   UNL     1      34.265 -22.433 -15.574  0.00  0.00    -0.079 HD
ATOM     34  H   UNL     1      36.186 -24.786 -13.305  0.00  0.00    -0.080 HD
ENDBRANCH  25  26
ENDBRANCH   4  25
TORSDOF 6
ENDMDL
MODEL 7
REMARK VINA RESULT:     -11.8      5.455     11.979
REMARK  Name = 11955716
REMARK  6 active torsions:
REMARK  status: ('A' for Active; 'I' for Inactive)
REMARK    1  A    between atoms: C_4  and  C_25
REMARK    2  A    between atoms: C_11  and  C_12
REMARK    3  A    between atoms: C_13  and  C_18
REMARK    4  A    between atoms: C_15  and  O_21
REMARK    5  A    between atoms: C_16  and  O_23
REMARK    6  A    between atoms: C_25  and  N_26
REMARK                            x       y       z     vdW  Elec       q    Type
REMARK                         _______ _______ _______ _____ _____    ______ ____
ROOT
ATOM      1  O   UNL     1      32.851 -12.951 -25.612  0.00  0.00    -0.269 OA
ATOM      2  N   UNL     1      33.619 -13.912 -23.640  0.00  0.00    -0.231 N 
ATOM      3  C   UNL     1      34.283 -16.060 -23.034  0.00  0.00    +0.016 C 
ATOM      4  C   UNL     1      35.008 -17.945 -21.767  0.00  0.00    -0.043 C 
ATOM      5  C   UNL     1      34.340 -15.263 -21.883  0.00  0.00    +0.016 C 
ATOM      6  C   UNL     1      33.836 -15.250 -24.205  0.00  0.00    +0.072 C 
ATOM      7  C   UNL     1      33.940 -13.861 -22.202  0.00  0.00    +0.072 C 
ATOM      8  C   UNL     1      34.614 -17.401 -22.992  0.00  0.00    -0.005 C 
ATOM      9  C   UNL     1      35.065 -17.147 -20.612  0.00  0.00    -0.006 C 
ATOM     10  C   UNL     1      34.729 -15.792 -20.666  0.00  0.00    +0.001 C 
ATOM     11  C   UNL     1      33.109 -12.880 -24.414  0.00  0.00    +0.259 C 
ENDROOT
BRANCH  11  12
ATOM     12  C   UNL     1      32.844 -11.601 -23.739  0.00  0.00    +0.088 C 
ATOM     13  C   UNL     1      33.331  -9.251 -23.493  0.00  0.00    +0.012 C 
ATOM     14  C   UNL     1      33.567 -10.474 -24.121  0.00  0.00    +0.006 C 
ATOM     15  C   UNL     1      31.887 -11.513 -22.732  0.00  0.00    +0.141 C 
ATOM     16  C   UNL     1      32.372  -9.159 -22.484  0.00  0.00    +0.133 C 
ATOM     17  C   UNL     1      31.650 -10.290 -22.103  0.00  0.00    +0.073 C 
BRANCH  13  18
ATOM     18  C   UNL     1      34.113  -8.050 -23.913  0.00  0.00    +0.025 C 
ATOM     19  C   UNL     1      33.286  -7.084 -24.781  0.00  0.00    +0.005 C 
ATOM     20  C   UNL     1      35.417  -8.424 -24.641  0.00  0.00    +0.005 C 
ENDBRANCH  13  18
BRANCH  15  21
ATOM     21  O   UNL     1      31.172 -12.607 -22.345  0.00  0.00    -0.505 OA
ATOM     22  H   UNL     1      31.607 -13.332 -21.942  0.00  0.00    +0.292 HD
ENDBRANCH  15  21
BRANCH  16  23
ATOM     23  O   UNL     1      32.129  -7.973 -21.859  0.00  0.00    -0.506 OA
ATOM     24  H   UNL     1      31.537  -7.355 -22.240  0.00  0.00    +0.292 HD
ENDBRANCH  16  23
ENDBRANCH  11  12
BRANCH   4  25
ATOM     25  C   UNL     1      35.372 -19.395 -21.681  0.00  0.00    -0.050 C 
BRANCH  25  26
ATOM     26  N   UNL     1      34.791 -20.033 -20.501  0.00  0.00    +0.387 N 
ATOM     27  N   UNL     1      33.582 -22.260 -19.111  0.00  0.00    +0.383 N 
ATOM     28  C   UNL     1      33.398 -20.423 -20.754  0.00  0.00    -0.100 C 
ATOM     29  C   UNL     1      35.584 -21.200 -20.097  0.00  0.00    -0.100 C 
ATOM     30  C   UNL     1      32.789 -21.095 -19.518  0.00  0.00    -0.101 C 
ATOM     31  C   UNL     1      34.975 -21.871 -18.860  0.00  0.00    -0.101 C 
ATOM     32  C   UNL     1      33.001 -22.897 -17.930  0.00  0.00    -0.101 C 
ATOM     33  H   UNL     1      34.804 -19.356 -19.739  0.00  0.00    -0.079 HD
ATOM     34  H   UNL     1      33.570 -22.939 -19.873  0.00  0.00    -0.080 HD
ENDBRANCH  25  26
ENDBRANCH   4  25
TORSDOF 6
ENDMDL
MODEL 8
REMARK VINA RESULT:     -11.8      3.801     10.047
REMARK  Name = 11955716
REMARK  6 active torsions:
REMARK  status: ('A' for Active; 'I' for Inactive)
REMARK    1  A    between atoms: C_4  and  C_25
REMARK    2  A    between atoms: C_11  and  C_12
REMARK    3  A    between atoms: C_13  and  C_18
REMARK    4  A    between atoms: C_15  and  O_21
REMARK    5  A    between atoms: C_16  and  O_23
REMARK    6  A    between atoms: C_25  and  N_26
REMARK                            x       y       z     vdW  Elec       q    Type
REMARK                         _______ _______ _______ _____ _____    ______ ____
ROOT
ATOM      1  O   UNL     1      36.961 -18.334 -22.678  0.00  0.00    -0.269 OA
ATOM      2  N   UNL     1      35.155 -19.285 -21.565  0.00  0.00    -0.231 N 
ATOM      3  C   UNL     1      34.945 -20.885 -19.888  0.00  0.00    +0.016 C 
ATOM      4  C   UNL     1      34.031 -22.422 -18.310  0.00  0.00    -0.043 C 
ATOM      5  C   UNL     1      33.652 -20.520 -20.283  0.00  0.00    +0.016 C 
ATOM      6  C   UNL     1      35.962 -20.119 -20.666  0.00  0.00    +0.072 C 
ATOM      7  C   UNL     1      33.709 -19.479 -21.351  0.00  0.00    +0.072 C 
ATOM      8  C   UNL     1      35.150 -21.834 -18.903  0.00  0.00    -0.005 C 
ATOM      9  C   UNL     1      32.733 -22.056 -18.706  0.00  0.00    -0.006 C 
ATOM     10  C   UNL     1      32.537 -21.096 -19.702  0.00  0.00    +0.001 C 
ATOM     11  C   UNL     1      35.751 -18.477 -22.523  0.00  0.00    +0.259 C 
ENDROOT
BRANCH  11  12
ATOM     12  C   UNL     1      34.860 -17.745 -23.434  0.00  0.00    +0.088 C 
ATOM     13  C   UNL     1      33.722 -15.698 -24.016  0.00  0.00    +0.012 C 
ATOM     14  C   UNL     1      34.566 -16.411 -23.163  0.00  0.00    +0.006 C 
ATOM     15  C   UNL     1      34.316 -18.371 -24.552  0.00  0.00    +0.141 C 
ATOM     16  C   UNL     1      33.175 -16.323 -25.137  0.00  0.00    +0.133 C 
ATOM     17  C   UNL     1      33.472 -17.659 -25.405  0.00  0.00    +0.073 C 
BRANCH  13  18
ATOM     18  C   UNL     1      33.415 -14.269 -23.713  0.00  0.00    +0.025 C 
ATOM     19  C   UNL     1      33.891 -13.318 -24.826  0.00  0.00    +0.005 C 
ATOM     20  C   UNL     1      33.990 -13.818 -22.357  0.00  0.00    +0.005 C 
ENDBRANCH  13  18
BRANCH  15  21
ATOM     21  O   UNL     1      34.593 -19.676 -24.831  0.00  0.00    -0.505 OA
ATOM     22  H   UNL     1      34.972 -20.225 -24.173  0.00  0.00    +0.292 HD
ENDBRANCH  15  21
BRANCH  16  23
ATOM     23  O   UNL     1      32.349 -15.642 -25.979  0.00  0.00    -0.506 OA
ATOM     24  H   UNL     1      32.585 -14.787 -26.279  0.00  0.00    +0.292 HD
ENDBRANCH  16  23
ENDBRANCH  11  12
BRANCH   4  25
ATOM     25  C   UNL     1      34.213 -23.456 -17.242  0.00  0.00    -0.050 C 
BRANCH  25  26
ATOM     26  N   UNL     1      33.287 -23.256 -16.129  0.00  0.00    +0.387 N 
ATOM     27  N   UNL     1      31.361 -24.184 -14.183  0.00  0.00    +0.383 N 
ATOM     28  C   UNL     1      31.917 -23.608 -16.521  0.00  0.00    -0.100 C 
ATOM     29  C   UNL     1      33.702 -24.041 -14.959  0.00  0.00    -0.100 C 
ATOM     30  C   UNL     1      30.946 -23.403 -15.354  0.00  0.00    -0.101 C 
ATOM     31  C   UNL     1      32.732 -23.833 -13.791  0.00  0.00    -0.101 C 
ATOM     32  C   UNL     1      30.436 -23.983 -13.069  0.00  0.00    -0.101 C 
ATOM     33  H   UNL     1      33.307 -22.269 -15.876  0.00  0.00    -0.079 HD
ATOM     34  H   UNL     1      31.342 -25.173 -14.434  0.00  0.00    -0.080 HD
ENDBRANCH  25  26
ENDBRANCH   4  25
TORSDOF 6
ENDMDL
MODEL 9
REMARK VINA RESULT:     -11.6      5.211     11.272
REMARK  Name = 11955716
REMARK  6 active torsions:
REMARK  status: ('A' for Active; 'I' for Inactive)
REMARK    1  A    between atoms: C_4  and  C_25
REMARK    2  A    between atoms: C_11  and  C_12
REMARK    3  A    between atoms: C_13  and  C_18
REMARK    4  A    between atoms: C_15  and  O_21
REMARK    5  A    between atoms: C_16  and  O_23
REMARK    6  A    between atoms: C_25  and  N_26
REMARK                            x       y       z     vdW  Elec       q    Type
REMARK                         _______ _______ _______ _____ _____    ______ ____
ROOT
ATOM      1  O   UNL     1      33.522 -12.822 -22.363  0.00  0.00    -0.269 OA
ATOM      2  N   UNL     1      34.017 -14.985 -23.056  0.00  0.00    -0.231 N 
ATOM      3  C   UNL     1      34.907 -16.861 -22.004  0.00  0.00    +0.016 C 
ATOM      4  C   UNL     1      35.778 -19.043 -21.596  0.00  0.00    -0.043 C 
ATOM      5  C   UNL     1      34.715 -17.188 -23.352  0.00  0.00    +0.016 C 
ATOM      6  C   UNL     1      34.468 -15.459 -21.742  0.00  0.00    +0.072 C 
ATOM      7  C   UNL     1      34.128 -16.031 -24.089  0.00  0.00    +0.072 C 
ATOM      8  C   UNL     1      35.437 -17.777 -21.115  0.00  0.00    -0.005 C 
ATOM      9  C   UNL     1      35.585 -19.372 -22.948  0.00  0.00    -0.006 C 
ATOM     10  C   UNL     1      35.048 -18.439 -23.839  0.00  0.00    +0.001 C 
ATOM     11  C   UNL     1      33.605 -13.673 -23.244  0.00  0.00    +0.259 C 
ENDROOT
BRANCH  11  12
ATOM     12  C   UNL     1      33.254 -13.268 -24.612  0.00  0.00    +0.088 C 
ATOM     13  C   UNL     1      32.324 -13.836 -26.765  0.00  0.00    +0.012 C 
ATOM     14  C   UNL     1      32.664 -14.200 -25.462  0.00  0.00    +0.006 C 
ATOM     15  C   UNL     1      33.505 -11.973 -25.057  0.00  0.00    +0.141 C 
ATOM     16  C   UNL     1      32.574 -12.538 -27.214  0.00  0.00    +0.133 C 
ATOM     17  C   UNL     1      33.165 -11.607 -26.360  0.00  0.00    +0.073 C 
BRANCH  13  18
ATOM     18  C   UNL     1      31.691 -14.845 -27.666  0.00  0.00    +0.025 C 
ATOM     19  C   UNL     1      30.167 -14.660 -27.777  0.00  0.00    +0.005 C 
ATOM     20  C   UNL     1      32.015 -16.291 -27.246  0.00  0.00    +0.005 C 
ENDBRANCH  13  18
BRANCH  15  21
ATOM     21  O   UNL     1      34.083 -11.049 -24.238  0.00  0.00    -0.505 OA
ATOM     22  H   UNL     1      34.570 -10.338 -24.605  0.00  0.00    +0.292 HD
ENDBRANCH  15  21
BRANCH  16  23
ATOM     23  O   UNL     1      32.249 -12.166 -28.483  0.00  0.00    -0.506 OA
ATOM     24  H   UNL     1      31.349 -12.093 -28.734  0.00  0.00    +0.292 HD
ENDBRANCH  16  23
ENDBRANCH  11  12
BRANCH   4  25
ATOM     25  C   UNL     1      36.357 -20.061 -20.663  0.00  0.00    -0.050 C 
BRANCH  25  26
ATOM     26  N   UNL     1      35.369 -20.541 -19.700  0.00  0.00    +0.387 N 
ATOM     27  N   UNL     1      33.644 -22.568 -18.572  0.00  0.00    +0.383 N 
ATOM     28  C   UNL     1      34.138 -20.959 -20.381  0.00  0.00    -0.100 C 
ATOM     29  C   UNL     1      35.913 -21.646 -18.901  0.00  0.00    -0.100 C 
ATOM     30  C   UNL     1      33.101 -21.465 -19.372  0.00  0.00    -0.101 C 
ATOM     31  C   UNL     1      34.877 -22.150 -17.891  0.00  0.00    -0.101 C 
ATOM     32  C   UNL     1      32.656 -23.046 -17.607  0.00  0.00    -0.101 C 
ATOM     33  H   UNL     1      35.144 -19.771 -19.070  0.00  0.00    -0.079 HD
ATOM     34  H   UNL     1      33.871 -23.340 -19.200  0.00  0.00    -0.080 HD
ENDBRANCH  25  26
ENDBRANCH   4  25
TORSDOF 6
ENDMDL
