MODEL 1
REMARK VINA RESULT:     -12.6      0.000      0.000
REMARK  Name = 198752
REMARK  6 active torsions:
REMARK  status: ('A' for Active; 'I' for Inactive)
REMARK    1  A    between atoms: C_1  and  C_3
REMARK    2  A    between atoms: C_1  and  C_16
REMARK    3  A    between atoms: N_2  and  C_9
REMARK    4  A    between atoms: C_9  and  C_10
REMARK    5  A    between atoms: C_16  and  C_18
REMARK    6  A    between atoms: C_18  and  C_20
REMARK                            x       y       z     vdW  Elec       q    Type
REMARK                         _______ _______ _______ _____ _____    ______ ____
ROOT
ATOM      1  C   UNL     1      32.364 -22.300 -18.401  0.00  0.00    +0.008 C 
ENDROOT
BRANCH   1   3
ATOM      2  N   UNL     1      34.739 -19.515 -20.694  0.00  0.00    +0.390 N 
ATOM      3  C   UNL     1      33.164 -21.713 -19.560  0.00  0.00    -0.004 C 
ATOM      4  C   UNL     1      34.614 -21.440 -19.145  0.00  0.00    -0.023 C 
ATOM      5  C   UNL     1      32.521 -20.420 -20.074  0.00  0.00    -0.023 C 
ATOM      6  C   UNL     1      35.395 -20.758 -20.270  0.00  0.00    -0.077 C 
ATOM      7  C   UNL     1      33.372 -19.773 -21.168  0.00  0.00    -0.077 C 
ATOM      8  H   UNL     1      34.679 -18.898 -19.884  0.00  0.00    -0.079 HD
BRANCH   2   9
ATOM      9  C   UNL     1      35.523 -18.848 -21.733  0.00  0.00    -0.050 C 
BRANCH   9  10
ATOM     10  C   UNL     1      35.103 -17.415 -21.920  0.00  0.00    -0.043 C 
ATOM     11  C   UNL     1      34.892 -16.615 -20.806  0.00  0.00    -0.006 C 
ATOM     12  C   UNL     1      34.934 -16.913 -23.203  0.00  0.00    -0.006 C 
ATOM     13  C   UNL     1      34.502 -15.286 -20.979  0.00  0.00    -0.000 C 
ATOM     14  C   UNL     1      34.545 -15.585 -23.376  0.00  0.00    -0.000 C 
ATOM     15  C   UNL     1      34.329 -14.772 -22.263  0.00  0.00    -0.000 C 
ENDBRANCH   9  10
ENDBRANCH   2   9
ENDBRANCH   1   3
BRANCH   1  16
ATOM     16  C   UNL     1      33.165 -23.362 -17.648  0.00  0.00    +0.069 C 
BRANCH  16  18
ATOM     17  O   UNL     1      31.659 -23.136 -15.779  0.00  0.00    -0.291 OA
ATOM     18  C   UNL     1      32.807 -23.455 -16.153  0.00  0.00    +0.173 C 
BRANCH  18  20
ATOM     19  N   UNL     1      37.258 -25.192 -15.282  0.00  0.00    -0.333 N 
ATOM     20  C   UNL     1      33.801 -23.910 -15.195  0.00  0.00    +0.036 C 
ATOM     21  C   UNL     1      35.747 -24.780 -13.359  0.00  0.00    -0.009 C 
ATOM     22  C   UNL     1      36.736 -25.179 -12.280  0.00  0.00    +0.028 C 
ATOM     23  C   UNL     1      36.055 -24.765 -14.737  0.00  0.00    +0.041 C 
ATOM     24  C   UNL     1      38.142 -24.624 -12.506  0.00  0.00    +0.006 C 
ATOM     25  C   UNL     1      38.968 -25.408 -13.525  0.00  0.00    +0.022 C 
ATOM     26  C   UNL     1      35.065 -24.307 -15.633  0.00  0.00    +0.017 C 
ATOM     27  C   UNL     1      38.160 -26.101 -14.612  0.00  0.00    +0.087 C 
ATOM     28  C   UNL     1      33.495 -23.962 -13.844  0.00  0.00    +0.003 C 
ATOM     29  C   UNL     1      34.457 -24.394 -12.935  0.00  0.00    -0.003 C 
ATOM     30  H   UNL     1      37.511 -24.858 -16.174  0.00  0.00    +0.147 HD
ENDBRANCH  18  20
ENDBRANCH  16  18
ENDBRANCH   1  16
TORSDOF 6
ENDMDL
MODEL 2
REMARK VINA RESULT:     -12.1      2.979      4.714
REMARK  Name = 198752
REMARK  6 active torsions:
REMARK  status: ('A' for Active; 'I' for Inactive)
REMARK    1  A    between atoms: C_1  and  C_3
REMARK    2  A    between atoms: C_1  and  C_16
REMARK    3  A    between atoms: N_2  and  C_9
REMARK    4  A    between atoms: C_9  and  C_10
REMARK    5  A    between atoms: C_16  and  C_18
REMARK    6  A    between atoms: C_18  and  C_20
REMARK                            x       y       z     vdW  Elec       q    Type
REMARK                         _______ _______ _______ _____ _____    ______ ____
ROOT
ATOM      1  C   UNL     1      35.753 -21.294 -19.121  0.00  0.00    +0.008 C 
ENDROOT
BRANCH   1   3
ATOM      2  N   UNL     1      34.955 -18.335 -22.165  0.00  0.00    +0.390 N 
ATOM      3  C   UNL     1      35.572 -20.669 -20.501  0.00  0.00    -0.004 C 
ATOM      4  C   UNL     1      36.574 -19.532 -20.727  0.00  0.00    -0.023 C 
ATOM      5  C   UNL     1      34.144 -20.145 -20.686  0.00  0.00    -0.023 C 
ATOM      6  C   UNL     1      36.333 -18.836 -22.068  0.00  0.00    -0.077 C 
ATOM      7  C   UNL     1      33.983 -19.428 -22.028  0.00  0.00    -0.077 C 
ATOM      8  H   UNL     1      34.803 -17.681 -21.398  0.00  0.00    -0.079 HD
BRANCH   2   9
ATOM      9  C   UNL     1      34.754 -17.627 -23.430  0.00  0.00    -0.050 C 
BRANCH   9  10
ATOM     10  C   UNL     1      34.353 -16.193 -23.212  0.00  0.00    -0.043 C 
ATOM     11  C   UNL     1      34.575 -15.603 -21.975  0.00  0.00    -0.006 C 
ATOM     12  C   UNL     1      33.769 -15.480 -24.249  0.00  0.00    -0.006 C 
ATOM     13  C   UNL     1      34.202 -14.273 -21.773  0.00  0.00    -0.000 C 
ATOM     14  C   UNL     1      33.397 -14.152 -24.048  0.00  0.00    -0.000 C 
ATOM     15  C   UNL     1      33.614 -13.548 -22.808  0.00  0.00    -0.000 C 
ENDBRANCH   9  10
ENDBRANCH   2   9
ENDBRANCH   1   3
BRANCH   1  16
ATOM     16  C   UNL     1      34.516 -22.084 -18.696  0.00  0.00    +0.069 C 
BRANCH  16  18
ATOM     17  O   UNL     1      35.788 -22.942 -16.836  0.00  0.00    -0.291 OA
ATOM     18  C   UNL     1      34.650 -22.731 -17.305  0.00  0.00    +0.173 C 
BRANCH  18  20
ATOM     19  N   UNL     1      29.804 -22.825 -16.982  0.00  0.00    -0.333 N 
ATOM     20  C   UNL     1      33.458 -23.089 -16.553  0.00  0.00    +0.036 C 
ATOM     21  C   UNL     1      31.137 -23.787 -15.124  0.00  0.00    -0.009 C 
ATOM     22  C   UNL     1      29.957 -24.251 -14.294  0.00  0.00    +0.028 C 
ATOM     23  C   UNL     1      31.011 -23.165 -16.386  0.00  0.00    +0.041 C 
ATOM     24  C   UNL     1      28.862 -24.932 -15.115  0.00  0.00    +0.006 C 
ATOM     25  C   UNL     1      27.938 -23.963 -15.851  0.00  0.00    +0.022 C 
ATOM     26  C   UNL     1      32.193 -22.843 -17.088  0.00  0.00    +0.017 C 
ATOM     27  C   UNL     1      28.575 -22.638 -16.244  0.00  0.00    +0.087 C 
ATOM     28  C   UNL     1      33.573 -23.666 -15.299  0.00  0.00    +0.003 C 
ATOM     29  C   UNL     1      32.424 -24.010 -14.590  0.00  0.00    -0.003 C 
ATOM     30  H   UNL     1      29.784 -22.702 -17.959  0.00  0.00    +0.147 HD
ENDBRANCH  18  20
ENDBRANCH  16  18
ENDBRANCH   1  16
TORSDOF 6
ENDMDL
MODEL 3
REMARK VINA RESULT:     -12.0      1.215      1.954
REMARK  Name = 198752
REMARK  6 active torsions:
REMARK  status: ('A' for Active; 'I' for Inactive)
REMARK    1  A    between atoms: C_1  and  C_3
REMARK    2  A    between atoms: C_1  and  C_16
REMARK    3  A    between atoms: N_2  and  C_9
REMARK    4  A    between atoms: C_9  and  C_10
REMARK    5  A    between atoms: C_16  and  C_18
REMARK    6  A    between atoms: C_18  and  C_20
REMARK                            x       y       z     vdW  Elec       q    Type
REMARK                         _______ _______ _______ _____ _____    ______ ____
ROOT
ATOM      1  C   UNL     1      32.561 -22.075 -18.844  0.00  0.00    +0.008 C 
ENDROOT
BRANCH   1   3
ATOM      2  N   UNL     1      34.789 -19.786 -21.752  0.00  0.00    +0.390 N 
ATOM      3  C   UNL     1      33.356 -20.929 -19.464  0.00  0.00    -0.004 C 
ATOM      4  C   UNL     1      32.631 -20.354 -20.685  0.00  0.00    -0.023 C 
ATOM      5  C   UNL     1      34.762 -21.387 -19.865  0.00  0.00    -0.023 C 
ATOM      6  C   UNL     1      33.467 -19.272 -21.370  0.00  0.00    -0.077 C 
ATOM      7  C   UNL     1      35.528 -20.271 -20.578  0.00  0.00    -0.077 C 
ATOM      8  H   UNL     1      34.650 -20.575 -22.383  0.00  0.00    -0.079 HD
BRANCH   2   9
ATOM      9  C   UNL     1      35.558 -18.757 -22.451  0.00  0.00    -0.050 C 
BRANCH   9  10
ATOM     10  C   UNL     1      34.845 -18.264 -23.682  0.00  0.00    -0.043 C 
ATOM     11  C   UNL     1      34.709 -16.898 -23.891  0.00  0.00    -0.006 C 
ATOM     12  C   UNL     1      34.335 -19.180 -24.591  0.00  0.00    -0.006 C 
ATOM     13  C   UNL     1      34.047 -16.441 -25.031  0.00  0.00    -0.000 C 
ATOM     14  C   UNL     1      33.674 -18.723 -25.730  0.00  0.00    -0.000 C 
ATOM     15  C   UNL     1      33.530 -17.353 -25.950  0.00  0.00    -0.000 C 
ENDBRANCH   9  10
ENDBRANCH   2   9
ENDBRANCH   1   3
BRANCH   1  16
ATOM     16  C   UNL     1      33.455 -22.987 -18.004  0.00  0.00    +0.069 C 
BRANCH  16  18
ATOM     17  O   UNL     1      31.646 -23.161 -16.420  0.00  0.00    -0.291 OA
ATOM     18  C   UNL     1      32.870 -23.309 -16.616  0.00  0.00    +0.173 C 
BRANCH  18  20
ATOM     19  N   UNL     1      37.147 -25.165 -15.255  0.00  0.00    -0.333 N 
ATOM     20  C   UNL     1      33.742 -23.780 -15.552  0.00  0.00    +0.036 C 
ATOM     21  C   UNL     1      35.453 -24.681 -13.508  0.00  0.00    -0.009 C 
ATOM     22  C   UNL     1      36.308 -25.094 -12.326  0.00  0.00    +0.028 C 
ATOM     23  C   UNL     1      35.906 -24.695 -14.846  0.00  0.00    +0.041 C 
ATOM     24  C   UNL     1      37.746 -24.585 -12.406  0.00  0.00    +0.006 C 
ATOM     25  C   UNL     1      38.652 -25.407 -13.322  0.00  0.00    +0.022 C 
ATOM     26  C   UNL     1      35.033 -24.220 -15.848  0.00  0.00    +0.017 C 
ATOM     27  C   UNL     1      37.944 -26.091 -14.482  0.00  0.00    +0.087 C 
ATOM     28  C   UNL     1      33.292 -23.804 -14.242  0.00  0.00    +0.003 C 
ATOM     29  C   UNL     1      34.138 -24.252 -13.230  0.00  0.00    -0.003 C 
ATOM     30  H   UNL     1      37.504 -24.851 -16.118  0.00  0.00    +0.147 HD
ENDBRANCH  18  20
ENDBRANCH  16  18
ENDBRANCH   1  16
TORSDOF 6
ENDMDL
MODEL 4
REMARK VINA RESULT:     -11.8      1.262      1.861
REMARK  Name = 198752
REMARK  6 active torsions:
REMARK  status: ('A' for Active; 'I' for Inactive)
REMARK    1  A    between atoms: C_1  and  C_3
REMARK    2  A    between atoms: C_1  and  C_16
REMARK    3  A    between atoms: N_2  and  C_9
REMARK    4  A    between atoms: C_9  and  C_10
REMARK    5  A    between atoms: C_16  and  C_18
REMARK    6  A    between atoms: C_18  and  C_20
REMARK                            x       y       z     vdW  Elec       q    Type
REMARK                         _______ _______ _______ _____ _____    ______ ____
ROOT
ATOM      1  C   UNL     1      32.710 -21.622 -19.024  0.00  0.00    +0.008 C 
ENDROOT
BRANCH   1   3
ATOM      2  N   UNL     1      34.712 -18.893 -21.708  0.00  0.00    +0.390 N 
ATOM      3  C   UNL     1      33.426 -21.098 -20.266  0.00  0.00    -0.004 C 
ATOM      4  C   UNL     1      34.833 -20.600 -19.922  0.00  0.00    -0.023 C 
ATOM      5  C   UNL     1      32.626 -19.972 -20.929  0.00  0.00    -0.023 C 
ATOM      6  C   UNL     1      35.519 -19.982 -21.142  0.00  0.00    -0.077 C 
ATOM      7  C   UNL     1      33.385 -19.374 -22.115  0.00  0.00    -0.077 C 
ATOM      8  H   UNL     1      34.582 -18.188 -20.984  0.00  0.00    -0.079 HD
BRANCH   2   9
ATOM      9  C   UNL     1      35.403 -18.278 -22.841  0.00  0.00    -0.050 C 
BRANCH   9  10
ATOM     10  C   UNL     1      34.779 -16.966 -23.233  0.00  0.00    -0.043 C 
ATOM     11  C   UNL     1      34.781 -15.912 -22.329  0.00  0.00    -0.006 C 
ATOM     12  C   UNL     1      34.213 -16.825 -24.492  0.00  0.00    -0.006 C 
ATOM     13  C   UNL     1      34.202 -14.696 -22.691  0.00  0.00    -0.000 C 
ATOM     14  C   UNL     1      33.635 -15.610 -24.855  0.00  0.00    -0.000 C 
ATOM     15  C   UNL     1      33.629 -14.544 -23.954  0.00  0.00    -0.000 C 
ENDBRANCH   9  10
ENDBRANCH   2   9
ENDBRANCH   1   3
BRANCH   1  16
ATOM     16  C   UNL     1      33.303 -22.951 -18.554  0.00  0.00    +0.069 C 
BRANCH  16  18
ATOM     17  O   UNL     1      31.961 -23.240 -16.572  0.00  0.00    -0.291 OA
ATOM     18  C   UNL     1      33.116 -23.206 -17.047  0.00  0.00    +0.173 C 
BRANCH  18  20
ATOM     19  N   UNL     1      35.064 -25.178 -13.059  0.00  0.00    -0.333 N 
ATOM     20  C   UNL     1      34.277 -23.405 -16.195  0.00  0.00    +0.036 C 
ATOM     21  C   UNL     1      36.515 -23.816 -14.540  0.00  0.00    -0.009 C 
ATOM     22  C   UNL     1      37.794 -24.012 -13.750  0.00  0.00    +0.028 C 
ATOM     23  C   UNL     1      35.282 -24.414 -14.197  0.00  0.00    +0.041 C 
ATOM     24  C   UNL     1      38.011 -25.454 -13.290  0.00  0.00    +0.006 C 
ATOM     25  C   UNL     1      37.209 -25.843 -12.049  0.00  0.00    +0.022 C 
ATOM     26  C   UNL     1      34.181 -24.205 -15.056  0.00  0.00    +0.017 C 
ATOM     27  C   UNL     1      35.892 -25.101 -11.876  0.00  0.00    +0.087 C 
ATOM     28  C   UNL     1      35.480 -22.792 -16.504  0.00  0.00    +0.003 C 
ATOM     29  C   UNL     1      36.588 -22.993 -15.684  0.00  0.00    -0.003 C 
ATOM     30  H   UNL     1      34.306 -25.807 -13.057  0.00  0.00    +0.147 HD
ENDBRANCH  18  20
ENDBRANCH  16  18
ENDBRANCH   1  16
TORSDOF 6
ENDMDL
MODEL 5
REMARK VINA RESULT:     -11.8      5.278     13.083
REMARK  Name = 198752
REMARK  6 active torsions:
REMARK  status: ('A' for Active; 'I' for Inactive)
REMARK    1  A    between atoms: C_1  and  C_3
REMARK    2  A    between atoms: C_1  and  C_16
REMARK    3  A    between atoms: N_2  and  C_9
REMARK    4  A    between atoms: C_9  and  C_10
REMARK    5  A    between atoms: C_16  and  C_18
REMARK    6  A    between atoms: C_18  and  C_20
REMARK                            x       y       z     vdW  Elec       q    Type
REMARK                         _______ _______ _______ _____ _____    ______ ____
ROOT
ATOM      1  C   UNL     1      33.522 -16.853 -26.266  0.00  0.00    +0.008 C 
ENDROOT
BRANCH   1   3
ATOM      2  N   UNL     1      34.745 -18.557 -22.490  0.00  0.00    +0.390 N 
ATOM      3  C   UNL     1      34.423 -17.428 -25.176  0.00  0.00    -0.004 C 
ATOM      4  C   UNL     1      34.025 -18.868 -24.836  0.00  0.00    -0.023 C 
ATOM      5  C   UNL     1      34.376 -16.565 -23.910  0.00  0.00    -0.023 C 
ATOM      6  C   UNL     1      34.858 -19.416 -23.676  0.00  0.00    -0.077 C 
ATOM      7  C   UNL     1      35.198 -17.190 -22.781  0.00  0.00    -0.077 C 
ATOM      8  H   UNL     1      33.762 -18.513 -22.225  0.00  0.00    -0.079 HD
BRANCH   2   9
ATOM      9  C   UNL     1      35.505 -19.120 -21.374  0.00  0.00    -0.050 C 
BRANCH   9  10
ATOM     10  C   UNL     1      34.692 -20.113 -20.587  0.00  0.00    -0.043 C 
ATOM     11  C   UNL     1      33.307 -20.029 -20.606  0.00  0.00    -0.006 C 
ATOM     12  C   UNL     1      35.338 -21.100 -19.854  0.00  0.00    -0.006 C 
ATOM     13  C   UNL     1      32.553 -20.949 -19.876  0.00  0.00    -0.000 C 
ATOM     14  C   UNL     1      34.585 -22.019 -19.126  0.00  0.00    -0.000 C 
ATOM     15  C   UNL     1      33.192 -21.944 -19.136  0.00  0.00    -0.000 C 
ENDBRANCH   9  10
ENDBRANCH   2   9
ENDBRANCH   1   3
BRANCH   1  16
ATOM     16  C   UNL     1      32.706 -15.667 -25.751  0.00  0.00    +0.069 C 
BRANCH  16  18
ATOM     17  O   UNL     1      31.786 -14.847 -27.823  0.00  0.00    -0.291 OA
ATOM     18  C   UNL     1      32.471 -14.578 -26.814  0.00  0.00    +0.173 C 
BRANCH  18  20
ATOM     19  N   UNL     1      33.034 -10.622 -24.053  0.00  0.00    -0.333 N 
ATOM     20  C   UNL     1      33.045 -13.254 -26.636  0.00  0.00    +0.036 C 
ATOM     21  C   UNL     1      34.158 -10.697 -26.262  0.00  0.00    -0.009 C 
ATOM     22  C   UNL     1      34.848  -9.352 -26.145  0.00  0.00    +0.028 C 
ATOM     23  C   UNL     1      33.358 -11.259 -25.243  0.00  0.00    +0.041 C 
ATOM     24  C   UNL     1      35.483  -9.109 -24.776  0.00  0.00    +0.006 C 
ATOM     25  C   UNL     1      34.493  -8.673 -23.696  0.00  0.00    +0.022 C 
ATOM     26  C   UNL     1      32.828 -12.550 -25.451  0.00  0.00    +0.017 C 
ATOM     27  C   UNL     1      33.073  -9.187 -23.878  0.00  0.00    +0.087 C 
ATOM     28  C   UNL     1      33.801 -12.680 -27.646  0.00  0.00    +0.003 C 
ATOM     29  C   UNL     1      34.351 -11.414 -27.462  0.00  0.00    -0.003 C 
ATOM     30  H   UNL     1      32.761 -11.177 -23.286  0.00  0.00    +0.147 HD
ENDBRANCH  18  20
ENDBRANCH  16  18
ENDBRANCH   1  16
TORSDOF 6
ENDMDL
MODEL 6
REMARK VINA RESULT:     -11.6      2.045     10.523
REMARK  Name = 198752
REMARK  6 active torsions:
REMARK  status: ('A' for Active; 'I' for Inactive)
REMARK    1  A    between atoms: C_1  and  C_3
REMARK    2  A    between atoms: C_1  and  C_16
REMARK    3  A    between atoms: N_2  and  C_9
REMARK    4  A    between atoms: C_9  and  C_10
REMARK    5  A    between atoms: C_16  and  C_18
REMARK    6  A    between atoms: C_18  and  C_20
REMARK                            x       y       z     vdW  Elec       q    Type
REMARK                         _______ _______ _______ _____ _____    ______ ____
ROOT
ATOM      1  C   UNL     1      33.373 -22.225 -19.512  0.00  0.00    +0.008 C 
ENDROOT
BRANCH   1   3
ATOM      2  N   UNL     1      34.582 -23.719 -15.643  0.00  0.00    +0.390 N 
ATOM      3  C   UNL     1      33.625 -22.273 -18.008  0.00  0.00    -0.004 C 
ATOM      4  C   UNL     1      35.116 -22.459 -17.705  0.00  0.00    -0.023 C 
ATOM      5  C   UNL     1      32.819 -23.397 -17.349  0.00  0.00    -0.023 C 
ATOM      6  C   UNL     1      35.364 -22.608 -16.202  0.00  0.00    -0.077 C 
ATOM      7  C   UNL     1      33.143 -23.515 -15.858  0.00  0.00    -0.077 C 
ATOM      8  H   UNL     1      34.855 -24.572 -16.131  0.00  0.00    -0.079 HD
BRANCH   2   9
ATOM      9  C   UNL     1      34.869 -23.882 -14.218  0.00  0.00    -0.050 C 
BRANCH   9  10
ATOM     10  C   UNL     1      36.184 -24.576 -13.987  0.00  0.00    -0.043 C 
ATOM     11  C   UNL     1      36.545 -25.644 -14.796  0.00  0.00    -0.006 C 
ATOM     12  C   UNL     1      37.019 -24.138 -12.968  0.00  0.00    -0.006 C 
ATOM     13  C   UNL     1      37.764 -26.287 -14.581  0.00  0.00    -0.000 C 
ATOM     14  C   UNL     1      38.238 -24.780 -12.754  0.00  0.00    -0.000 C 
ATOM     15  C   UNL     1      38.610 -25.856 -13.561  0.00  0.00    -0.000 C 
ENDBRANCH   9  10
ENDBRANCH   2   9
ENDBRANCH   1   3
BRANCH   1  16
ATOM     16  C   UNL     1      33.291 -20.786 -20.021  0.00  0.00    +0.069 C 
BRANCH  16  18
ATOM     17  O   UNL     1      35.634 -20.971 -20.561  0.00  0.00    -0.291 OA
ATOM     18  C   UNL     1      34.590 -20.297 -20.689  0.00  0.00    +0.173 C 
BRANCH  18  20
ATOM     19  N   UNL     1      33.849 -18.032 -24.921  0.00  0.00    -0.333 N 
ATOM     20  C   UNL     1      34.590 -19.064 -21.460  0.00  0.00    +0.036 C 
ATOM     21  C   UNL     1      34.569 -16.687 -22.965  0.00  0.00    -0.009 C 
ATOM     22  C   UNL     1      34.543 -15.344 -23.666  0.00  0.00    +0.028 C 
ATOM     23  C   UNL     1      34.197 -17.902 -23.584  0.00  0.00    +0.041 C 
ATOM     24  C   UNL     1      33.310 -15.137 -24.545  0.00  0.00    +0.006 C 
ATOM     25  C   UNL     1      33.390 -15.824 -25.908  0.00  0.00    +0.022 C 
ATOM     26  C   UNL     1      34.200 -19.075 -22.799  0.00  0.00    +0.017 C 
ATOM     27  C   UNL     1      34.238 -17.087 -25.943  0.00  0.00    +0.087 C 
ATOM     28  C   UNL     1      34.989 -17.875 -20.870  0.00  0.00    +0.003 C 
ATOM     29  C   UNL     1      34.980 -16.698 -21.615  0.00  0.00    -0.003 C 
ATOM     30  H   UNL     1      33.308 -18.811 -25.189  0.00  0.00    +0.147 HD
ENDBRANCH  18  20
ENDBRANCH  16  18
ENDBRANCH   1  16
TORSDOF 6
ENDMDL
MODEL 7
REMARK VINA RESULT:     -11.6      2.651     10.951
REMARK  Name = 198752
REMARK  6 active torsions:
REMARK  status: ('A' for Active; 'I' for Inactive)
REMARK    1  A    between atoms: C_1  and  C_3
REMARK    2  A    between atoms: C_1  and  C_16
REMARK    3  A    between atoms: N_2  and  C_9
REMARK    4  A    between atoms: C_9  and  C_10
REMARK    5  A    between atoms: C_16  and  C_18
REMARK    6  A    between atoms: C_18  and  C_20
REMARK                            x       y       z     vdW  Elec       q    Type
REMARK                         _______ _______ _______ _____ _____    ______ ____
ROOT
ATOM      1  C   UNL     1      34.931 -21.464 -20.074  0.00  0.00    +0.008 C 
ENDROOT
BRANCH   1   3
ATOM      2  N   UNL     1      35.119 -23.385 -16.210  0.00  0.00    +0.390 N 
ATOM      3  C   UNL     1      34.788 -21.677 -18.570  0.00  0.00    -0.004 C 
ATOM      4  C   UNL     1      36.152 -21.921 -17.916  0.00  0.00    -0.023 C 
ATOM      5  C   UNL     1      33.851 -22.851 -18.266  0.00  0.00    -0.023 C 
ATOM      6  C   UNL     1      36.007 -22.234 -16.425  0.00  0.00    -0.077 C 
ATOM      7  C   UNL     1      33.782 -23.134 -16.764  0.00  0.00    -0.077 C 
ATOM      8  H   UNL     1      35.518 -24.186 -16.700  0.00  0.00    -0.079 HD
BRANCH   2   9
ATOM      9  C   UNL     1      35.031 -23.705 -14.785  0.00  0.00    -0.050 C 
BRANCH   9  10
ATOM     10  C   UNL     1      36.244 -24.453 -14.302  0.00  0.00    -0.043 C 
ATOM     11  C   UNL     1      36.626 -25.623 -14.945  0.00  0.00    -0.006 C 
ATOM     12  C   UNL     1      36.966 -23.964 -13.222  0.00  0.00    -0.006 C 
ATOM     13  C   UNL     1      37.750 -26.317 -14.497  0.00  0.00    -0.000 C 
ATOM     14  C   UNL     1      38.090 -24.657 -12.775  0.00  0.00    -0.000 C 
ATOM     15  C   UNL     1      38.482 -25.834 -13.413  0.00  0.00    -0.000 C 
ENDBRANCH   9  10
ENDBRANCH   2   9
ENDBRANCH   1   3
BRANCH   1  16
ATOM     16  C   UNL     1      34.181 -20.214 -20.537  0.00  0.00    +0.069 C 
BRANCH  16  18
ATOM     17  O   UNL     1      36.138 -18.811 -20.438  0.00  0.00    -0.291 OA
ATOM     18  C   UNL     1      35.107 -19.108 -21.076  0.00  0.00    +0.173 C 
BRANCH  18  20
ATOM     19  N   UNL     1      32.416 -18.877 -25.112  0.00  0.00    -0.333 N 
ATOM     20  C   UNL     1      34.775 -18.423 -22.315  0.00  0.00    +0.036 C 
ATOM     21  C   UNL     1      34.106 -17.106 -24.709  0.00  0.00    -0.009 C 
ATOM     22  C   UNL     1      33.792 -16.290 -25.947  0.00  0.00    +0.028 C 
ATOM     23  C   UNL     1      33.408 -18.280 -24.346  0.00  0.00    +0.041 C 
ATOM     24  C   UNL     1      32.295 -16.119 -26.203  0.00  0.00    +0.006 C 
ATOM     25  C   UNL     1      31.630 -17.329 -26.857  0.00  0.00    +0.022 C 
ATOM     26  C   UNL     1      33.753 -18.909 -23.131  0.00  0.00    +0.017 C 
ATOM     27  C   UNL     1      32.274 -18.670 -26.536  0.00  0.00    +0.087 C 
ATOM     28  C   UNL     1      35.480 -17.292 -22.695  0.00  0.00    +0.003 C 
ATOM     29  C   UNL     1      35.150 -16.641 -23.882  0.00  0.00    -0.003 C 
ATOM     30  H   UNL     1      31.776 -19.475 -24.663  0.00  0.00    +0.147 HD
ENDBRANCH  18  20
ENDBRANCH  16  18
ENDBRANCH   1  16
TORSDOF 6
ENDMDL
MODEL 8
REMARK VINA RESULT:     -11.5      1.449      9.366
REMARK  Name = 198752
REMARK  6 active torsions:
REMARK  status: ('A' for Active; 'I' for Inactive)
REMARK    1  A    between atoms: C_1  and  C_3
REMARK    2  A    between atoms: C_1  and  C_16
REMARK    3  A    between atoms: N_2  and  C_9
REMARK    4  A    between atoms: C_9  and  C_10
REMARK    5  A    between atoms: C_16  and  C_18
REMARK    6  A    between atoms: C_18  and  C_20
REMARK                            x       y       z     vdW  Elec       q    Type
REMARK                         _______ _______ _______ _____ _____    ______ ____
ROOT
ATOM      1  C   UNL     1      31.795 -23.456 -16.321  0.00  0.00    +0.008 C 
ENDROOT
BRANCH   1   3
ATOM      2  N   UNL     1      34.910 -24.808 -13.653  0.00  0.00    +0.390 N 
ATOM      3  C   UNL     1      32.878 -23.421 -15.248  0.00  0.00    -0.004 C 
ATOM      4  C   UNL     1      34.237 -23.832 -15.824  0.00  0.00    -0.023 C 
ATOM      5  C   UNL     1      32.518 -24.334 -14.071  0.00  0.00    -0.023 C 
ATOM      6  C   UNL     1      35.308 -23.896 -14.733  0.00  0.00    -0.077 C 
ATOM      7  C   UNL     1      33.646 -24.382 -13.038  0.00  0.00    -0.077 C 
ATOM      8  H   UNL     1      34.766 -25.732 -14.058  0.00  0.00    -0.079 HD
BRANCH   2   9
ATOM      9  C   UNL     1      35.965 -24.899 -12.643  0.00  0.00    -0.050 C 
BRANCH   9  10
ATOM     10  C   UNL     1      37.293 -25.265 -13.250  0.00  0.00    -0.043 C 
ATOM     11  C   UNL     1      38.414 -24.504 -12.949  0.00  0.00    -0.006 C 
ATOM     12  C   UNL     1      37.378 -26.357 -14.102  0.00  0.00    -0.006 C 
ATOM     13  C   UNL     1      39.645 -24.843 -13.513  0.00  0.00    -0.000 C 
ATOM     14  C   UNL     1      38.607 -26.696 -14.665  0.00  0.00    -0.000 C 
ATOM     15  C   UNL     1      39.742 -25.939 -14.370  0.00  0.00    -0.000 C 
ENDBRANCH   9  10
ENDBRANCH   2   9
ENDBRANCH   1   3
BRANCH   1  16
ATOM     16  C   UNL     1      32.048 -22.411 -17.408  0.00  0.00    +0.069 C 
BRANCH  16  18
ATOM     17  O   UNL     1      33.166 -24.102 -18.714  0.00  0.00    -0.291 OA
ATOM     18  C   UNL     1      33.038 -22.880 -18.491  0.00  0.00    +0.173 C 
BRANCH  18  20
ATOM     19  N   UNL     1      33.200 -19.434 -21.909  0.00  0.00    -0.333 N 
ATOM     20  C   UNL     1      33.812 -21.902 -19.238  0.00  0.00    +0.036 C 
ATOM     21  C   UNL     1      35.285 -19.993 -20.687  0.00  0.00    -0.009 C 
ATOM     22  C   UNL     1      36.162 -18.962 -21.370  0.00  0.00    +0.028 C 
ATOM     23  C   UNL     1      33.905 -20.143 -20.946  0.00  0.00    +0.041 C 
ATOM     24  C   UNL     1      35.496 -17.594 -21.515  0.00  0.00    +0.006 C 
ATOM     25  C   UNL     1      34.510 -17.497 -22.678  0.00  0.00    +0.022 C 
ATOM     26  C   UNL     1      33.188 -21.096 -20.191  0.00  0.00    +0.017 C 
ATOM     27  C   UNL     1      33.824 -18.802 -23.050  0.00  0.00    +0.087 C 
ATOM     28  C   UNL     1      35.174 -21.775 -19.017  0.00  0.00    +0.003 C 
ATOM     29  C   UNL     1      35.904 -20.831 -19.735  0.00  0.00    -0.003 C 
ATOM     30  H   UNL     1      32.223 -19.357 -21.810  0.00  0.00    +0.147 HD
ENDBRANCH  18  20
ENDBRANCH  16  18
ENDBRANCH   1  16
TORSDOF 6
ENDMDL
MODEL 9
REMARK VINA RESULT:     -11.2      2.572     11.141
REMARK  Name = 198752
REMARK  6 active torsions:
REMARK  status: ('A' for Active; 'I' for Inactive)
REMARK    1  A    between atoms: C_1  and  C_3
REMARK    2  A    between atoms: C_1  and  C_16
REMARK    3  A    between atoms: N_2  and  C_9
REMARK    4  A    between atoms: C_9  and  C_10
REMARK    5  A    between atoms: C_16  and  C_18
REMARK    6  A    between atoms: C_18  and  C_20
REMARK                            x       y       z     vdW  Elec       q    Type
REMARK                         _______ _______ _______ _____ _____    ______ ____
ROOT
ATOM      1  C   UNL     1      35.802 -21.226 -19.888  0.00  0.00    +0.008 C 
ENDROOT
BRANCH   1   3
ATOM      2  N   UNL     1      35.041 -23.387 -16.227  0.00  0.00    +0.390 N 
ATOM      3  C   UNL     1      35.337 -21.516 -18.464  0.00  0.00    -0.004 C 
ATOM      4  C   UNL     1      36.514 -21.924 -17.572  0.00  0.00    -0.023 C 
ATOM      5  C   UNL     1      34.268 -22.614 -18.446  0.00  0.00    -0.023 C 
ATOM      6  C   UNL     1      36.041 -22.313 -16.170  0.00  0.00    -0.077 C 
ATOM      7  C   UNL     1      33.870 -22.980 -17.015  0.00  0.00    -0.077 C 
ATOM      8  H   UNL     1      35.467 -24.190 -16.688  0.00  0.00    -0.079 HD
BRANCH   2   9
ATOM      9  C   UNL     1      34.637 -23.783 -14.878  0.00  0.00    -0.050 C 
BRANCH   9  10
ATOM     10  C   UNL     1      35.724 -24.544 -14.167  0.00  0.00    -0.043 C 
ATOM     11  C   UNL     1      36.221 -25.711 -14.731  0.00  0.00    -0.006 C 
ATOM     12  C   UNL     1      36.216 -24.068 -12.960  0.00  0.00    -0.006 C 
ATOM     13  C   UNL     1      37.228 -26.417 -14.072  0.00  0.00    -0.000 C 
ATOM     14  C   UNL     1      37.223 -24.773 -12.302  0.00  0.00    -0.000 C 
ATOM     15  C   UNL     1      37.729 -25.948 -12.859  0.00  0.00    -0.000 C 
ENDBRANCH   9  10
ENDBRANCH   2   9
ENDBRANCH   1   3
BRANCH   1  16
ATOM     16  C   UNL     1      34.861 -20.253 -20.599  0.00  0.00    +0.069 C 
BRANCH  16  18
ATOM     17  O   UNL     1      36.787 -18.926 -21.184  0.00  0.00    -0.291 OA
ATOM     18  C   UNL     1      35.596 -19.196 -21.444  0.00  0.00    +0.173 C 
BRANCH  18  20
ATOM     19  N   UNL     1      34.154 -15.055 -23.533  0.00  0.00    -0.333 N 
ATOM     20  C   UNL     1      34.902 -18.524 -22.530  0.00  0.00    +0.036 C 
ATOM     21  C   UNL     1      33.576 -17.203 -24.632  0.00  0.00    -0.009 C 
ATOM     22  C   UNL     1      32.882 -16.595 -25.835  0.00  0.00    +0.028 C 
ATOM     23  C   UNL     1      34.186 -16.441 -23.610  0.00  0.00    +0.041 C 
ATOM     24  C   UNL     1      33.631 -15.405 -26.434  0.00  0.00    +0.006 C 
ATOM     25  C   UNL     1      33.427 -14.093 -25.679  0.00  0.00    +0.022 C 
ATOM     26  C   UNL     1      34.859 -17.130 -22.579  0.00  0.00    +0.017 C 
ATOM     27  C   UNL     1      33.154 -14.242 -24.190  0.00  0.00    +0.087 C 
ATOM     28  C   UNL     1      34.269 -19.265 -23.516  0.00  0.00    +0.003 C 
ATOM     29  C   UNL     1      33.611 -18.612 -24.555  0.00  0.00    -0.003 C 
ATOM     30  H   UNL     1      34.848 -14.601 -23.002  0.00  0.00    +0.147 HD
ENDBRANCH  18  20
ENDBRANCH  16  18
ENDBRANCH   1  16
TORSDOF 6
ENDMDL
