MODEL 1
REMARK VINA RESULT:     -12.5      0.000      0.000
REMARK  Name = 44129603
REMARK  3 active torsions:
REMARK  status: ('A' for Active; 'I' for Inactive)
REMARK    1  A    between atoms: N_5  and  C_17
REMARK    2  A    between atoms: C_12  and  C_24
REMARK    3  A    between atoms: C_24  and  O_25
REMARK                            x       y       z     vdW  Elec       q    Type
REMARK                         _______ _______ _______ _____ _____    ______ ____
ROOT
ATOM      1  N   UNL     1      36.309 -22.928 -15.268  0.00  0.00    -0.246 N 
ATOM      2  N   UNL     1      37.282 -23.040 -14.341  0.00  0.00    -0.163 NA
ATOM      3  N   UNL     1      33.719 -22.777 -16.708  0.00  0.00    -0.336 NA
ATOM      4  N   UNL     1      31.397 -23.443 -16.743  0.00  0.00    -0.170 NA
ATOM      5  N   UNL     1      32.339 -22.243 -18.527  0.00  0.00    -0.247 N 
ATOM      6  C   UNL     1      34.132 -24.158 -12.658  0.00  0.00    +0.035 C 
ATOM      7  C   UNL     1      35.267 -23.702 -13.505  0.00  0.00    +0.024 A 
ATOM      8  C   UNL     1      32.969 -24.717 -13.522  0.00  0.00    +0.035 C 
ATOM      9  C   UNL     1      35.087 -23.319 -14.815  0.00  0.00    +0.106 A 
ATOM     10  C   UNL     1      32.763 -24.004 -14.841  0.00  0.00    +0.030 C 
ATOM     11  C   UNL     1      33.816 -23.364 -15.501  0.00  0.00    +0.158 C 
ATOM     12  C   UNL     1      36.637 -23.510 -13.265  0.00  0.00    +0.174 A 
ATOM     13  C   UNL     1      31.567 -24.018 -15.531  0.00  0.00    +0.110 C 
ATOM     14  C   UNL     1      36.655 -22.407 -16.571  0.00  0.00    +0.154 C 
ATOM     15  C   UNL     1      32.494 -22.852 -17.262  0.00  0.00    +0.149 C 
ATOM     16  H   UNL     1      31.429 -22.320 -18.895  0.00  0.00    +0.165 HD
ENDROOT
BRANCH   5  17
ATOM     17  C   UNL     1      33.230 -21.548 -19.365  0.00  0.00    +0.058 C 
ATOM     18  C   UNL     1      34.584 -21.881 -19.372  0.00  0.00    +0.015 C 
ATOM     19  C   UNL     1      32.758 -20.527 -20.189  0.00  0.00    +0.015 C 
ATOM     20  C   UNL     1      35.468 -21.192 -20.205  0.00  0.00    +0.001 C 
ATOM     21  C   UNL     1      33.641 -19.838 -21.022  0.00  0.00    +0.001 C 
ATOM     22  C   UNL     1      34.995 -20.170 -21.029  0.00  0.00    +0.000 C 
ENDBRANCH   5  17
BRANCH  12  24
ATOM     23  O   UNL     1      37.365 -24.828 -11.406  0.00  0.00    -0.243 OA
ATOM     24  C   UNL     1      37.365 -23.763 -12.054  0.00  0.00    +0.357 C 
BRANCH  24  25
ATOM     25  O   UNL     1      38.103 -22.690 -11.633  0.00  0.00    -0.476 OA
ATOM     26  H   UNL     1      38.394 -22.049 -12.253  0.00  0.00    +0.295 HD
ENDBRANCH  24  25
ENDBRANCH  12  24
TORSDOF 3
ENDMDL
MODEL 2
REMARK VINA RESULT:     -11.0      9.223     13.137
REMARK  Name = 44129603
REMARK  3 active torsions:
REMARK  status: ('A' for Active; 'I' for Inactive)
REMARK    1  A    between atoms: N_5  and  C_17
REMARK    2  A    between atoms: C_12  and  C_24
REMARK    3  A    between atoms: C_24  and  O_25
REMARK                            x       y       z     vdW  Elec       q    Type
REMARK                         _______ _______ _______ _____ _____    ______ ____
ROOT
ATOM      1  N   UNL     1      33.719 -13.607 -23.982  0.00  0.00    -0.246 N 
ATOM      2  N   UNL     1      33.812 -12.264 -23.908  0.00  0.00    -0.163 NA
ATOM      3  N   UNL     1      33.449 -16.421 -24.883  0.00  0.00    -0.336 NA
ATOM      4  N   UNL     1      32.566 -17.918 -26.561  0.00  0.00    -0.170 NA
ATOM      5  N   UNL     1      33.625 -18.746 -24.637  0.00  0.00    -0.247 N 
ATOM      6  C   UNL     1      32.612 -13.017 -27.371  0.00  0.00    +0.035 C 
ATOM      7  C   UNL     1      33.068 -12.927 -25.958  0.00  0.00    +0.024 A 
ATOM      8  C   UNL     1      31.845 -14.341 -27.636  0.00  0.00    +0.035 C 
ATOM      9  C   UNL     1      33.271 -14.050 -25.188  0.00  0.00    +0.106 A 
ATOM     10  C   UNL     1      32.371 -15.539 -26.873  0.00  0.00    +0.030 C 
ATOM     11  C   UNL     1      33.023 -15.397 -25.646  0.00  0.00    +0.158 C 
ATOM     12  C   UNL     1      33.417 -11.855 -25.121  0.00  0.00    +0.174 A 
ATOM     13  C   UNL     1      32.160 -16.843 -27.274  0.00  0.00    +0.110 C 
ATOM     14  C   UNL     1      34.110 -14.390 -22.832  0.00  0.00    +0.154 C 
ATOM     15  C   UNL     1      33.191 -17.639 -25.398  0.00  0.00    +0.149 C 
ATOM     16  H   UNL     1      33.419 -19.616 -25.051  0.00  0.00    +0.165 HD
ENDROOT
BRANCH   5  17
ATOM     17  C   UNL     1      34.296 -18.852 -23.405  0.00  0.00    +0.058 C 
ATOM     18  C   UNL     1      33.607 -19.279 -22.271  0.00  0.00    +0.015 C 
ATOM     19  C   UNL     1      35.650 -18.529 -23.319  0.00  0.00    +0.015 C 
ATOM     20  C   UNL     1      34.272 -19.384 -21.048  0.00  0.00    +0.001 C 
ATOM     21  C   UNL     1      36.316 -18.635 -22.097  0.00  0.00    +0.001 C 
ATOM     22  C   UNL     1      35.627 -19.062 -20.962  0.00  0.00    +0.000 C 
ENDBRANCH   5  17
BRANCH  12  24
ATOM     23  O   UNL     1      32.569  -9.624 -24.969  0.00  0.00    -0.243 OA
ATOM     24  C   UNL     1      33.382 -10.453 -25.422  0.00  0.00    +0.357 C 
BRANCH  24  25
ATOM     25  O   UNL     1      34.362 -10.063 -26.295  0.00  0.00    -0.476 OA
ATOM     26  H   UNL     1      34.562  -9.153 -26.400  0.00  0.00    +0.295 HD
ENDBRANCH  24  25
ENDBRANCH  12  24
TORSDOF 3
ENDMDL
MODEL 3
REMARK VINA RESULT:     -10.7      3.586      6.709
REMARK  Name = 44129603
REMARK  3 active torsions:
REMARK  status: ('A' for Active; 'I' for Inactive)
REMARK    1  A    between atoms: N_5  and  C_17
REMARK    2  A    between atoms: C_12  and  C_24
REMARK    3  A    between atoms: C_24  and  O_25
REMARK                            x       y       z     vdW  Elec       q    Type
REMARK                         _______ _______ _______ _____ _____    ______ ____
ROOT
ATOM      1  N   UNL     1      36.196 -21.704 -18.036  0.00  0.00    -0.246 N 
ATOM      2  N   UNL     1      36.586 -20.918 -19.059  0.00  0.00    -0.163 NA
ATOM      3  N   UNL     1      34.726 -23.532 -16.217  0.00  0.00    -0.336 NA
ATOM      4  N   UNL     1      32.568 -24.348 -15.502  0.00  0.00    -0.170 NA
ATOM      5  N   UNL     1      34.537 -25.019 -14.415  0.00  0.00    -0.247 N 
ATOM      6  C   UNL     1      32.952 -21.607 -19.627  0.00  0.00    +0.035 C 
ATOM      7  C   UNL     1      34.371 -21.436 -19.216  0.00  0.00    +0.024 A 
ATOM      8  C   UNL     1      32.048 -21.956 -18.413  0.00  0.00    +0.035 C 
ATOM      9  C   UNL     1      34.877 -22.034 -18.083  0.00  0.00    +0.106 A 
ATOM     10  C   UNL     1      32.704 -22.835 -17.370  0.00  0.00    +0.030 C 
ATOM     11  C   UNL     1      34.088 -22.832 -17.173  0.00  0.00    +0.158 C 
ATOM     12  C   UNL     1      35.467 -20.761 -19.779  0.00  0.00    +0.174 A 
ATOM     13  C   UNL     1      31.992 -23.616 -16.481  0.00  0.00    +0.110 C 
ATOM     14  C   UNL     1      37.183 -22.108 -17.061  0.00  0.00    +0.154 C 
ATOM     15  C   UNL     1      33.913 -24.261 -15.429  0.00  0.00    +0.149 C 
ATOM     16  H   UNL     1      33.907 -25.537 -13.863  0.00  0.00    +0.165 HD
ENDROOT
BRANCH   5  17
ATOM     17  C   UNL     1      35.883 -25.179 -14.036  0.00  0.00    +0.058 C 
ATOM     18  C   UNL     1      36.411 -24.416 -12.996  0.00  0.00    +0.015 C 
ATOM     19  C   UNL     1      36.688 -26.104 -14.703  0.00  0.00    +0.015 C 
ATOM     20  C   UNL     1      37.746 -24.576 -12.621  0.00  0.00    +0.001 C 
ATOM     21  C   UNL     1      38.022 -26.264 -14.327  0.00  0.00    +0.001 C 
ATOM     22  C   UNL     1      38.551 -25.500 -13.287  0.00  0.00    +0.000 C 
ENDBRANCH   5  17
BRANCH  12  24
ATOM     23  O   UNL     1      34.692 -20.037 -21.923  0.00  0.00    -0.243 OA
ATOM     24  C   UNL     1      35.494 -19.964 -20.972  0.00  0.00    +0.357 C 
BRANCH  24  25
ATOM     25  O   UNL     1      36.524 -19.062 -20.995  0.00  0.00    -0.476 OA
ATOM     26  H   UNL     1      36.426 -18.251 -21.454  0.00  0.00    +0.295 HD
ENDBRANCH  24  25
ENDBRANCH  12  24
TORSDOF 3
ENDMDL
MODEL 4
REMARK VINA RESULT:     -10.5      9.636     13.685
REMARK  Name = 44129603
REMARK  3 active torsions:
REMARK  status: ('A' for Active; 'I' for Inactive)
REMARK    1  A    between atoms: N_5  and  C_17
REMARK    2  A    between atoms: C_12  and  C_24
REMARK    3  A    between atoms: C_24  and  O_25
REMARK                            x       y       z     vdW  Elec       q    Type
REMARK                         _______ _______ _______ _____ _____    ______ ____
ROOT
ATOM      1  N   UNL     1      33.229 -12.768 -23.719  0.00  0.00    -0.246 N 
ATOM      2  N   UNL     1      33.197 -11.445 -23.457  0.00  0.00    -0.163 NA
ATOM      3  N   UNL     1      33.366 -15.437 -25.009  0.00  0.00    -0.336 NA
ATOM      4  N   UNL     1      32.947 -16.726 -27.008  0.00  0.00    -0.170 NA
ATOM      5  N   UNL     1      33.679 -17.760 -25.032  0.00  0.00    -0.247 N 
ATOM      6  C   UNL     1      32.751 -11.765 -27.159  0.00  0.00    +0.035 C 
ATOM      7  C   UNL     1      32.918 -11.852 -25.683  0.00  0.00    +0.024 A 
ATOM      8  C   UNL     1      32.159 -13.078 -27.740  0.00  0.00    +0.035 C 
ATOM      9  C   UNL     1      33.059 -13.059 -25.037  0.00  0.00    +0.106 A 
ATOM     10  C   UNL     1      32.624 -14.341 -27.046  0.00  0.00    +0.030 C 
ATOM     11  C   UNL     1      33.013 -14.340 -25.704  0.00  0.00    +0.158 C 
ATOM     12  C   UNL     1      33.011 -10.891 -24.662  0.00  0.00    +0.174 A 
ATOM     13  C   UNL     1      32.600 -15.586 -27.645  0.00  0.00    +0.110 C 
ATOM     14  C   UNL     1      33.452 -13.683 -22.623  0.00  0.00    +0.154 C 
ATOM     15  C   UNL     1      33.312 -16.581 -25.716  0.00  0.00    +0.149 C 
ATOM     16  H   UNL     1      33.627 -18.572 -25.586  0.00  0.00    +0.165 HD
ENDROOT
BRANCH   5  17
ATOM     17  C   UNL     1      34.106 -18.002 -23.713  0.00  0.00    +0.058 C 
ATOM     18  C   UNL     1      34.888 -17.059 -23.049  0.00  0.00    +0.015 C 
ATOM     19  C   UNL     1      33.745 -19.187 -23.071  0.00  0.00    +0.015 C 
ATOM     20  C   UNL     1      35.310 -17.298 -21.740  0.00  0.00    +0.001 C 
ATOM     21  C   UNL     1      34.167 -19.427 -21.762  0.00  0.00    +0.001 C 
ATOM     22  C   UNL     1      34.949 -18.483 -21.098  0.00  0.00    +0.000 C 
ENDBRANCH   5  17
BRANCH  12  24
ATOM     23  O   UNL     1      33.618  -8.744 -25.523  0.00  0.00    -0.243 OA
ATOM     24  C   UNL     1      32.921  -9.464 -24.783  0.00  0.00    +0.357 C 
BRANCH  24  25
ATOM     25  O   UNL     1      31.958  -8.914 -23.980  0.00  0.00    -0.476 OA
ATOM     26  H   UNL     1      31.764  -7.999 -24.040  0.00  0.00    +0.295 HD
ENDBRANCH  24  25
ENDBRANCH  12  24
TORSDOF 3
ENDMDL
MODEL 5
REMARK VINA RESULT:     -10.4      3.536      7.047
REMARK  Name = 44129603
REMARK  3 active torsions:
REMARK  status: ('A' for Active; 'I' for Inactive)
REMARK    1  A    between atoms: N_5  and  C_17
REMARK    2  A    between atoms: C_12  and  C_24
REMARK    3  A    between atoms: C_24  and  O_25
REMARK                            x       y       z     vdW  Elec       q    Type
REMARK                         _______ _______ _______ _____ _____    ______ ____
ROOT
ATOM      1  N   UNL     1      32.150 -23.974 -15.356  0.00  0.00    -0.246 N 
ATOM      2  N   UNL     1      30.804 -24.049 -15.300  0.00  0.00    -0.163 NA
ATOM      3  N   UNL     1      34.961 -23.248 -15.967  0.00  0.00    -0.336 NA
ATOM      4  N   UNL     1      36.488 -22.306 -17.584  0.00  0.00    -0.170 NA
ATOM      5  N   UNL     1      37.273 -23.229 -15.574  0.00  0.00    -0.247 N 
ATOM      6  C   UNL     1      31.583 -21.868 -18.239  0.00  0.00    +0.035 C 
ATOM      7  C   UNL     1      31.485 -22.766 -17.057  0.00  0.00    +0.024 A 
ATOM      8  C   UNL     1      32.952 -22.023 -18.956  0.00  0.00    +0.035 C 
ATOM      9  C   UNL     1      32.603 -23.222 -16.396  0.00  0.00    +0.106 A 
ATOM     10  C   UNL     1      34.123 -22.284 -18.033  0.00  0.00    +0.030 C 
ATOM     11  C   UNL     1      33.957 -22.921 -16.800  0.00  0.00    +0.158 C 
ATOM     12  C   UNL     1      30.404 -23.305 -16.340  0.00  0.00    +0.174 A 
ATOM     13  C   UNL     1      35.433 -22.011 -18.375  0.00  0.00    +0.110 C 
ATOM     14  C   UNL     1      32.921 -24.650 -14.339  0.00  0.00    +0.154 C 
ATOM     15  C   UNL     1      36.185 -22.913 -16.417  0.00  0.00    +0.149 C 
ATOM     16  H   UNL     1      38.148 -22.965 -15.940  0.00  0.00    +0.165 HD
ENDROOT
BRANCH   5  17
ATOM     17  C   UNL     1      37.352 -23.847 -14.312  0.00  0.00    +0.058 C 
ATOM     18  C   UNL     1      36.995 -23.139 -13.165  0.00  0.00    +0.015 C 
ATOM     19  C   UNL     1      37.787 -25.168 -14.210  0.00  0.00    +0.015 C 
ATOM     20  C   UNL     1      37.072 -23.752 -11.914  0.00  0.00    +0.001 C 
ATOM     21  C   UNL     1      37.864 -25.781 -12.958  0.00  0.00    +0.001 C 
ATOM     22  C   UNL     1      37.507 -25.073 -11.811  0.00  0.00    +0.000 C 
ENDBRANCH   5  17
BRANCH  12  24
ATOM     23  O   UNL     1      28.436 -22.103 -16.971  0.00  0.00    -0.243 OA
ATOM     24  C   UNL     1      29.003 -23.150 -16.606  0.00  0.00    +0.357 C 
BRANCH  24  25
ATOM     25  O   UNL     1      28.288 -24.303 -16.422  0.00  0.00    -0.476 OA
ATOM     26  H   UNL     1      27.380 -24.333 -16.652  0.00  0.00    +0.295 HD
ENDBRANCH  24  25
ENDBRANCH  12  24
TORSDOF 3
ENDMDL
MODEL 6
REMARK VINA RESULT:     -10.1      4.346      7.318
REMARK  Name = 44129603
REMARK  3 active torsions:
REMARK  status: ('A' for Active; 'I' for Inactive)
REMARK    1  A    between atoms: N_5  and  C_17
REMARK    2  A    between atoms: C_12  and  C_24
REMARK    3  A    between atoms: C_24  and  O_25
REMARK                            x       y       z     vdW  Elec       q    Type
REMARK                         _______ _______ _______ _____ _____    ______ ____
ROOT
ATOM      1  N   UNL     1      32.693 -20.692 -20.526  0.00  0.00    -0.246 N 
ATOM      2  N   UNL     1      32.079 -21.501 -19.639  0.00  0.00    -0.163 NA
ATOM      3  N   UNL     1      34.662 -19.267 -22.228  0.00  0.00    -0.336 NA
ATOM      4  N   UNL     1      36.945 -18.514 -22.459  0.00  0.00    -0.170 NA
ATOM      5  N   UNL     1      35.315 -17.939 -24.047  0.00  0.00    -0.247 N 
ATOM      6  C   UNL     1      35.734 -21.728 -18.871  0.00  0.00    +0.035 C 
ATOM      7  C   UNL     1      34.336 -21.486 -19.317  0.00  0.00    +0.024 A 
ATOM      8  C   UNL     1      36.664 -20.545 -19.256  0.00  0.00    +0.035 C 
ATOM      9  C   UNL     1      34.043 -20.646 -20.367  0.00  0.00    +0.106 A 
ATOM     10  C   UNL     1      36.335 -19.889 -20.580  0.00  0.00    +0.030 C 
ATOM     11  C   UNL     1      35.037 -19.893 -21.097  0.00  0.00    +0.158 C 
ATOM     12  C   UNL     1      33.089 -21.987 -18.906  0.00  0.00    +0.174 A 
ATOM     13  C   UNL     1      37.252 -19.161 -21.313  0.00  0.00    +0.110 C 
ATOM     14  C   UNL     1      31.886 -20.014 -21.515  0.00  0.00    +0.154 C 
ATOM     15  C   UNL     1      35.657 -18.607 -22.851  0.00  0.00    +0.149 C 
ATOM     16  H   UNL     1      36.071 -17.472 -24.470  0.00  0.00    +0.165 HD
ENDROOT
BRANCH   5  17
ATOM     17  C   UNL     1      34.106 -17.811 -24.754  0.00  0.00    +0.058 C 
ATOM     18  C   UNL     1      33.585 -16.545 -25.022  0.00  0.00    +0.015 C 
ATOM     19  C   UNL     1      33.428 -18.951 -25.187  0.00  0.00    +0.015 C 
ATOM     20  C   UNL     1      32.386 -16.418 -25.724  0.00  0.00    +0.001 C 
ATOM     21  C   UNL     1      32.229 -18.824 -25.890  0.00  0.00    +0.001 C 
ATOM     22  C   UNL     1      31.708 -17.558 -26.157  0.00  0.00    +0.000 C 
ENDBRANCH   5  17
BRANCH  12  24
ATOM     23  O   UNL     1      33.599 -23.761 -17.385  0.00  0.00    -0.243 OA
ATOM     24  C   UNL     1      32.816 -22.903 -17.836  0.00  0.00    +0.357 C 
BRANCH  24  25
ATOM     25  O   UNL     1      31.558 -22.762 -17.313  0.00  0.00    -0.476 OA
ATOM     26  H   UNL     1      30.941 -22.188 -17.724  0.00  0.00    +0.295 HD
ENDBRANCH  24  25
ENDBRANCH  12  24
TORSDOF 3
ENDMDL
MODEL 7
REMARK VINA RESULT:     -10.1      3.256      6.229
REMARK  Name = 44129603
REMARK  3 active torsions:
REMARK  status: ('A' for Active; 'I' for Inactive)
REMARK    1  A    between atoms: N_5  and  C_17
REMARK    2  A    between atoms: C_12  and  C_24
REMARK    3  A    between atoms: C_24  and  O_25
REMARK                            x       y       z     vdW  Elec       q    Type
REMARK                         _______ _______ _______ _____ _____    ______ ____
ROOT
ATOM      1  N   UNL     1      33.833 -22.302 -18.186  0.00  0.00    -0.246 N 
ATOM      2  N   UNL     1      34.344 -21.685 -19.271  0.00  0.00    -0.163 NA
ATOM      3  N   UNL     1      33.343 -23.408 -15.477  0.00  0.00    -0.336 NA
ATOM      4  N   UNL     1      34.333 -24.216 -13.427  0.00  0.00    -0.170 NA
ATOM      5  N   UNL     1      32.014 -24.318 -13.773  0.00  0.00    -0.247 N 
ATOM      6  C   UNL     1      37.131 -21.848 -16.779  0.00  0.00    +0.035 C 
ATOM      7  C   UNL     1      35.912 -21.901 -17.630  0.00  0.00    +0.024 A 
ATOM      8  C   UNL     1      37.115 -22.961 -15.697  0.00  0.00    +0.035 C 
ATOM      9  C   UNL     1      34.736 -22.460 -17.182  0.00  0.00    +0.106 A 
ATOM     10  C   UNL     1      35.745 -23.277 -15.136  0.00  0.00    +0.030 C 
ATOM     11  C   UNL     1      34.583 -23.081 -15.886  0.00  0.00    +0.158 C 
ATOM     12  C   UNL     1      35.613 -21.438 -18.923  0.00  0.00    +0.174 A 
ATOM     13  C   UNL     1      35.549 -23.867 -13.903  0.00  0.00    +0.110 C 
ATOM     14  C   UNL     1      32.440 -22.688 -18.205  0.00  0.00    +0.154 C 
ATOM     15  C   UNL     1      33.294 -23.963 -14.250  0.00  0.00    +0.149 C 
ATOM     16  H   UNL     1      32.024 -24.718 -12.873  0.00  0.00    +0.165 HD
ENDROOT
BRANCH   5  17
ATOM     17  C   UNL     1      30.726 -24.212 -14.330  0.00  0.00    +0.058 C 
ATOM     18  C   UNL     1      30.245 -22.970 -14.743  0.00  0.00    +0.015 C 
ATOM     19  C   UNL     1      29.931 -25.350 -14.468  0.00  0.00    +0.015 C 
ATOM     20  C   UNL     1      28.968 -22.865 -15.297  0.00  0.00    +0.001 C 
ATOM     21  C   UNL     1      28.654 -25.245 -15.022  0.00  0.00    +0.001 C 
ATOM     22  C   UNL     1      28.173 -24.003 -15.435  0.00  0.00    +0.000 C 
ENDBRANCH   5  17
BRANCH  12  24
ATOM     23  O   UNL     1      36.610 -19.546 -19.994  0.00  0.00    -0.243 OA
ATOM     24  C   UNL     1      36.489 -20.778 -19.847  0.00  0.00    +0.357 C 
BRANCH  24  25
ATOM     25  O   UNL     1      37.229 -21.646 -20.604  0.00  0.00    -0.476 OA
ATOM     26  H   UNL     1      36.872 -22.479 -20.846  0.00  0.00    +0.295 HD
ENDBRANCH  24  25
ENDBRANCH  12  24
TORSDOF 3
ENDMDL
MODEL 8
REMARK VINA RESULT:     -10.1      7.263     10.755
REMARK  Name = 44129603
REMARK  3 active torsions:
REMARK  status: ('A' for Active; 'I' for Inactive)
REMARK    1  A    between atoms: N_5  and  C_17
REMARK    2  A    between atoms: C_12  and  C_24
REMARK    3  A    between atoms: C_24  and  O_25
REMARK                            x       y       z     vdW  Elec       q    Type
REMARK                         _______ _______ _______ _____ _____    ______ ____
ROOT
ATOM      1  N   UNL     1      34.685 -16.408 -21.619  0.00  0.00    -0.246 N 
ATOM      2  N   UNL     1      35.093 -17.273 -20.668  0.00  0.00    -0.163 NA
ATOM      3  N   UNL     1      33.587 -15.141 -24.067  0.00  0.00    -0.336 NA
ATOM      4  N   UNL     1      33.138 -15.386 -26.428  0.00  0.00    -0.170 NA
ATOM      5  N   UNL     1      32.748 -13.350 -25.326  0.00  0.00    -0.247 N 
ATOM      6  C   UNL     1      34.433 -19.341 -23.716  0.00  0.00    +0.035 C 
ATOM      7  C   UNL     1      34.657 -18.350 -22.630  0.00  0.00    +0.024 A 
ATOM      8  C   UNL     1      34.523 -18.677 -25.117  0.00  0.00    +0.035 C 
ATOM      9  C   UNL     1      34.419 -17.006 -22.812  0.00  0.00    +0.106 A 
ATOM     10  C   UNL     1      33.984 -17.264 -25.181  0.00  0.00    +0.030 C 
ATOM     11  C   UNL     1      33.983 -16.427 -24.062  0.00  0.00    +0.158 C 
ATOM     12  C   UNL     1      35.070 -18.459 -21.291  0.00  0.00    +0.174 A 
ATOM     13  C   UNL     1      33.554 -16.670 -26.352  0.00  0.00    +0.110 C 
ATOM     14  C   UNL     1      34.560 -15.011 -21.272  0.00  0.00    +0.154 C 
ATOM     15  C   UNL     1      33.180 -14.693 -25.270  0.00  0.00    +0.149 C 
ATOM     16  H   UNL     1      32.458 -13.065 -26.223  0.00  0.00    +0.165 HD
ENDROOT
BRANCH   5  17
ATOM     17  C   UNL     1      32.650 -12.340 -24.353  0.00  0.00    +0.058 C 
ATOM     18  C   UNL     1      32.096 -12.624 -23.105  0.00  0.00    +0.015 C 
ATOM     19  C   UNL     1      33.108 -11.053 -24.636  0.00  0.00    +0.015 C 
ATOM     20  C   UNL     1      32.000 -11.622 -22.139  0.00  0.00    +0.001 C 
ATOM     21  C   UNL     1      33.012 -10.050 -23.670  0.00  0.00    +0.001 C 
ATOM     22  C   UNL     1      32.458 -10.335 -22.423  0.00  0.00    +0.000 C 
ENDBRANCH   5  17
BRANCH  12  24
ATOM     23  O   UNL     1      34.761 -20.671 -20.435  0.00  0.00    -0.243 OA
ATOM     24  C   UNL     1      35.453 -19.644 -20.580  0.00  0.00    +0.357 C 
BRANCH  24  25
ATOM     25  O   UNL     1      36.707 -19.566 -20.037  0.00  0.00    -0.476 OA
ATOM     26  H   UNL     1      36.856 -19.858 -19.158  0.00  0.00    +0.295 HD
ENDBRANCH  24  25
ENDBRANCH  12  24
TORSDOF 3
ENDMDL
MODEL 9
REMARK VINA RESULT:     -10.0      7.228     10.732
REMARK  Name = 44129603
REMARK  3 active torsions:
REMARK  status: ('A' for Active; 'I' for Inactive)
REMARK    1  A    between atoms: N_5  and  C_17
REMARK    2  A    between atoms: C_12  and  C_24
REMARK    3  A    between atoms: C_24  and  O_25
REMARK                            x       y       z     vdW  Elec       q    Type
REMARK                         _______ _______ _______ _____ _____    ______ ____
ROOT
ATOM      1  N   UNL     1      34.703 -16.472 -21.701  0.00  0.00    -0.246 N 
ATOM      2  N   UNL     1      35.104 -17.307 -20.721  0.00  0.00    -0.163 NA
ATOM      3  N   UNL     1      33.609 -15.282 -24.190  0.00  0.00    -0.336 NA
ATOM      4  N   UNL     1      33.142 -15.608 -26.537  0.00  0.00    -0.170 NA
ATOM      5  N   UNL     1      32.789 -13.527 -25.511  0.00  0.00    -0.247 N 
ATOM      6  C   UNL     1      34.394 -19.478 -23.685  0.00  0.00    +0.035 C 
ATOM      7  C   UNL     1      34.640 -18.450 -22.638  0.00  0.00    +0.024 A 
ATOM      8  C   UNL     1      34.486 -18.868 -25.110  0.00  0.00    +0.035 C 
ATOM      9  C   UNL     1      34.421 -17.110 -22.869  0.00  0.00    +0.106 A 
ATOM     10  C   UNL     1      33.967 -17.450 -25.225  0.00  0.00    +0.030 C 
ATOM     11  C   UNL     1      33.986 -16.572 -24.138  0.00  0.00    +0.158 C 
ATOM     12  C   UNL     1      35.059 -18.514 -21.299  0.00  0.00    +0.174 A 
ATOM     13  C   UNL     1      33.540 -16.894 -26.415  0.00  0.00    +0.110 C 
ATOM     14  C   UNL     1      34.600 -15.061 -21.407  0.00  0.00    +0.154 C 
ATOM     15  C   UNL     1      33.202 -14.873 -25.407  0.00  0.00    +0.149 C 
ATOM     16  H   UNL     1      32.498 -13.271 -26.416  0.00  0.00    +0.165 HD
ENDROOT
BRANCH   5  17
ATOM     17  C   UNL     1      32.712 -12.479 -24.576  0.00  0.00    +0.058 C 
ATOM     18  C   UNL     1      33.120 -11.194 -24.933  0.00  0.00    +0.015 C 
ATOM     19  C   UNL     1      32.228 -12.726 -23.291  0.00  0.00    +0.015 C 
ATOM     20  C   UNL     1      33.042 -10.154 -24.005  0.00  0.00    +0.001 C 
ATOM     21  C   UNL     1      32.150 -11.686 -22.363  0.00  0.00    +0.001 C 
ATOM     22  C   UNL     1      32.558 -10.401 -22.720  0.00  0.00    +0.000 C 
ENDBRANCH   5  17
BRANCH  12  24
ATOM     23  O   UNL     1      34.719 -20.684 -20.352  0.00  0.00    -0.243 OA
ATOM     24  C   UNL     1      35.429 -19.678 -20.545  0.00  0.00    +0.357 C 
BRANCH  24  25
ATOM     25  O   UNL     1      36.691 -19.603 -20.021  0.00  0.00    -0.476 OA
ATOM     26  H   UNL     1      37.422 -19.434 -20.582  0.00  0.00    +0.295 HD
ENDBRANCH  24  25
ENDBRANCH  12  24
TORSDOF 3
ENDMDL
