MODEL 1
REMARK VINA RESULT:     -11.9      0.000      0.000
REMARK  Name = 60795
REMARK  7 active torsions:
REMARK  status: ('A' for Active; 'I' for Inactive)
REMARK    1  A    between atoms: C_1  and  N_2
REMARK    2  A    between atoms: C_1  and  C_17
REMARK    3  A    between atoms: N_3  and  C_11
REMARK    4  A    between atoms: C_17  and  C_18
REMARK    5  A    between atoms: C_18  and  C_19
REMARK    6  A    between atoms: C_19  and  O_20
REMARK    7  A    between atoms: O_20  and  C_26
REMARK                            x       y       z     vdW  Elec       q    Type
REMARK                         _______ _______ _______ _____ _____    ______ ____
ROOT
ATOM      1  C   UNL     1      36.147 -21.732 -18.665  0.00  0.00    -0.077 C 
ENDROOT
BRANCH   1   2
ATOM      2  N   UNL     1      35.701 -20.580 -19.448  0.00  0.00    +0.389 N 
ATOM      3  N   UNL     1      34.978 -19.161 -21.820  0.00  0.00    -0.311 N 
ATOM      4  C   UNL     1      36.727 -20.191 -20.422  0.00  0.00    -0.055 C 
ATOM      5  C   UNL     1      34.444 -20.885 -20.142  0.00  0.00    -0.055 C 
ATOM      6  C   UNL     1      36.296 -18.951 -21.209  0.00  0.00    +0.068 C 
ATOM      7  C   UNL     1      33.936 -19.669 -20.922  0.00  0.00    +0.068 C 
ATOM      8  H   UNL     1      35.542 -19.803 -18.808  0.00  0.00    -0.080 HD
BRANCH   3  11
ATOM      9 CL   UNL     1      34.766 -16.209 -21.275  0.00  0.00    -0.080 Cl
ATOM     10 CL   UNL     1      33.941 -14.475 -23.848  0.00  0.00    -0.081 Cl
ATOM     11  C   UNL     1      34.623 -18.361 -22.911  0.00  0.00    +0.059 C 
ATOM     12  C   UNL     1      34.481 -16.960 -22.814  0.00  0.00    +0.081 C 
ATOM     13  C   UNL     1      34.391 -18.960 -24.167  0.00  0.00    +0.015 C 
ATOM     14  C   UNL     1      34.124 -16.193 -23.925  0.00  0.00    +0.069 C 
ATOM     15  C   UNL     1      34.035 -18.194 -25.276  0.00  0.00    +0.002 C 
ATOM     16  C   UNL     1      33.901 -16.810 -25.155  0.00  0.00    +0.012 C 
ENDBRANCH   3  11
ENDBRANCH   1   2
BRANCH   1  17
ATOM     17  C   UNL     1      36.606 -21.286 -17.279  0.00  0.00    -0.019 C 
BRANCH  17  18
ATOM     18  C   UNL     1      37.260 -22.437 -16.515  0.00  0.00    +0.045 C 
BRANCH  18  19
ATOM     19  C   UNL     1      36.305 -23.054 -15.502  0.00  0.00    +0.205 C 
BRANCH  19  20
ATOM     20  O   UNL     1      35.351 -23.874 -16.173  0.00  0.00    -0.475 OA
BRANCH  20  26
ATOM     21  O   UNL     1      28.487 -22.373 -17.214  0.00  0.00    -0.275 OA
ATOM     22  N   UNL     1      30.710 -22.814 -16.845  0.00  0.00    -0.284 N 
ATOM     23  C   UNL     1      31.445 -23.791 -14.743  0.00  0.00    -0.008 C 
ATOM     24  C   UNL     1      30.048 -23.653 -14.211  0.00  0.00    +0.037 C 
ATOM     25  C   UNL     1      31.737 -23.328 -16.033  0.00  0.00    +0.049 C 
ATOM     26  C   UNL     1      34.072 -23.846 -15.707  0.00  0.00    +0.140 C 
ATOM     27  C   UNL     1      29.027 -23.761 -15.333  0.00  0.00    +0.090 C 
ATOM     28  C   UNL     1      33.049 -23.346 -16.512  0.00  0.00    +0.051 C 
ATOM     29  C   UNL     1      32.481 -24.278 -13.939  0.00  0.00    +0.000 C 
ATOM     30  C   UNL     1      33.789 -24.314 -14.425  0.00  0.00    +0.037 C 
ATOM     31  C   UNL     1      29.368 -22.890 -16.528  0.00  0.00    +0.226 C 
ATOM     32  H   UNL     1      30.964 -22.374 -17.689  0.00  0.00    +0.155 HD
ENDBRANCH  20  26
ENDBRANCH  19  20
ENDBRANCH  18  19
ENDBRANCH  17  18
ENDBRANCH   1  17
TORSDOF 7
ENDMDL
MODEL 2
REMARK VINA RESULT:     -11.7      1.168      1.793
REMARK  Name = 60795
REMARK  7 active torsions:
REMARK  status: ('A' for Active; 'I' for Inactive)
REMARK    1  A    between atoms: C_1  and  N_2
REMARK    2  A    between atoms: C_1  and  C_17
REMARK    3  A    between atoms: N_3  and  C_11
REMARK    4  A    between atoms: C_17  and  C_18
REMARK    5  A    between atoms: C_18  and  C_19
REMARK    6  A    between atoms: C_19  and  O_20
REMARK    7  A    between atoms: O_20  and  C_26
REMARK                            x       y       z     vdW  Elec       q    Type
REMARK                         _______ _______ _______ _____ _____    ______ ____
ROOT
ATOM      1  C   UNL     1      35.530 -21.875 -19.075  0.00  0.00    -0.077 C 
ENDROOT
BRANCH   1   2
ATOM      2  N   UNL     1      35.364 -20.988 -20.226  0.00  0.00    +0.389 N 
ATOM      3  N   UNL     1      34.870 -18.510 -21.560  0.00  0.00    -0.311 N 
ATOM      4  C   UNL     1      34.016 -20.407 -20.238  0.00  0.00    -0.055 C 
ATOM      5  C   UNL     1      36.369 -19.918 -20.202  0.00  0.00    -0.055 C 
ATOM      6  C   UNL     1      33.810 -19.522 -21.469  0.00  0.00    +0.068 C 
ATOM      7  C   UNL     1      36.241 -19.015 -21.431  0.00  0.00    +0.068 C 
ATOM      8  H   UNL     1      35.493 -21.540 -21.074  0.00  0.00    -0.080 HD
BRANCH   3  11
ATOM      9 CL   UNL     1      34.302 -18.964 -24.481  0.00  0.00    -0.080 Cl
ATOM     10 CL   UNL     1      33.753 -16.262 -26.125  0.00  0.00    -0.081 Cl
ATOM     11  C   UNL     1      34.622 -17.363 -22.321  0.00  0.00    +0.059 C 
ATOM     12  C   UNL     1      34.342 -17.411 -23.704  0.00  0.00    +0.081 C 
ATOM     13  C   UNL     1      34.650 -16.097 -21.699  0.00  0.00    +0.015 C 
ATOM     14  C   UNL     1      34.101 -16.245 -24.431  0.00  0.00    +0.069 C 
ATOM     15  C   UNL     1      34.408 -14.932 -22.427  0.00  0.00    +0.002 C 
ATOM     16  C   UNL     1      34.134 -15.006 -23.792  0.00  0.00    +0.012 C 
ENDBRANCH   3  11
ENDBRANCH   1   2
BRANCH   1  17
ATOM     17  C   UNL     1      36.413 -21.213 -18.019  0.00  0.00    -0.019 C 
BRANCH  17  18
ATOM     18  C   UNL     1      36.957 -22.243 -17.029  0.00  0.00    +0.045 C 
BRANCH  18  19
ATOM     19  C   UNL     1      35.943 -22.566 -15.939  0.00  0.00    +0.205 C 
BRANCH  19  20
ATOM     20  O   UNL     1      35.156 -23.689 -16.329  0.00  0.00    -0.475 OA
BRANCH  20  26
ATOM     21  O   UNL     1      28.226 -22.409 -17.215  0.00  0.00    -0.275 OA
ATOM     22  N   UNL     1      30.469 -22.781 -16.894  0.00  0.00    -0.284 N 
ATOM     23  C   UNL     1      31.264 -23.872 -14.871  0.00  0.00    -0.008 C 
ATOM     24  C   UNL     1      29.867 -23.831 -14.321  0.00  0.00    +0.037 C 
ATOM     25  C   UNL     1      31.524 -23.308 -16.127  0.00  0.00    +0.049 C 
ATOM     26  C   UNL     1      33.882 -23.748 -15.854  0.00  0.00    +0.140 C 
ATOM     27  C   UNL     1      28.841 -23.902 -15.442  0.00  0.00    +0.090 C 
ATOM     28  C   UNL     1      32.831 -23.236 -16.615  0.00  0.00    +0.051 C 
ATOM     29  C   UNL     1      32.327 -24.370 -14.110  0.00  0.00    +0.000 C 
ATOM     30  C   UNL     1      33.631 -24.317 -14.606  0.00  0.00    +0.037 C 
ATOM     31  C   UNL     1      29.135 -22.936 -16.574  0.00  0.00    +0.226 C 
ATOM     32  H   UNL     1      30.696 -22.273 -17.706  0.00  0.00    +0.155 HD
ENDBRANCH  20  26
ENDBRANCH  19  20
ENDBRANCH  18  19
ENDBRANCH  17  18
ENDBRANCH   1  17
TORSDOF 7
ENDMDL
MODEL 3
REMARK VINA RESULT:     -11.6      2.464      4.500
REMARK  Name = 60795
REMARK  7 active torsions:
REMARK  status: ('A' for Active; 'I' for Inactive)
REMARK    1  A    between atoms: C_1  and  N_2
REMARK    2  A    between atoms: C_1  and  C_17
REMARK    3  A    between atoms: N_3  and  C_11
REMARK    4  A    between atoms: C_17  and  C_18
REMARK    5  A    between atoms: C_18  and  C_19
REMARK    6  A    between atoms: C_19  and  O_20
REMARK    7  A    between atoms: O_20  and  C_26
REMARK                            x       y       z     vdW  Elec       q    Type
REMARK                         _______ _______ _______ _____ _____    ______ ____
ROOT
ATOM      1  C   UNL     1      35.305 -21.091 -19.529  0.00  0.00    -0.077 C 
ENDROOT
BRANCH   1   2
ATOM      2  N   UNL     1      35.147 -20.370 -20.791  0.00  0.00    +0.389 N 
ATOM      3  N   UNL     1      34.578 -18.118 -22.455  0.00  0.00    -0.311 N 
ATOM      4  C   UNL     1      33.770 -19.884 -20.937  0.00  0.00    -0.055 C 
ATOM      5  C   UNL     1      36.085 -19.243 -20.862  0.00  0.00    -0.055 C 
ATOM      6  C   UNL     1      33.576 -19.177 -22.280  0.00  0.00    +0.068 C 
ATOM      7  C   UNL     1      35.968 -18.513 -22.202  0.00  0.00    +0.068 C 
ATOM      8  H   UNL     1      35.351 -21.016 -21.553  0.00  0.00    -0.080 HD
BRANCH   3  11
ATOM      9 CL   UNL     1      34.567 -15.323 -21.339  0.00  0.00    -0.080 Cl
ATOM     10 CL   UNL     1      33.920 -13.062 -23.524  0.00  0.00    -0.081 Cl
ATOM     11  C   UNL     1      34.303 -17.095 -23.368  0.00  0.00    +0.059 C 
ATOM     12  C   UNL     1      34.260 -15.734 -22.998  0.00  0.00    +0.081 C 
ATOM     13  C   UNL     1      34.055 -17.417 -24.719  0.00  0.00    +0.015 C 
ATOM     14  C   UNL     1      33.981 -14.740 -23.937  0.00  0.00    +0.069 C 
ATOM     15  C   UNL     1      33.777 -16.424 -25.657  0.00  0.00    +0.002 C 
ATOM     16  C   UNL     1      33.740 -15.085 -25.267  0.00  0.00    +0.012 C 
ENDBRANCH   3  11
ENDBRANCH   1   2
BRANCH   1  17
ATOM     17  C   UNL     1      34.581 -22.434 -19.590  0.00  0.00    -0.019 C 
BRANCH  17  18
ATOM     18  C   UNL     1      33.250 -22.380 -18.840  0.00  0.00    +0.045 C 
BRANCH  18  19
ATOM     19  C   UNL     1      33.216 -23.367 -17.682  0.00  0.00    +0.205 C 
BRANCH  19  20
ATOM     20  O   UNL     1      33.604 -22.712 -16.476  0.00  0.00    -0.475 OA
BRANCH  20  26
ATOM     21  O   UNL     1      36.685 -26.806 -11.557  0.00  0.00    -0.275 OA
ATOM     22  N   UNL     1      35.699 -25.439 -13.116  0.00  0.00    -0.284 N 
ATOM     23  C   UNL     1      37.060 -24.080 -14.606  0.00  0.00    -0.008 C 
ATOM     24  C   UNL     1      38.284 -24.506 -13.848  0.00  0.00    +0.037 C 
ATOM     25  C   UNL     1      35.801 -24.532 -14.187  0.00  0.00    +0.049 C 
ATOM     26  C   UNL     1      34.734 -23.161 -15.863  0.00  0.00    +0.140 C 
ATOM     27  C   UNL     1      38.103 -25.900 -13.266  0.00  0.00    +0.090 C 
ATOM     28  C   UNL     1      34.638 -24.067 -14.806  0.00  0.00    +0.051 C 
ATOM     29  C   UNL     1      37.143 -23.162 -15.657  0.00  0.00    +0.000 C 
ATOM     30  C   UNL     1      35.982 -22.711 -16.290  0.00  0.00    +0.037 C 
ATOM     31  C   UNL     1      36.783 -26.071 -12.539  0.00  0.00    +0.226 C 
ATOM     32  H   UNL     1      34.803 -25.633 -12.758  0.00  0.00    +0.155 HD
ENDBRANCH  20  26
ENDBRANCH  19  20
ENDBRANCH  18  19
ENDBRANCH  17  18
ENDBRANCH   1  17
TORSDOF 7
ENDMDL
MODEL 4
REMARK VINA RESULT:     -11.4      4.455      8.146
REMARK  Name = 60795
REMARK  7 active torsions:
REMARK  status: ('A' for Active; 'I' for Inactive)
REMARK    1  A    between atoms: C_1  and  N_2
REMARK    2  A    between atoms: C_1  and  C_17
REMARK    3  A    between atoms: N_3  and  C_11
REMARK    4  A    between atoms: C_17  and  C_18
REMARK    5  A    between atoms: C_18  and  C_19
REMARK    6  A    between atoms: C_19  and  O_20
REMARK    7  A    between atoms: O_20  and  C_26
REMARK                            x       y       z     vdW  Elec       q    Type
REMARK                         _______ _______ _______ _____ _____    ______ ____
ROOT
ATOM      1  C   UNL     1      32.398 -16.304 -26.802  0.00  0.00    -0.077 C 
ENDROOT
BRANCH   1   2
ATOM      2  N   UNL     1      32.406 -14.973 -26.197  0.00  0.00    +0.389 N 
ATOM      3  N   UNL     1      33.527 -12.452 -25.454  0.00  0.00    -0.311 N 
ATOM      4  C   UNL     1      33.422 -14.894 -25.140  0.00  0.00    -0.055 C 
ATOM      5  C   UNL     1      32.662 -13.946 -27.213  0.00  0.00    -0.055 C 
ATOM      6  C   UNL     1      33.401 -13.524 -24.459  0.00  0.00    +0.068 C 
ATOM      7  C   UNL     1      32.618 -12.542 -26.602  0.00  0.00    +0.068 C 
ATOM      8  H   UNL     1      31.488 -14.806 -25.785  0.00  0.00    -0.080 HD
BRANCH   3  11
ATOM      9 CL   UNL     1      31.959 -11.202 -23.210  0.00  0.00    -0.080 Cl
ATOM     10 CL   UNL     1      33.068  -8.330 -22.301  0.00  0.00    -0.081 Cl
ATOM     11  C   UNL     1      33.972 -11.199 -25.020  0.00  0.00    +0.059 C 
ATOM     12  C   UNL     1      33.341 -10.485 -23.979  0.00  0.00    +0.081 C 
ATOM     13  C   UNL     1      35.095 -10.608 -25.636  0.00  0.00    +0.015 C 
ATOM     14  C   UNL     1      33.812  -9.235 -23.573  0.00  0.00    +0.069 C 
ATOM     15  C   UNL     1      35.566  -9.360 -25.230  0.00  0.00    +0.002 C 
ATOM     16  C   UNL     1      34.925  -8.674 -24.198  0.00  0.00    +0.012 C 
ENDBRANCH   3  11
ENDBRANCH   1   2
BRANCH   1  17
ATOM     17  C   UNL     1      31.835 -17.330 -25.821  0.00  0.00    -0.019 C 
BRANCH  17  18
ATOM     18  C   UNL     1      32.695 -18.593 -25.788  0.00  0.00    +0.045 C 
BRANCH  18  19
ATOM     19  C   UNL     1      33.948 -18.398 -24.945  0.00  0.00    +0.205 C 
BRANCH  19  20
ATOM     20  O   UNL     1      33.585 -18.008 -23.622  0.00  0.00    -0.475 OA
BRANCH  20  26
ATOM     21  O   UNL     1      32.174 -22.452 -18.263  0.00  0.00    -0.275 OA
ATOM     22  N   UNL     1      32.641 -20.976 -19.960  0.00  0.00    -0.284 N 
ATOM     23  C   UNL     1      34.942 -20.407 -20.505  0.00  0.00    -0.008 C 
ATOM     24  C   UNL     1      35.401 -21.193 -19.311  0.00  0.00    +0.037 C 
ATOM     25  C   UNL     1      33.570 -20.293 -20.765  0.00  0.00    +0.049 C 
ATOM     26  C   UNL     1      34.027 -18.794 -22.601  0.00  0.00    +0.140 C 
ATOM     27  C   UNL     1      34.448 -22.342 -19.019  0.00  0.00    +0.090 C 
ATOM     28  C   UNL     1      33.111 -19.480 -21.805  0.00  0.00    +0.051 C 
ATOM     29  C   UNL     1      35.851 -19.703 -21.301  0.00  0.00    +0.000 C 
ATOM     30  C   UNL     1      35.394 -18.906 -22.352  0.00  0.00    +0.037 C 
ATOM     31  C   UNL     1      32.992 -21.916 -19.010  0.00  0.00    +0.226 C 
ATOM     32  H   UNL     1      31.685 -20.772 -20.080  0.00  0.00    +0.155 HD
ENDBRANCH  20  26
ENDBRANCH  19  20
ENDBRANCH  18  19
ENDBRANCH  17  18
ENDBRANCH   1  17
TORSDOF 7
ENDMDL
MODEL 5
REMARK VINA RESULT:     -11.4      2.676      4.940
REMARK  Name = 60795
REMARK  7 active torsions:
REMARK  status: ('A' for Active; 'I' for Inactive)
REMARK    1  A    between atoms: C_1  and  N_2
REMARK    2  A    between atoms: C_1  and  C_17
REMARK    3  A    between atoms: N_3  and  C_11
REMARK    4  A    between atoms: C_17  and  C_18
REMARK    5  A    between atoms: C_18  and  C_19
REMARK    6  A    between atoms: C_19  and  O_20
REMARK    7  A    between atoms: O_20  and  C_26
REMARK                            x       y       z     vdW  Elec       q    Type
REMARK                         _______ _______ _______ _____ _____    ______ ____
ROOT
ATOM      1  C   UNL     1      34.417 -22.390 -18.691  0.00  0.00    -0.077 C 
ENDROOT
BRANCH   1   2
ATOM      2  N   UNL     1      34.483 -21.501 -19.850  0.00  0.00    +0.389 N 
ATOM      3  N   UNL     1      34.549 -18.989 -21.211  0.00  0.00    -0.311 N 
ATOM      4  C   UNL     1      33.277 -20.667 -19.929  0.00  0.00    -0.055 C 
ATOM      5  C   UNL     1      35.676 -20.649 -19.779  0.00  0.00    -0.055 C 
ATOM      6  C   UNL     1      33.308 -19.773 -21.170  0.00  0.00    +0.068 C 
ATOM      7  C   UNL     1      35.787 -19.751 -21.015  0.00  0.00    +0.068 C 
ATOM      8  H   UNL     1      34.540 -22.077 -20.690  0.00  0.00    -0.080 HD
BRANCH   3  11
ATOM      9 CL   UNL     1      34.480 -19.388 -24.193  0.00  0.00    -0.080 Cl
ATOM     10 CL   UNL     1      34.531 -16.648 -25.865  0.00  0.00    -0.081 Cl
ATOM     11  C   UNL     1      34.568 -17.824 -21.985  0.00  0.00    +0.059 C 
ATOM     12  C   UNL     1      34.542 -17.846 -23.396  0.00  0.00    +0.081 C 
ATOM     13  C   UNL     1      34.616 -16.567 -21.348  0.00  0.00    +0.015 C 
ATOM     14  C   UNL     1      34.563 -16.663 -24.136  0.00  0.00    +0.069 C 
ATOM     15  C   UNL     1      34.637 -15.384 -22.087  0.00  0.00    +0.002 C 
ATOM     16  C   UNL     1      34.610 -15.433 -23.481  0.00  0.00    +0.012 C 
ENDBRANCH   3  11
ENDBRANCH   1   2
BRANCH   1  17
ATOM     17  C   UNL     1      32.990 -22.451 -18.151  0.00  0.00    -0.019 C 
BRANCH  17  18
ATOM     18  C   UNL     1      32.786 -23.680 -17.265  0.00  0.00    +0.045 C 
BRANCH  18  19
ATOM     19  C   UNL     1      32.698 -23.303 -15.792  0.00  0.00    +0.205 C 
BRANCH  19  20
ATOM     20  O   UNL     1      32.954 -24.450 -14.983  0.00  0.00    -0.475 OA
BRANCH  20  26
ATOM     21  O   UNL     1      39.695 -26.687 -15.049  0.00  0.00    -0.275 OA
ATOM     22  N   UNL     1      37.504 -26.002 -14.991  0.00  0.00    -0.284 N 
ATOM     23  C   UNL     1      36.674 -24.670 -13.133  0.00  0.00    -0.008 C 
ATOM     24  C   UNL     1      37.991 -24.853 -12.436  0.00  0.00    +0.037 C 
ATOM     25  C   UNL     1      36.462 -25.287 -14.373  0.00  0.00    +0.049 C 
ATOM     26  C   UNL     1      34.172 -24.523 -14.379  0.00  0.00    +0.140 C 
ATOM     27  C   UNL     1      39.121 -24.999 -13.444  0.00  0.00    +0.090 C 
ATOM     28  C   UNL     1      35.211 -25.223 -14.992  0.00  0.00    +0.051 C 
ATOM     29  C   UNL     1      35.621 -23.982 -12.521  0.00  0.00    +0.000 C 
ATOM     30  C   UNL     1      34.376 -23.902 -13.148  0.00  0.00    +0.037 C 
ATOM     31  C   UNL     1      38.809 -25.999 -14.541  0.00  0.00    +0.226 C 
ATOM     32  H   UNL     1      37.289 -26.535 -15.791  0.00  0.00    +0.155 HD
ENDBRANCH  20  26
ENDBRANCH  19  20
ENDBRANCH  18  19
ENDBRANCH  17  18
ENDBRANCH   1  17
TORSDOF 7
ENDMDL
MODEL 6
REMARK VINA RESULT:     -11.4      5.598     12.003
REMARK  Name = 60795
REMARK  7 active torsions:
REMARK  status: ('A' for Active; 'I' for Inactive)
REMARK    1  A    between atoms: C_1  and  N_2
REMARK    2  A    between atoms: C_1  and  C_17
REMARK    3  A    between atoms: N_3  and  C_11
REMARK    4  A    between atoms: C_17  and  C_18
REMARK    5  A    between atoms: C_18  and  C_19
REMARK    6  A    between atoms: C_19  and  O_20
REMARK    7  A    between atoms: O_20  and  C_26
REMARK                            x       y       z     vdW  Elec       q    Type
REMARK                         _______ _______ _______ _____ _____    ______ ____
ROOT
ATOM      1  C   UNL     1      34.144 -16.113 -24.804  0.00  0.00    -0.077 C 
ENDROOT
BRANCH   1   2
ATOM      2  N   UNL     1      34.740 -17.113 -23.919  0.00  0.00    +0.389 N 
ATOM      3  N   UNL     1      34.770 -19.049 -21.818  0.00  0.00    -0.311 N 
ATOM      4  C   UNL     1      34.631 -16.690 -22.517  0.00  0.00    -0.055 C 
ATOM      5  C   UNL     1      34.087 -18.415 -24.099  0.00  0.00    -0.055 C 
ATOM      6  C   UNL     1      35.301 -17.700 -21.584  0.00  0.00    +0.068 C 
ATOM      7  C   UNL     1      34.739 -19.485 -23.218  0.00  0.00    +0.068 C 
ATOM      8  H   UNL     1      35.726 -17.203 -24.159  0.00  0.00    -0.080 HD
BRANCH   3  11
ATOM      9 CL   UNL     1      32.215 -20.235 -20.758  0.00  0.00    -0.080 Cl
ATOM     10 CL   UNL     1      32.662 -22.394 -18.425  0.00  0.00    -0.081 Cl
ATOM     11  C   UNL     1      34.911 -19.998 -20.800  0.00  0.00    +0.059 C 
ATOM     12  C   UNL     1      33.808 -20.642 -20.200  0.00  0.00    +0.081 C 
ATOM     13  C   UNL     1      36.201 -20.338 -20.340  0.00  0.00    +0.015 C 
ATOM     14  C   UNL     1      33.987 -21.583 -19.185  0.00  0.00    +0.069 C 
ATOM     15  C   UNL     1      36.380 -21.279 -19.327  0.00  0.00    +0.002 C 
ATOM     16  C   UNL     1      35.273 -21.902 -18.749  0.00  0.00    +0.012 C 
ENDBRANCH   3  11
ENDBRANCH   1   2
BRANCH   1  17
ATOM     17  C   UNL     1      33.833 -16.729 -26.167  0.00  0.00    -0.019 C 
BRANCH  17  18
ATOM     18  C   UNL     1      32.457 -16.293 -26.669  0.00  0.00    +0.045 C 
BRANCH  18  19
ATOM     19  C   UNL     1      32.561 -15.163 -27.685  0.00  0.00    +0.205 C 
BRANCH  19  20
ATOM     20  O   UNL     1      31.933 -13.991 -27.169  0.00  0.00    -0.475 OA
BRANCH  20  26
ATOM     21  O   UNL     1      33.658  -8.581 -22.901  0.00  0.00    -0.275 OA
ATOM     22  N   UNL     1      33.080 -10.295 -24.317  0.00  0.00    -0.284 N 
ATOM     23  C   UNL     1      34.398 -10.751 -26.309  0.00  0.00    -0.008 C 
ATOM     24  C   UNL     1      35.207  -9.516 -26.035  0.00  0.00    +0.037 C 
ATOM     25  C   UNL     1      33.333 -11.076 -25.458  0.00  0.00    +0.049 C 
ATOM     26  C   UNL     1      32.739 -12.930 -26.886  0.00  0.00    +0.140 C 
ATOM     27  C   UNL     1      35.281  -9.237 -24.542  0.00  0.00    +0.090 C 
ATOM     28  C   UNL     1      32.497 -12.158 -25.750  0.00  0.00    +0.051 C 
ATOM     29  C   UNL     1      34.622 -11.525 -27.452  0.00  0.00    +0.000 C 
ATOM     30  C   UNL     1      33.800 -12.617 -27.734  0.00  0.00    +0.037 C 
ATOM     31  C   UNL     1      33.928  -9.305 -23.860  0.00  0.00    +0.226 C 
ATOM     32  H   UNL     1      32.249 -10.464 -23.814  0.00  0.00    +0.155 HD
ENDBRANCH  20  26
ENDBRANCH  19  20
ENDBRANCH  18  19
ENDBRANCH  17  18
ENDBRANCH   1  17
TORSDOF 7
ENDMDL
MODEL 7
REMARK VINA RESULT:     -11.2      6.024      8.972
REMARK  Name = 60795
REMARK  7 active torsions:
REMARK  status: ('A' for Active; 'I' for Inactive)
REMARK    1  A    between atoms: C_1  and  N_2
REMARK    2  A    between atoms: C_1  and  C_17
REMARK    3  A    between atoms: N_3  and  C_11
REMARK    4  A    between atoms: C_17  and  C_18
REMARK    5  A    between atoms: C_18  and  C_19
REMARK    6  A    between atoms: C_19  and  O_20
REMARK    7  A    between atoms: O_20  and  C_26
REMARK                            x       y       z     vdW  Elec       q    Type
REMARK                         _______ _______ _______ _____ _____    ______ ____
ROOT
ATOM      1  C   UNL     1      33.343 -13.971 -23.546  0.00  0.00    -0.077 C 
ENDROOT
BRANCH   1   2
ATOM      2  N   UNL     1      32.575 -12.729 -23.484  0.00  0.00    +0.389 N 
ATOM      3  N   UNL     1      31.988 -10.065 -22.635  0.00  0.00    -0.311 N 
ATOM      4  C   UNL     1      32.127 -12.469 -22.110  0.00  0.00    -0.055 C 
ATOM      5  C   UNL     1      33.378 -11.601 -23.970  0.00  0.00    -0.055 C 
ATOM      6  C   UNL     1      31.273 -11.202 -22.041  0.00  0.00    +0.068 C 
ATOM      7  C   UNL     1      32.566 -10.303 -23.962  0.00  0.00    +0.068 C 
ATOM      8  H   UNL     1      31.756 -12.831 -24.083  0.00  0.00    -0.080 HD
BRANCH   3  11
ATOM      9 CL   UNL     1      32.411  -9.310 -19.752  0.00  0.00    -0.080 Cl
ATOM     10 CL   UNL     1      31.451  -6.330 -19.043  0.00  0.00    -0.081 Cl
ATOM     11  C   UNL     1      31.587  -8.774 -22.275  0.00  0.00    +0.059 C 
ATOM     12  C   UNL     1      31.719  -8.273 -20.962  0.00  0.00    +0.081 C 
ATOM     13  C   UNL     1      31.026  -7.923 -23.250  0.00  0.00    +0.015 C 
ATOM     14  C   UNL     1      31.306  -6.980 -20.639  0.00  0.00    +0.069 C 
ATOM     15  C   UNL     1      30.614  -6.630 -22.927  0.00  0.00    +0.002 C 
ATOM     16  C   UNL     1      30.755  -6.158 -21.622  0.00  0.00    +0.012 C 
ENDBRANCH   3  11
ENDBRANCH   1   2
BRANCH   1  17
ATOM     17  C   UNL     1      34.241 -14.102 -22.317  0.00  0.00    -0.019 C 
BRANCH  17  18
ATOM     18  C   UNL     1      34.519 -15.569 -21.989  0.00  0.00    +0.045 C 
BRANCH  18  19
ATOM     19  C   UNL     1      34.989 -16.340 -23.215  0.00  0.00    +0.205 C 
BRANCH  19  20
ATOM     20  O   UNL     1      34.311 -17.592 -23.288  0.00  0.00    -0.475 OA
BRANCH  20  26
ATOM     21  O   UNL     1      32.050 -22.335 -18.509  0.00  0.00    -0.275 OA
ATOM     22  N   UNL     1      32.792 -20.767 -20.014  0.00  0.00    -0.284 N 
ATOM     23  C   UNL     1      35.173 -20.384 -20.327  0.00  0.00    -0.008 C 
ATOM     24  C   UNL     1      35.455 -21.316 -19.184  0.00  0.00    +0.037 C 
ATOM     25  C   UNL     1      33.844 -20.111 -20.677  0.00  0.00    +0.049 C 
ATOM     26  C   UNL     1      34.591 -18.506 -22.319  0.00  0.00    +0.140 C 
ATOM     27  C   UNL     1      34.379 -22.386 -19.078  0.00  0.00    +0.090 C 
ATOM     28  C   UNL     1      33.551 -19.166 -21.664  0.00  0.00    +0.051 C 
ATOM     29  C   UNL     1      36.207 -19.707 -20.980  0.00  0.00    +0.000 C 
ATOM     30  C   UNL     1      35.916 -18.777 -21.980  0.00  0.00    +0.037 C 
ATOM     31  C   UNL     1      32.974 -21.818 -19.136  0.00  0.00    +0.226 C 
ATOM     32  H   UNL     1      31.872 -20.459 -20.185  0.00  0.00    +0.155 HD
ENDBRANCH  20  26
ENDBRANCH  19  20
ENDBRANCH  18  19
ENDBRANCH  17  18
ENDBRANCH   1  17
TORSDOF 7
ENDMDL
MODEL 8
REMARK VINA RESULT:     -11.1      1.931      3.407
REMARK  Name = 60795
REMARK  7 active torsions:
REMARK  status: ('A' for Active; 'I' for Inactive)
REMARK    1  A    between atoms: C_1  and  N_2
REMARK    2  A    between atoms: C_1  and  C_17
REMARK    3  A    between atoms: N_3  and  C_11
REMARK    4  A    between atoms: C_17  and  C_18
REMARK    5  A    between atoms: C_18  and  C_19
REMARK    6  A    between atoms: C_19  and  O_20
REMARK    7  A    between atoms: O_20  and  C_26
REMARK                            x       y       z     vdW  Elec       q    Type
REMARK                         _______ _______ _______ _____ _____    ______ ____
ROOT
ATOM      1  C   UNL     1      35.279 -18.591 -21.030  0.00  0.00    -0.077 C 
ENDROOT
BRANCH   1   2
ATOM      2  N   UNL     1      35.161 -17.900 -22.313  0.00  0.00    +0.389 N 
ATOM      3  N   UNL     1      33.863 -16.346 -24.328  0.00  0.00    -0.311 N 
ATOM      4  C   UNL     1      34.074 -18.479 -23.112  0.00  0.00    -0.055 C 
ATOM      5  C   UNL     1      34.920 -16.467 -22.106  0.00  0.00    -0.055 C 
ATOM      6  C   UNL     1      33.977 -17.802 -24.480  0.00  0.00    +0.068 C 
ATOM      7  C   UNL     1      34.849 -15.721 -23.442  0.00  0.00    +0.068 C 
ATOM      8  H   UNL     1      36.039 -18.015 -22.818  0.00  0.00    -0.080 HD
BRANCH   3  11
ATOM      9 CL   UNL     1      33.714 -13.365 -23.934  0.00  0.00    -0.080 Cl
ATOM     10 CL   UNL     1      32.459 -11.791 -26.434  0.00  0.00    -0.081 Cl
ATOM     11  C   UNL     1      33.324 -15.613 -25.391  0.00  0.00    +0.059 C 
ATOM     12  C   UNL     1      33.187 -14.208 -25.357  0.00  0.00    +0.081 C 
ATOM     13  C   UNL     1      32.895 -16.287 -26.553  0.00  0.00    +0.015 C 
ATOM     14  C   UNL     1      32.643 -13.511 -26.437  0.00  0.00    +0.069 C 
ATOM     15  C   UNL     1      32.353 -15.590 -27.633  0.00  0.00    +0.002 C 
ATOM     16  C   UNL     1      32.227 -14.202 -27.575  0.00  0.00    +0.012 C 
ENDBRANCH   3  11
ENDBRANCH   1   2
BRANCH   1  17
ATOM     17  C   UNL     1      34.326 -19.783 -20.980  0.00  0.00    -0.019 C 
BRANCH  17  18
ATOM     18  C   UNL     1      34.916 -20.929 -20.158  0.00  0.00    +0.045 C 
BRANCH  18  19
ATOM     19  C   UNL     1      33.827 -21.803 -19.549  0.00  0.00    +0.205 C 
BRANCH  19  20
ATOM     20  O   UNL     1      34.375 -22.593 -18.496  0.00  0.00    -0.475 OA
BRANCH  20  26
ATOM     21  O   UNL     1      27.806 -23.151 -15.851  0.00  0.00    -0.275 OA
ATOM     22  N   UNL     1      29.937 -22.925 -16.677  0.00  0.00    -0.284 N 
ATOM     23  C   UNL     1      31.861 -23.520 -15.312  0.00  0.00    -0.008 C 
ATOM     24  C   UNL     1      30.942 -23.746 -14.147  0.00  0.00    +0.037 C 
ATOM     25  C   UNL     1      31.327 -23.077 -16.531  0.00  0.00    +0.049 C 
ATOM     26  C   UNL     1      33.550 -22.896 -17.455  0.00  0.00    +0.140 C 
ATOM     27  C   UNL     1      29.571 -24.208 -14.618  0.00  0.00    +0.090 C 
ATOM     28  C   UNL     1      32.170 -22.756 -17.598  0.00  0.00    +0.051 C 
ATOM     29  C   UNL     1      33.247 -23.644 -15.176  0.00  0.00    +0.000 C 
ATOM     30  C   UNL     1      34.088 -23.341 -16.249  0.00  0.00    +0.037 C 
ATOM     31  C   UNL     1      29.015 -23.355 -15.743  0.00  0.00    +0.226 C 
ATOM     32  H   UNL     1      29.602 -22.487 -17.493  0.00  0.00    +0.155 HD
ENDBRANCH  20  26
ENDBRANCH  19  20
ENDBRANCH  18  19
ENDBRANCH  17  18
ENDBRANCH   1  17
TORSDOF 7
ENDMDL
MODEL 9
REMARK VINA RESULT:     -11.1      6.114     10.782
REMARK  Name = 60795
REMARK  7 active torsions:
REMARK  status: ('A' for Active; 'I' for Inactive)
REMARK    1  A    between atoms: C_1  and  N_2
REMARK    2  A    between atoms: C_1  and  C_17
REMARK    3  A    between atoms: N_3  and  C_11
REMARK    4  A    between atoms: C_17  and  C_18
REMARK    5  A    between atoms: C_18  and  C_19
REMARK    6  A    between atoms: C_19  and  O_20
REMARK    7  A    between atoms: O_20  and  C_26
REMARK                            x       y       z     vdW  Elec       q    Type
REMARK                         _______ _______ _______ _____ _____    ______ ____
ROOT
ATOM      1  C   UNL     1      33.294 -12.294 -27.543  0.00  0.00    -0.077 C 
ENDROOT
BRANCH   1   2
ATOM      2  N   UNL     1      33.514 -11.485 -26.346  0.00  0.00    +0.389 N 
ATOM      3  N   UNL     1      32.796 -10.206 -23.894  0.00  0.00    -0.311 N 
ATOM      4  C   UNL     1      32.635 -10.308 -26.351  0.00  0.00    -0.055 C 
ATOM      5  C   UNL     1      33.277 -12.280 -25.135  0.00  0.00    -0.055 C 
ATOM      6  C   UNL     1      32.896  -9.422 -25.131  0.00  0.00    +0.068 C 
ATOM      7  C   UNL     1      33.558 -11.459 -23.873  0.00  0.00    +0.068 C 
ATOM      8  H   UNL     1      34.484 -11.171 -26.348  0.00  0.00    -0.080 HD
BRANCH   3  11
ATOM      9 CL   UNL     1      31.076 -11.635 -21.878  0.00  0.00    -0.080 Cl
ATOM     10 CL   UNL     1      30.593  -9.966 -19.178  0.00  0.00    -0.081 Cl
ATOM     11  C   UNL     1      32.557  -9.521 -22.698  0.00  0.00    +0.059 C 
ATOM     12  C   UNL     1      31.769 -10.058 -21.656  0.00  0.00    +0.081 C 
ATOM     13  C   UNL     1      33.116  -8.241 -22.506  0.00  0.00    +0.015 C 
ATOM     14  C   UNL     1      31.550  -9.344 -20.477  0.00  0.00    +0.069 C 
ATOM     15  C   UNL     1      32.898  -7.528 -21.327  0.00  0.00    +0.002 C 
ATOM     16  C   UNL     1      32.116  -8.079 -20.313  0.00  0.00    +0.012 C 
ENDBRANCH   3  11
ENDBRANCH   1   2
BRANCH   1  17
ATOM     17  C   UNL     1      33.387 -13.780 -27.204  0.00  0.00    -0.019 C 
BRANCH  17  18
ATOM     18  C   UNL     1      32.141 -14.533 -27.668  0.00  0.00    +0.045 C 
BRANCH  18  19
ATOM     19  C   UNL     1      32.143 -15.978 -27.185  0.00  0.00    +0.205 C 
BRANCH  19  20
ATOM     20  O   UNL     1      33.486 -16.438 -27.044  0.00  0.00    -0.475 OA
BRANCH  20  26
ATOM     21  O   UNL     1      35.101 -16.730 -20.134  0.00  0.00    -0.275 OA
ATOM     22  N   UNL     1      34.631 -16.648 -22.380  0.00  0.00    -0.284 N 
ATOM     23  C   UNL     1      34.369 -18.697 -23.664  0.00  0.00    -0.008 C 
ATOM     24  C   UNL     1      34.794 -19.486 -22.459  0.00  0.00    +0.037 C 
ATOM     25  C   UNL     1      34.341 -17.298 -23.593  0.00  0.00    +0.049 C 
ATOM     26  C   UNL     1      33.775 -17.175 -25.937  0.00  0.00    +0.140 C 
ATOM     27  C   UNL     1      34.396 -18.772 -21.176  0.00  0.00    +0.090 C 
ATOM     28  C   UNL     1      34.054 -16.536 -24.729  0.00  0.00    +0.051 C 
ATOM     29  C   UNL     1      34.101 -19.327 -24.883  0.00  0.00    +0.000 C 
ATOM     30  C   UNL     1      33.796 -18.567 -26.014  0.00  0.00    +0.037 C 
ATOM     31  C   UNL     1      34.777 -17.304 -21.173  0.00  0.00    +0.226 C 
ATOM     32  H   UNL     1      34.735 -15.669 -22.392  0.00  0.00    +0.155 HD
ENDBRANCH  20  26
ENDBRANCH  19  20
ENDBRANCH  18  19
ENDBRANCH  17  18
ENDBRANCH   1  17
TORSDOF 7
ENDMDL
