MODEL 1
REMARK VINA RESULT:     -13.1      0.000      0.000
REMARK  Name = 9865515
REMARK  6 active torsions:
REMARK  status: ('A' for Active; 'I' for Inactive)
REMARK    1  A    between atoms: C_1  and  C_20
REMARK    2  A    between atoms: C_2  and  C_9
REMARK    3  A    between atoms: N_8  and  C_11
REMARK    4  A    between atoms: C_12  and  N_17
REMARK    5  A    between atoms: C_20  and  N_21
REMARK    6  A    between atoms: C_25  and  C_30
REMARK                            x       y       z     vdW  Elec       q    Type
REMARK                         _______ _______ _______ _____ _____    ______ ____
ROOT
ATOM      1  C   UNL     1      34.495 -19.861 -20.941  0.00  0.00    -0.002 C 
ATOM      2  C   UNL     1      33.453 -21.810 -19.239  0.00  0.00    +0.054 C 
ATOM      3  C   UNL     1      35.353 -20.727 -20.264  0.00  0.00    -0.002 C 
ATOM      4  C   UNL     1      33.115 -19.970 -20.767  0.00  0.00    -0.002 C 
ATOM      5  C   UNL     1      34.833 -21.701 -19.412  0.00  0.00    +0.004 C 
ATOM      6  C   UNL     1      32.594 -20.944 -19.916  0.00  0.00    +0.004 C 
ENDROOT
BRANCH   2   9
ATOM      7  O   UNL     1      33.348 -23.985 -18.418  0.00  0.00    -0.270 OA
ATOM      8  N   UNL     1      31.929 -22.387 -17.449  0.00  0.00    -0.279 N 
ATOM      9  C   UNL     1      32.910 -22.825 -18.349  0.00  0.00    +0.250 C 
ATOM     10  H   UNL     1      31.683 -21.436 -17.513  0.00  0.00    +0.155 HD
BRANCH   8  11
ATOM     11  C   UNL     1      31.246 -23.135 -16.458  0.00  0.00    +0.064 C 
ATOM     12  C   UNL     1      31.940 -23.674 -15.387  0.00  0.00    +0.055 C 
ATOM     13  C   UNL     1      29.878 -23.309 -16.593  0.00  0.00    +0.016 C 
ATOM     14  C   UNL     1      31.246 -24.408 -14.424  0.00  0.00    +0.015 C 
ATOM     15  C   UNL     1      29.185 -24.042 -15.630  0.00  0.00    +0.001 C 
ATOM     16  C   UNL     1      29.869 -24.592 -14.545  0.00  0.00    +0.001 C 
BRANCH  12  17
ATOM     17  N   UNL     1      33.334 -23.499 -15.243  0.00  0.00    -0.356 N 
ATOM     18  H   UNL     1      33.694 -22.629 -14.958  0.00  0.00    +0.142 HD
ATOM     19  H   UNL     1      33.946 -24.249 -15.427  0.00  0.00    +0.142 HD
ENDBRANCH  12  17
ENDBRANCH   8  11
ENDBRANCH   2   9
BRANCH   1  20
ATOM     20  C   UNL     1      35.051 -18.819 -21.853  0.00  0.00    +0.124 C 
BRANCH  20  21
ATOM     21  N   UNL     1      35.070 -17.524 -21.208  0.00  0.00    -0.264 N 
ATOM     22  N   UNL     1      34.249 -16.437 -23.119  0.00  0.00    -0.338 NA
ATOM     23  N   UNL     1      34.743 -15.203 -21.109  0.00  0.00    -0.170 NA
ATOM     24  C   UNL     1      34.675 -16.353 -21.831  0.00  0.00    +0.145 C 
ATOM     25  C   UNL     1      33.873 -15.278 -23.695  0.00  0.00    +0.147 C 
ATOM     26  C   UNL     1      33.902 -14.057 -23.052  0.00  0.00    +0.055 C 
ATOM     27  C   UNL     1      34.351 -14.080 -21.747  0.00  0.00    +0.114 C 
ATOM     28  H   UNL     1      35.380 -17.474 -20.275  0.00  0.00    +0.160 HD
BRANCH  25  30
ATOM     29  N   UNL     1      32.955 -16.792 -26.974  0.00  0.00    -0.242 NA
ATOM     30  C   UNL     1      33.423 -15.389 -25.062  0.00  0.00    +0.050 C 
ATOM     31  C   UNL     1      33.036 -14.264 -25.784  0.00  0.00    +0.006 C 
ATOM     32  C   UNL     1      33.364 -16.618 -25.698  0.00  0.00    +0.101 C 
ATOM     33  C   UNL     1      32.609 -14.402 -27.100  0.00  0.00    +0.021 C 
ATOM     34  C   UNL     1      32.587 -15.677 -27.644  0.00  0.00    +0.099 C 
ENDBRANCH  25  30
ENDBRANCH  20  21
ENDBRANCH   1  20
TORSDOF 6
ENDMDL
MODEL 2
REMARK VINA RESULT:     -12.8      1.345      2.564
REMARK  Name = 9865515
REMARK  6 active torsions:
REMARK  status: ('A' for Active; 'I' for Inactive)
REMARK    1  A    between atoms: C_1  and  C_20
REMARK    2  A    between atoms: C_2  and  C_9
REMARK    3  A    between atoms: N_8  and  C_11
REMARK    4  A    between atoms: C_12  and  N_17
REMARK    5  A    between atoms: C_20  and  N_21
REMARK    6  A    between atoms: C_25  and  C_30
REMARK                            x       y       z     vdW  Elec       q    Type
REMARK                         _______ _______ _______ _____ _____    ______ ____
ROOT
ATOM      1  C   UNL     1      34.411 -20.081 -20.817  0.00  0.00    -0.002 C 
ATOM      2  C   UNL     1      33.459 -21.930 -18.958  0.00  0.00    +0.054 C 
ATOM      3  C   UNL     1      35.305 -20.893 -20.120  0.00  0.00    -0.002 C 
ATOM      4  C   UNL     1      33.041 -20.193 -20.585  0.00  0.00    -0.002 C 
ATOM      5  C   UNL     1      34.830 -21.817 -19.190  0.00  0.00    +0.004 C 
ATOM      6  C   UNL     1      32.565 -21.118 -19.656  0.00  0.00    +0.004 C 
ENDROOT
BRANCH   2   9
ATOM      7  O   UNL     1      33.577 -23.959 -17.826  0.00  0.00    -0.270 OA
ATOM      8  N   UNL     1      31.816 -22.509 -17.278  0.00  0.00    -0.279 N 
ATOM      9  C   UNL     1      32.962 -22.892 -17.986  0.00  0.00    +0.250 C 
ATOM     10  H   UNL     1      31.439 -21.631 -17.516  0.00  0.00    +0.155 HD
BRANCH   8  11
ATOM     11  C   UNL     1      31.128 -23.221 -16.264  0.00  0.00    +0.064 C 
ATOM     12  C   UNL     1      31.745 -23.480 -15.051  0.00  0.00    +0.055 C 
ATOM     13  C   UNL     1      29.834 -23.646 -16.521  0.00  0.00    +0.016 C 
ATOM     14  C   UNL     1      31.048 -24.183 -14.067  0.00  0.00    +0.015 C 
ATOM     15  C   UNL     1      29.138 -24.348 -15.538  0.00  0.00    +0.001 C 
ATOM     16  C   UNL     1      29.745 -24.618 -14.311  0.00  0.00    +0.001 C 
BRANCH  12  17
ATOM     17  N   UNL     1      33.062 -23.049 -14.782  0.00  0.00    -0.356 N 
ATOM     18  H   UNL     1      33.807 -23.691 -14.817  0.00  0.00    +0.142 HD
ATOM     19  H   UNL     1      33.236 -22.105 -14.560  0.00  0.00    +0.142 HD
ENDBRANCH  12  17
ENDBRANCH   8  11
ENDBRANCH   2   9
BRANCH   1  20
ATOM     20  C   UNL     1      34.920 -19.093 -21.813  0.00  0.00    +0.124 C 
BRANCH  20  21
ATOM     21  N   UNL     1      34.582 -19.498 -23.161  0.00  0.00    -0.264 N 
ATOM     22  N   UNL     1      34.087 -17.299 -23.815  0.00  0.00    -0.338 NA
ATOM     23  N   UNL     1      33.886 -19.127 -25.371  0.00  0.00    -0.170 NA
ATOM     24  C   UNL     1      34.173 -18.614 -24.145  0.00  0.00    +0.145 C 
ATOM     25  C   UNL     1      33.686 -16.467 -24.797  0.00  0.00    +0.147 C 
ATOM     26  C   UNL     1      33.370 -16.884 -26.075  0.00  0.00    +0.055 C 
ATOM     27  C   UNL     1      33.490 -18.239 -26.307  0.00  0.00    +0.114 C 
ATOM     28  H   UNL     1      34.647 -20.453 -23.390  0.00  0.00    +0.160 HD
BRANCH  25  30
ATOM     29  N   UNL     1      33.026 -12.807 -25.034  0.00  0.00    -0.242 NA
ATOM     30  C   UNL     1      33.602 -15.074 -24.426  0.00  0.00    +0.050 C 
ATOM     31  C   UNL     1      33.995 -14.643 -23.163  0.00  0.00    +0.006 C 
ATOM     32  C   UNL     1      33.128 -14.124 -25.317  0.00  0.00    +0.101 C 
ATOM     33  C   UNL     1      33.903 -13.295 -22.835  0.00  0.00    +0.021 C 
ATOM     34  C   UNL     1      33.416 -12.425 -23.797  0.00  0.00    +0.099 C 
ENDBRANCH  25  30
ENDBRANCH  20  21
ENDBRANCH   1  20
TORSDOF 6
ENDMDL
MODEL 3
REMARK VINA RESULT:     -12.5      3.263     11.244
REMARK  Name = 9865515
REMARK  6 active torsions:
REMARK  status: ('A' for Active; 'I' for Inactive)
REMARK    1  A    between atoms: C_1  and  C_20
REMARK    2  A    between atoms: C_2  and  C_9
REMARK    3  A    between atoms: N_8  and  C_11
REMARK    4  A    between atoms: C_12  and  N_17
REMARK    5  A    between atoms: C_20  and  N_21
REMARK    6  A    between atoms: C_25  and  C_30
REMARK                            x       y       z     vdW  Elec       q    Type
REMARK                         _______ _______ _______ _____ _____    ______ ____
ROOT
ATOM      1  C   UNL     1      34.799 -21.158 -19.736  0.00  0.00    -0.002 C 
ATOM      2  C   UNL     1      34.437 -19.076 -21.557  0.00  0.00    +0.054 C 
ATOM      3  C   UNL     1      33.514 -20.809 -20.150  0.00  0.00    -0.002 C 
ATOM      4  C   UNL     1      35.904 -20.466 -20.233  0.00  0.00    -0.002 C 
ATOM      5  C   UNL     1      33.332 -19.767 -21.059  0.00  0.00    +0.004 C 
ATOM      6  C   UNL     1      35.722 -19.425 -21.143  0.00  0.00    +0.004 C 
ENDROOT
BRANCH   2   9
ATOM      7  O   UNL     1      34.638 -16.850 -22.201  0.00  0.00    -0.270 OA
ATOM      8  N   UNL     1      33.646 -18.336 -23.722  0.00  0.00    -0.279 N 
ATOM      9  C   UNL     1      34.247 -17.989 -22.505  0.00  0.00    +0.250 C 
ATOM     10  H   UNL     1      33.389 -19.281 -23.818  0.00  0.00    +0.155 HD
BRANCH   8  11
ATOM     11  C   UNL     1      33.360 -17.503 -24.833  0.00  0.00    +0.064 C 
ATOM     12  C   UNL     1      32.292 -17.792 -25.666  0.00  0.00    +0.055 C 
ATOM     13  C   UNL     1      34.174 -16.405 -25.057  0.00  0.00    +0.016 C 
ATOM     14  C   UNL     1      32.031 -16.958 -26.754  0.00  0.00    +0.015 C 
ATOM     15  C   UNL     1      33.912 -15.571 -26.144  0.00  0.00    +0.001 C 
ATOM     16  C   UNL     1      32.840 -15.848 -26.993  0.00  0.00    +0.001 C 
BRANCH  12  17
ATOM     17  N   UNL     1      31.459 -18.910 -25.442  0.00  0.00    -0.356 N 
ATOM     18  H   UNL     1      31.547 -19.711 -26.008  0.00  0.00    +0.142 HD
ATOM     19  H   UNL     1      30.789 -18.889 -24.720  0.00  0.00    +0.142 HD
ENDBRANCH  12  17
ENDBRANCH   8  11
ENDBRANCH   2   9
BRANCH   1  20
ATOM     20  C   UNL     1      34.994 -22.273 -18.763  0.00  0.00    +0.124 C 
BRANCH  20  21
ATOM     21  N   UNL     1      33.786 -22.513 -18.004  0.00  0.00    -0.264 N 
ATOM     22  N   UNL     1      34.961 -23.537 -16.249  0.00  0.00    -0.338 NA
ATOM     23  N   UNL     1      32.565 -23.298 -16.161  0.00  0.00    -0.170 NA
ATOM     24  C   UNL     1      33.771 -23.135 -16.767  0.00  0.00    +0.145 C 
ATOM     25  C   UNL     1      34.909 -24.138 -15.043  0.00  0.00    +0.147 C 
ATOM     26  C   UNL     1      33.739 -24.353 -14.343  0.00  0.00    +0.055 C 
ATOM     27  C   UNL     1      32.586 -23.907 -14.957  0.00  0.00    +0.114 C 
ATOM     28  H   UNL     1      32.929 -22.218 -18.388  0.00  0.00    +0.160 HD
BRANCH  25  30
ATOM     29  N   UNL     1      38.596 -24.465 -14.617  0.00  0.00    -0.242 NA
ATOM     30  C   UNL     1      36.183 -24.557 -14.511  0.00  0.00    +0.050 C 
ATOM     31  C   UNL     1      36.257 -25.422 -13.423  0.00  0.00    +0.006 C 
ATOM     32  C   UNL     1      37.372 -24.111 -15.066  0.00  0.00    +0.101 C 
ATOM     33  C   UNL     1      37.499 -25.809 -12.933  0.00  0.00    +0.021 C 
ATOM     34  C   UNL     1      38.629 -25.307 -13.560  0.00  0.00    +0.099 C 
ENDBRANCH  25  30
ENDBRANCH  20  21
ENDBRANCH   1  20
TORSDOF 6
ENDMDL
MODEL 4
REMARK VINA RESULT:     -12.3      2.264      3.448
REMARK  Name = 9865515
REMARK  6 active torsions:
REMARK  status: ('A' for Active; 'I' for Inactive)
REMARK    1  A    between atoms: C_1  and  C_20
REMARK    2  A    between atoms: C_2  and  C_9
REMARK    3  A    between atoms: N_8  and  C_11
REMARK    4  A    between atoms: C_12  and  N_17
REMARK    5  A    between atoms: C_20  and  N_21
REMARK    6  A    between atoms: C_25  and  C_30
REMARK                            x       y       z     vdW  Elec       q    Type
REMARK                         _______ _______ _______ _____ _____    ______ ____
ROOT
ATOM      1  C   UNL     1      34.430 -19.688 -21.311  0.00  0.00    -0.002 C 
ATOM      2  C   UNL     1      34.218 -21.604 -19.295  0.00  0.00    +0.054 C 
ATOM      3  C   UNL     1      35.582 -20.236 -20.745  0.00  0.00    -0.002 C 
ATOM      4  C   UNL     1      33.173 -20.098 -20.869  0.00  0.00    -0.002 C 
ATOM      5  C   UNL     1      35.476 -21.193 -19.737  0.00  0.00    +0.004 C 
ATOM      6  C   UNL     1      33.067 -21.057 -19.861  0.00  0.00    +0.004 C 
ENDROOT
BRANCH   2   9
ATOM      7  O   UNL     1      33.418 -23.615 -18.440  0.00  0.00    -0.270 OA
ATOM      8  N   UNL     1      34.831 -22.336 -17.071  0.00  0.00    -0.279 N 
ATOM      9  C   UNL     1      34.108 -22.602 -18.242  0.00  0.00    +0.250 C 
ATOM     10  H   UNL     1      35.332 -21.490 -17.060  0.00  0.00    +0.155 HD
BRANCH   8  11
ATOM     11  C   UNL     1      34.933 -23.129 -15.900  0.00  0.00    +0.064 C 
ATOM     12  C   UNL     1      36.175 -23.521 -15.428  0.00  0.00    +0.055 C 
ATOM     13  C   UNL     1      33.765 -23.496 -15.251  0.00  0.00    +0.016 C 
ATOM     14  C   UNL     1      36.250 -24.302 -14.273  0.00  0.00    +0.015 C 
ATOM     15  C   UNL     1      33.841 -24.275 -14.097  0.00  0.00    +0.001 C 
ATOM     16  C   UNL     1      35.084 -24.679 -13.608  0.00  0.00    +0.001 C 
BRANCH  12  17
ATOM     17  N   UNL     1      37.369 -23.150 -16.084  0.00  0.00    -0.356 N 
ATOM     18  H   UNL     1      38.232 -23.226 -15.617  0.00  0.00    +0.142 HD
ATOM     19  H   UNL     1      37.338 -22.816 -17.010  0.00  0.00    +0.142 HD
ENDBRANCH  12  17
ENDBRANCH   8  11
ENDBRANCH   2   9
BRANCH   1  20
ATOM     20  C   UNL     1      34.543 -18.664 -22.390  0.00  0.00    +0.124 C 
BRANCH  20  21
ATOM     21  N   UNL     1      33.904 -19.122 -23.605  0.00  0.00    -0.264 N 
ATOM     22  N   UNL     1      33.550 -16.933 -24.375  0.00  0.00    -0.338 NA
ATOM     23  N   UNL     1      32.838 -18.832 -25.675  0.00  0.00    -0.170 NA
ATOM     24  C   UNL     1      33.416 -18.270 -24.581  0.00  0.00    +0.145 C 
ATOM     25  C   UNL     1      33.064 -16.133 -25.345  0.00  0.00    +0.147 C 
ATOM     26  C   UNL     1      32.459 -16.601 -26.494  0.00  0.00    +0.055 C 
ATOM     27  C   UNL     1      32.373 -17.973 -26.607  0.00  0.00    +0.114 C 
ATOM     28  H   UNL     1      33.812 -20.092 -23.745  0.00  0.00    +0.160 HD
BRANCH  25  30
ATOM     29  N   UNL     1      33.094 -12.456 -25.953  0.00  0.00    -0.242 NA
ATOM     30  C   UNL     1      33.217 -14.717 -25.107  0.00  0.00    +0.050 C 
ATOM     31  C   UNL     1      33.618 -14.237 -23.864  0.00  0.00    +0.006 C 
ATOM     32  C   UNL     1      32.970 -13.793 -26.109  0.00  0.00    +0.101 C 
ATOM     33  C   UNL     1      33.757 -12.869 -23.665  0.00  0.00    +0.021 C 
ATOM     34  C   UNL     1      33.485 -12.027 -24.733  0.00  0.00    +0.099 C 
ENDBRANCH  25  30
ENDBRANCH  20  21
ENDBRANCH   1  20
TORSDOF 6
ENDMDL
MODEL 5
REMARK VINA RESULT:     -12.3      1.688      2.124
REMARK  Name = 9865515
REMARK  6 active torsions:
REMARK  status: ('A' for Active; 'I' for Inactive)
REMARK    1  A    between atoms: C_1  and  C_20
REMARK    2  A    between atoms: C_2  and  C_9
REMARK    3  A    between atoms: N_8  and  C_11
REMARK    4  A    between atoms: C_12  and  N_17
REMARK    5  A    between atoms: C_20  and  N_21
REMARK    6  A    between atoms: C_25  and  C_30
REMARK                            x       y       z     vdW  Elec       q    Type
REMARK                         _______ _______ _______ _____ _____    ______ ____
ROOT
ATOM      1  C   UNL     1      34.781 -19.780 -21.096  0.00  0.00    -0.002 C 
ATOM      2  C   UNL     1      34.303 -21.693 -19.123  0.00  0.00    +0.054 C 
ATOM      3  C   UNL     1      35.851 -20.377 -20.429  0.00  0.00    -0.002 C 
ATOM      4  C   UNL     1      33.472 -20.140 -20.776  0.00  0.00    -0.002 C 
ATOM      5  C   UNL     1      35.612 -21.332 -19.442  0.00  0.00    +0.004 C 
ATOM      6  C   UNL     1      33.233 -21.096 -19.790  0.00  0.00    +0.004 C 
ENDROOT
BRANCH   2   9
ATOM      7  O   UNL     1      33.343 -23.670 -18.361  0.00  0.00    -0.270 OA
ATOM      8  N   UNL     1      34.676 -22.458 -16.857  0.00  0.00    -0.279 N 
ATOM      9  C   UNL     1      34.054 -22.688 -18.092  0.00  0.00    +0.250 C 
ATOM     10  H   UNL     1      35.210 -21.634 -16.794  0.00  0.00    +0.155 HD
BRANCH   8  11
ATOM     11  C   UNL     1      34.636 -23.258 -15.688  0.00  0.00    +0.064 C 
ATOM     12  C   UNL     1      35.802 -23.800 -15.172  0.00  0.00    +0.055 C 
ATOM     13  C   UNL     1      33.409 -23.481 -15.085  0.00  0.00    +0.016 C 
ATOM     14  C   UNL     1      35.738 -24.585 -14.020  0.00  0.00    +0.015 C 
ATOM     15  C   UNL     1      33.345 -24.265 -13.934  0.00  0.00    +0.001 C 
ATOM     16  C   UNL     1      34.510 -24.818 -13.402  0.00  0.00    +0.001 C 
BRANCH  12  17
ATOM     17  N   UNL     1      37.056 -23.577 -15.781  0.00  0.00    -0.356 N 
ATOM     18  H   UNL     1      37.674 -24.329 -15.926  0.00  0.00    +0.142 HD
ATOM     19  H   UNL     1      37.313 -22.668 -16.061  0.00  0.00    +0.142 HD
ENDBRANCH  12  17
ENDBRANCH   8  11
ENDBRANCH   2   9
BRANCH   1  20
ATOM     20  C   UNL     1      35.036 -18.758 -22.153  0.00  0.00    +0.124 C 
BRANCH  20  21
ATOM     21  N   UNL     1      35.091 -17.429 -21.584  0.00  0.00    -0.264 N 
ATOM     22  N   UNL     1      34.123 -16.454 -23.487  0.00  0.00    -0.338 NA
ATOM     23  N   UNL     1      34.753 -15.107 -21.591  0.00  0.00    -0.170 NA
ATOM     24  C   UNL     1      34.642 -16.296 -22.241  0.00  0.00    +0.145 C 
ATOM     25  C   UNL     1      33.696 -15.330 -24.097  0.00  0.00    +0.147 C 
ATOM     26  C   UNL     1      33.762 -14.075 -23.527  0.00  0.00    +0.055 C 
ATOM     27  C   UNL     1      34.306 -14.023 -22.260  0.00  0.00    +0.114 C 
ATOM     28  H   UNL     1      35.469 -17.325 -20.681  0.00  0.00    +0.160 HD
BRANCH  25  30
ATOM     29  N   UNL     1      32.184 -17.009 -27.061  0.00  0.00    -0.242 NA
ATOM     30  C   UNL     1      33.148 -15.520 -25.419  0.00  0.00    +0.050 C 
ATOM     31  C   UNL     1      33.048 -14.458 -26.314  0.00  0.00    +0.006 C 
ATOM     32  C   UNL     1      32.705 -16.764 -25.839  0.00  0.00    +0.101 C 
ATOM     33  C   UNL     1      32.517 -14.672 -27.581  0.00  0.00    +0.021 C 
ATOM     34  C   UNL     1      32.103 -15.954 -27.903  0.00  0.00    +0.099 C 
ENDBRANCH  25  30
ENDBRANCH  20  21
ENDBRANCH   1  20
TORSDOF 6
ENDMDL
MODEL 6
REMARK VINA RESULT:     -12.1      2.434     11.156
REMARK  Name = 9865515
REMARK  6 active torsions:
REMARK  status: ('A' for Active; 'I' for Inactive)
REMARK    1  A    between atoms: C_1  and  C_20
REMARK    2  A    between atoms: C_2  and  C_9
REMARK    3  A    between atoms: N_8  and  C_11
REMARK    4  A    between atoms: C_12  and  N_17
REMARK    5  A    between atoms: C_20  and  N_21
REMARK    6  A    between atoms: C_25  and  C_30
REMARK                            x       y       z     vdW  Elec       q    Type
REMARK                         _______ _______ _______ _____ _____    ______ ____
ROOT
ATOM      1  C   UNL     1      34.014 -21.093 -20.010  0.00  0.00    -0.002 C 
ATOM      2  C   UNL     1      34.214 -19.352 -22.180  0.00  0.00    +0.054 C 
ATOM      3  C   UNL     1      32.860 -20.580 -20.601  0.00  0.00    -0.002 C 
ATOM      4  C   UNL     1      35.269 -20.736 -20.503  0.00  0.00    -0.002 C 
ATOM      5  C   UNL     1      32.960 -19.709 -21.685  0.00  0.00    +0.004 C 
ATOM      6  C   UNL     1      35.369 -19.865 -21.589  0.00  0.00    +0.004 C 
ENDROOT
BRANCH   2   9
ATOM      7  O   UNL     1      35.437 -18.014 -23.638  0.00  0.00    -0.270 OA
ATOM      8  N   UNL     1      33.116 -18.138 -23.963  0.00  0.00    -0.279 N 
ATOM      9  C   UNL     1      34.318 -18.442 -23.310  0.00  0.00    +0.250 C 
ATOM     10  H   UNL     1      32.307 -18.553 -23.586  0.00  0.00    +0.155 HD
BRANCH   8  11
ATOM     11  C   UNL     1      32.913 -17.310 -25.095  0.00  0.00    +0.064 C 
ATOM     12  C   UNL     1      33.372 -16.003 -25.097  0.00  0.00    +0.055 C 
ATOM     13  C   UNL     1      32.249 -17.842 -26.188  0.00  0.00    +0.016 C 
ATOM     14  C   UNL     1      33.160 -15.207 -26.223  0.00  0.00    +0.015 C 
ATOM     15  C   UNL     1      32.037 -17.047 -27.313  0.00  0.00    +0.001 C 
ATOM     16  C   UNL     1      32.493 -15.728 -27.331  0.00  0.00    +0.001 C 
BRANCH  12  17
ATOM     17  N   UNL     1      34.051 -15.454 -23.987  0.00  0.00    -0.356 N 
ATOM     18  H   UNL     1      33.615 -14.767 -23.432  0.00  0.00    +0.142 HD
ATOM     19  H   UNL     1      34.961 -15.759 -23.766  0.00  0.00    +0.142 HD
ENDBRANCH  12  17
ENDBRANCH   8  11
ENDBRANCH   2   9
BRANCH   1  20
ATOM     20  C   UNL     1      33.908 -22.026 -18.850  0.00  0.00    +0.124 C 
BRANCH  20  21
ATOM     21  N   UNL     1      32.528 -22.196 -18.448  0.00  0.00    -0.264 N 
ATOM     22  N   UNL     1      33.130 -23.172 -16.400  0.00  0.00    -0.338 NA
ATOM     23  N   UNL     1      30.815 -22.859 -16.989  0.00  0.00    -0.170 NA
ATOM     24  C   UNL     1      32.147 -22.760 -17.243  0.00  0.00    +0.145 C 
ATOM     25  C   UNL     1      32.722 -23.717 -15.236  0.00  0.00    +0.147 C 
ATOM     26  C   UNL     1      31.396 -23.865 -14.881  0.00  0.00    +0.055 C 
ATOM     27  C   UNL     1      30.477 -23.414 -15.806  0.00  0.00    +0.114 C 
ATOM     28  H   UNL     1      31.824 -21.893 -19.065  0.00  0.00    +0.160 HD
BRANCH  25  30
ATOM     29  N   UNL     1      34.570 -24.520 -12.101  0.00  0.00    -0.242 NA
ATOM     30  C   UNL     1      33.782 -24.148 -14.356  0.00  0.00    +0.050 C 
ATOM     31  C   UNL     1      34.999 -24.594 -14.862  0.00  0.00    +0.006 C 
ATOM     32  C   UNL     1      33.620 -24.132 -12.980  0.00  0.00    +0.101 C 
ATOM     33  C   UNL     1      36.001 -25.003 -13.990  0.00  0.00    +0.021 C 
ATOM     34  C   UNL     1      35.739 -24.947 -12.630  0.00  0.00    +0.099 C 
ENDBRANCH  25  30
ENDBRANCH  20  21
ENDBRANCH   1  20
TORSDOF 6
ENDMDL
MODEL 7
REMARK VINA RESULT:     -11.9      4.264      7.211
REMARK  Name = 9865515
REMARK  6 active torsions:
REMARK  status: ('A' for Active; 'I' for Inactive)
REMARK    1  A    between atoms: C_1  and  C_20
REMARK    2  A    between atoms: C_2  and  C_9
REMARK    3  A    between atoms: N_8  and  C_11
REMARK    4  A    between atoms: C_12  and  N_17
REMARK    5  A    between atoms: C_20  and  N_21
REMARK    6  A    between atoms: C_25  and  C_30
REMARK                            x       y       z     vdW  Elec       q    Type
REMARK                         _______ _______ _______ _____ _____    ______ ____
ROOT
ATOM      1  C   UNL     1      33.419 -14.402 -24.313  0.00  0.00    -0.002 C 
ATOM      2  C   UNL     1      34.394 -16.799 -23.271  0.00  0.00    +0.054 C 
ATOM      3  C   UNL     1      34.033 -14.420 -23.060  0.00  0.00    -0.002 C 
ATOM      4  C   UNL     1      33.293 -15.583 -25.044  0.00  0.00    -0.002 C 
ATOM      5  C   UNL     1      34.519 -15.618 -22.539  0.00  0.00    +0.004 C 
ATOM      6  C   UNL     1      33.780 -16.781 -24.523  0.00  0.00    +0.004 C 
ENDROOT
BRANCH   2   9
ATOM      7  O   UNL     1      35.844 -18.618 -23.296  0.00  0.00    -0.270 OA
ATOM      8  N   UNL     1      34.275 -18.503 -21.556  0.00  0.00    -0.279 N 
ATOM      9  C   UNL     1      34.899 -18.049 -22.725  0.00  0.00    +0.250 C 
ATOM     10  H   UNL     1      33.537 -17.945 -21.220  0.00  0.00    +0.155 HD
BRANCH   8  11
ATOM     11  C   UNL     1      34.566 -19.662 -20.794  0.00  0.00    +0.064 C 
ATOM     12  C   UNL     1      33.544 -20.494 -20.368  0.00  0.00    +0.055 C 
ATOM     13  C   UNL     1      35.891 -19.934 -20.492  0.00  0.00    +0.016 C 
ATOM     14  C   UNL     1      33.855 -21.629 -19.619  0.00  0.00    +0.015 C 
ATOM     15  C   UNL     1      36.202 -21.068 -19.743  0.00  0.00    +0.001 C 
ATOM     16  C   UNL     1      35.184 -21.916 -19.306  0.00  0.00    +0.001 C 
BRANCH  12  17
ATOM     17  N   UNL     1      32.192 -20.224 -20.673  0.00  0.00    -0.356 N 
ATOM     18  H   UNL     1      31.860 -20.349 -21.591  0.00  0.00    +0.142 HD
ATOM     19  H   UNL     1      31.581 -19.909 -19.968  0.00  0.00    +0.142 HD
ENDBRANCH  12  17
ENDBRANCH   8  11
ENDBRANCH   2   9
BRANCH   1  20
ATOM     20  C   UNL     1      32.899 -13.120 -24.872  0.00  0.00    +0.124 C 
BRANCH  20  21
ATOM     21  N   UNL     1      33.973 -12.324 -25.426  0.00  0.00    -0.264 N 
ATOM     22  N   UNL     1      33.503 -10.508 -24.016  0.00  0.00    -0.338 NA
ATOM     23  N   UNL     1      35.308 -10.403 -25.609  0.00  0.00    -0.170 NA
ATOM     24  C   UNL     1      34.270 -11.040 -25.004  0.00  0.00    +0.145 C 
ATOM     25  C   UNL     1      33.819  -9.255 -23.630  0.00  0.00    +0.147 C 
ATOM     26  C   UNL     1      34.852  -8.522 -24.178  0.00  0.00    +0.055 C 
ATOM     27  C   UNL     1      35.569  -9.152 -25.174  0.00  0.00    +0.114 C 
ATOM     28  H   UNL     1      34.523 -12.719 -26.140  0.00  0.00    +0.160 HD
BRANCH  25  30
ATOM     29  N   UNL     1      31.128  -8.983 -21.066  0.00  0.00    -0.242 NA
ATOM     30  C   UNL     1      32.993  -8.709 -22.579  0.00  0.00    +0.050 C 
ATOM     31  C   UNL     1      33.229  -7.436 -22.069  0.00  0.00    +0.006 C 
ATOM     32  C   UNL     1      31.939  -9.435 -22.048  0.00  0.00    +0.101 C 
ATOM     33  C   UNL     1      32.415  -6.937 -21.059  0.00  0.00    +0.021 C 
ATOM     34  C   UNL     1      31.387  -7.743 -20.595  0.00  0.00    +0.099 C 
ENDBRANCH  25  30
ENDBRANCH  20  21
ENDBRANCH   1  20
TORSDOF 6
ENDMDL
MODEL 8
REMARK VINA RESULT:     -11.9      3.356     11.231
REMARK  Name = 9865515
REMARK  6 active torsions:
REMARK  status: ('A' for Active; 'I' for Inactive)
REMARK    1  A    between atoms: C_1  and  C_20
REMARK    2  A    between atoms: C_2  and  C_9
REMARK    3  A    between atoms: N_8  and  C_11
REMARK    4  A    between atoms: C_12  and  N_17
REMARK    5  A    between atoms: C_20  and  N_21
REMARK    6  A    between atoms: C_25  and  C_30
REMARK                            x       y       z     vdW  Elec       q    Type
REMARK                         _______ _______ _______ _____ _____    ______ ____
ROOT
ATOM      1  C   UNL     1      33.988 -22.217 -19.192  0.00  0.00    -0.002 C 
ATOM      2  C   UNL     1      33.932 -19.998 -20.881  0.00  0.00    +0.054 C 
ATOM      3  C   UNL     1      32.772 -21.609 -19.505  0.00  0.00    -0.002 C 
ATOM      4  C   UNL     1      35.175 -21.716 -19.724  0.00  0.00    -0.002 C 
ATOM      5  C   UNL     1      32.744 -20.499 -20.348  0.00  0.00    +0.004 C 
ATOM      6  C   UNL     1      35.147 -20.607 -20.569  0.00  0.00    +0.004 C 
ENDROOT
BRANCH   2   9
ATOM      7  O   UNL     1      34.099 -17.712 -21.277  0.00  0.00    -0.270 OA
ATOM      8  N   UNL     1      33.674 -19.106 -23.117  0.00  0.00    -0.279 N 
ATOM      9  C   UNL     1      33.903 -18.839 -21.760  0.00  0.00    +0.250 C 
ATOM     10  H   UNL     1      33.535 -20.052 -23.349  0.00  0.00    +0.155 HD
BRANCH   8  11
ATOM     11  C   UNL     1      33.617 -18.190 -24.197  0.00  0.00    +0.064 C 
ATOM     12  C   UNL     1      34.595 -17.220 -24.344  0.00  0.00    +0.055 C 
ATOM     13  C   UNL     1      32.564 -18.293 -25.091  0.00  0.00    +0.016 C 
ATOM     14  C   UNL     1      34.518 -16.330 -25.415  0.00  0.00    +0.015 C 
ATOM     15  C   UNL     1      32.487 -17.403 -26.161  0.00  0.00    +0.001 C 
ATOM     16  C   UNL     1      33.464 -16.421 -26.323  0.00  0.00    +0.001 C 
BRANCH  12  17
ATOM     17  N   UNL     1      35.672 -17.111 -23.436  0.00  0.00    -0.356 N 
ATOM     18  H   UNL     1      36.599 -17.188 -23.760  0.00  0.00    +0.142 HD
ATOM     19  H   UNL     1      35.497 -16.956 -22.480  0.00  0.00    +0.142 HD
ENDBRANCH  12  17
ENDBRANCH   8  11
ENDBRANCH   2   9
BRANCH   1  20
ATOM     20  C   UNL     1      34.018 -23.406 -18.290  0.00  0.00    +0.124 C 
BRANCH  20  21
ATOM     21  N   UNL     1      33.170 -23.201 -17.136  0.00  0.00    -0.264 N 
ATOM     22  N   UNL     1      34.754 -24.120 -15.670  0.00  0.00    -0.338 NA
ATOM     23  N   UNL     1      32.640 -23.303 -14.853  0.00  0.00    -0.170 NA
ATOM     24  C   UNL     1      33.533 -23.552 -15.848  0.00  0.00    +0.145 C 
ATOM     25  C   UNL     1      35.076 -24.449 -14.402  0.00  0.00    +0.147 C 
ATOM     26  C   UNL     1      34.243 -24.241 -13.321  0.00  0.00    +0.055 C 
ATOM     27  C   UNL     1      33.026 -23.658 -13.609  0.00  0.00    +0.114 C 
ATOM     28  H   UNL     1      32.287 -22.789 -17.276  0.00  0.00    +0.160 HD
BRANCH  25  30
ATOM     29  N   UNL     1      37.909 -26.842 -14.773  0.00  0.00    -0.242 NA
ATOM     30  C   UNL     1      36.377 -25.051 -14.235  0.00  0.00    +0.050 C 
ATOM     31  C   UNL     1      37.337 -24.468 -13.413  0.00  0.00    +0.006 C 
ATOM     32  C   UNL     1      36.711 -26.227 -14.887  0.00  0.00    +0.101 C 
ATOM     33  C   UNL     1      38.581 -25.071 -13.271  0.00  0.00    +0.021 C 
ATOM     34  C   UNL     1      38.816 -26.247 -13.966  0.00  0.00    +0.099 C 
ENDBRANCH  25  30
ENDBRANCH  20  21
ENDBRANCH   1  20
TORSDOF 6
ENDMDL
MODEL 9
REMARK VINA RESULT:     -11.9      2.574     10.870
REMARK  Name = 9865515
REMARK  6 active torsions:
REMARK  status: ('A' for Active; 'I' for Inactive)
REMARK    1  A    between atoms: C_1  and  C_20
REMARK    2  A    between atoms: C_2  and  C_9
REMARK    3  A    between atoms: N_8  and  C_11
REMARK    4  A    between atoms: C_12  and  N_17
REMARK    5  A    between atoms: C_20  and  N_21
REMARK    6  A    between atoms: C_25  and  C_30
REMARK                            x       y       z     vdW  Elec       q    Type
REMARK                         _______ _______ _______ _____ _____    ______ ____
ROOT
ATOM      1  C   UNL     1      34.632 -20.632 -20.353  0.00  0.00    -0.002 C 
ATOM      2  C   UNL     1      34.713 -18.457 -22.097  0.00  0.00    +0.054 C 
ATOM      3  C   UNL     1      33.465 -20.202 -20.985  0.00  0.00    -0.002 C 
ATOM      4  C   UNL     1      35.838 -19.976 -20.593  0.00  0.00    -0.002 C 
ATOM      5  C   UNL     1      33.506 -19.114 -21.857  0.00  0.00    +0.004 C 
ATOM      6  C   UNL     1      35.879 -18.888 -21.465  0.00  0.00    +0.004 C 
ENDROOT
BRANCH   2   9
ATOM      7  O   UNL     1      35.753 -16.584 -23.002  0.00  0.00    -0.270 OA
ATOM      8  N   UNL     1      33.642 -17.168 -23.844  0.00  0.00    -0.279 N 
ATOM      9  C   UNL     1      34.754 -17.321 -23.005  0.00  0.00    +0.250 C 
ATOM     10  H   UNL     1      32.925 -17.832 -23.729  0.00  0.00    +0.155 HD
BRANCH   8  11
ATOM     11  C   UNL     1      33.416 -16.180 -24.835  0.00  0.00    +0.064 C 
ATOM     12  C   UNL     1      33.434 -14.836 -24.500  0.00  0.00    +0.055 C 
ATOM     13  C   UNL     1      33.178 -16.596 -26.135  0.00  0.00    +0.016 C 
ATOM     14  C   UNL     1      33.208 -13.882 -25.492  0.00  0.00    +0.015 C 
ATOM     15  C   UNL     1      32.952 -15.643 -27.127  0.00  0.00    +0.001 C 
ATOM     16  C   UNL     1      32.966 -14.285 -26.806  0.00  0.00    +0.001 C 
BRANCH  12  17
ATOM     17  N   UNL     1      33.677 -14.405 -23.177  0.00  0.00    -0.356 N 
ATOM     18  H   UNL     1      33.185 -13.635 -22.812  0.00  0.00    +0.142 HD
ATOM     19  H   UNL     1      34.338 -14.876 -22.619  0.00  0.00    +0.142 HD
ENDBRANCH  12  17
ENDBRANCH   8  11
ENDBRANCH   2   9
BRANCH   1  20
ATOM     20  C   UNL     1      34.589 -21.797 -19.421  0.00  0.00    +0.124 C 
BRANCH  20  21
ATOM     21  N   UNL     1      35.755 -21.816 -18.564  0.00  0.00    -0.264 N 
ATOM     22  N   UNL     1      34.549 -22.705 -16.758  0.00  0.00    -0.338 NA
ATOM     23  N   UNL     1      36.902 -22.227 -16.559  0.00  0.00    -0.170 NA
ATOM     24  C   UNL     1      35.734 -22.263 -17.254  0.00  0.00    +0.145 C 
ATOM     25  C   UNL     1      34.565 -23.133 -15.479  0.00  0.00    +0.147 C 
ATOM     26  C   UNL     1      35.695 -23.138 -14.686  0.00  0.00    +0.055 C 
ATOM     27  C   UNL     1      36.847 -22.670 -15.285  0.00  0.00    +0.114 C 
ATOM     28  H   UNL     1      36.609 -21.494 -18.933  0.00  0.00    +0.160 HD
BRANCH  25  30
ATOM     29  N   UNL     1      32.062 -24.746 -13.239  0.00  0.00    -0.242 NA
ATOM     30  C   UNL     1      33.297 -23.598 -14.971  0.00  0.00    +0.050 C 
ATOM     31  C   UNL     1      32.116 -23.372 -15.672  0.00  0.00    +0.006 C 
ATOM     32  C   UNL     1      33.215 -24.283 -13.769  0.00  0.00    +0.101 C 
ATOM     33  C   UNL     1      30.910 -23.833 -15.158  0.00  0.00    +0.021 C 
ATOM     34  C   UNL     1      30.936 -24.509 -13.948  0.00  0.00    +0.099 C 
ENDBRANCH  25  30
ENDBRANCH  20  21
ENDBRANCH   1  20
TORSDOF 6
ENDMDL
