MODEL 1
REMARK VINA RESULT:     -12.4      0.000      0.000
REMARK  Name = 42642648
REMARK  5 active torsions:
REMARK  status: ('A' for Active; 'I' for Inactive)
REMARK    1  A    between atoms: N_1  and  C_22
REMARK    2  A    between atoms: C_4  and  N_15
REMARK    3  A    between atoms: C_25  and  O_28
REMARK    4  A    between atoms: O_28  and  C_29
REMARK    5  A    between atoms: C_29  and  C_32
REMARK                            x       y       z     vdW  Elec       q    Type
REMARK                         _______ _______ _______ _____ _____    ______ ____
ROOT
ATOM      1  N   UNL     1      33.064 -22.693 -18.335  0.00  0.00    -0.301 N 
ATOM      2  N   UNL     1      30.029 -23.082 -15.548  0.00  0.00    -0.248 NA
ATOM      3  N   UNL     1      30.848 -22.273 -17.665  0.00  0.00    -0.233 NA
ATOM      4  C   UNL     1      33.736 -24.795 -14.713  0.00  0.00    +0.048 C 
ATOM      5  C   UNL     1      32.294 -23.532 -16.193  0.00  0.00    +0.117 C 
ATOM      6  C   UNL     1      33.543 -24.112 -15.908  0.00  0.00    +0.001 C 
ATOM      7  C   UNL     1      31.227 -23.632 -15.285  0.00  0.00    +0.067 C 
ATOM      8  C   UNL     1      32.036 -22.835 -17.370  0.00  0.00    +0.115 C 
ATOM      9  C   UNL     1      32.688 -24.900 -13.805  0.00  0.00    +0.016 C 
ATOM     10  C   UNL     1      31.449 -24.321 -14.095  0.00  0.00    +0.016 C 
ATOM     11  C   UNL     1      29.904 -22.433 -16.723  0.00  0.00    +0.251 C 
ATOM     12  H   UNL     1      33.705 -23.440 -18.345  0.00  0.00    +0.153 HD
ENDROOT
BRANCH   4  15
ATOM     13  O   UNL     1      37.034 -25.729 -13.475  0.00  0.00    -0.448 OA
ATOM     14  N   UNL     1      35.846 -23.928 -12.723  0.00  0.00    -0.222 NA
ATOM     15  N   UNL     1      34.986 -25.377 -14.421  0.00  0.00    -0.269 N 
ATOM     16  C   UNL     1      37.077 -24.023 -11.921  0.00  0.00    +0.151 C 
ATOM     17  C   UNL     1      37.957 -24.987 -12.689  0.00  0.00    +0.233 C 
ATOM     18  C   UNL     1      35.910 -24.955 -13.515  0.00  0.00    +0.284 C 
ATOM     19  C   UNL     1      37.701 -22.652 -11.748  0.00  0.00    +0.030 C 
ATOM     20  H   UNL     1      35.218 -26.186 -14.934  0.00  0.00    +0.157 HD
ENDBRANCH   4  15
BRANCH   1  22
ATOM     21 CL   UNL     1      36.577 -19.800 -20.670  0.00  0.00    -0.079 Cl
ATOM     22  C   UNL     1      33.345 -21.692 -19.279  0.00  0.00    +0.050 C 
ATOM     23  C   UNL     1      34.661 -21.283 -19.490  0.00  0.00    +0.029 C 
ATOM     24  C   UNL     1      32.307 -21.108 -20.004  0.00  0.00    +0.018 C 
ATOM     25  C   UNL     1      33.901 -19.704 -21.155  0.00  0.00    +0.150 C 
ATOM     26  C   UNL     1      34.940 -20.289 -20.429  0.00  0.00    +0.093 C 
ATOM     27  C   UNL     1      32.585 -20.115 -20.943  0.00  0.00    +0.039 C 
BRANCH  25  28
ATOM     28  O   UNL     1      34.144 -18.731 -22.078  0.00  0.00    -0.468 OA
BRANCH  28  29
ATOM     29  C   UNL     1      34.435 -19.159 -23.408  0.00  0.00    +0.257 C 
BRANCH  29  32
ATOM     30  S   UNL     1      34.500 -16.687 -24.667  0.00  0.00    -0.067 S 
ATOM     31  N   UNL     1      32.678 -18.482 -25.041  0.00  0.00    -0.237 NA
ATOM     32  C   UNL     1      33.782 -18.219 -24.379  0.00  0.00    +0.132 C 
ATOM     33  C   UNL     1      33.238 -16.332 -25.772  0.00  0.00    +0.057 C 
ATOM     34  C   UNL     1      32.367 -17.399 -25.839  0.00  0.00    +0.106 C 
ENDBRANCH  29  32
ENDBRANCH  28  29
ENDBRANCH  25  28
ENDBRANCH   1  22
TORSDOF 5
ENDMDL
MODEL 2
REMARK VINA RESULT:     -12.1      6.067     10.403
REMARK  Name = 42642648
REMARK  5 active torsions:
REMARK  status: ('A' for Active; 'I' for Inactive)
REMARK    1  A    between atoms: N_1  and  C_22
REMARK    2  A    between atoms: C_4  and  N_15
REMARK    3  A    between atoms: C_25  and  O_28
REMARK    4  A    between atoms: O_28  and  C_29
REMARK    5  A    between atoms: C_29  and  C_32
REMARK                            x       y       z     vdW  Elec       q    Type
REMARK                         _______ _______ _______ _____ _____    ______ ____
ROOT
ATOM      1  N   UNL     1      34.119 -14.403 -23.777  0.00  0.00    -0.301 N 
ATOM      2  N   UNL     1      33.014 -17.486 -26.308  0.00  0.00    -0.248 NA
ATOM      3  N   UNL     1      33.038 -15.147 -25.730  0.00  0.00    -0.233 NA
ATOM      4  C   UNL     1      35.218 -18.403 -22.891  0.00  0.00    +0.048 C 
ATOM      5  C   UNL     1      34.128 -16.769 -24.309  0.00  0.00    +0.117 C 
ATOM      6  C   UNL     1      34.872 -17.082 -23.158  0.00  0.00    +0.001 C 
ATOM      7  C   UNL     1      33.725 -17.774 -25.204  0.00  0.00    +0.067 C 
ATOM      8  C   UNL     1      33.749 -15.470 -24.633  0.00  0.00    +0.115 C 
ATOM      9  C   UNL     1      34.824 -19.406 -23.769  0.00  0.00    +0.016 C 
ATOM     10  C   UNL     1      34.085 -19.087 -24.911  0.00  0.00    +0.016 C 
ATOM     11  C   UNL     1      32.708 -16.189 -26.511  0.00  0.00    +0.251 C 
ATOM     12  H   UNL     1      34.964 -14.556 -23.296  0.00  0.00    +0.153 HD
ENDROOT
BRANCH   4  15
ATOM     13  O   UNL     1      36.660 -19.802 -19.850  0.00  0.00    -0.448 OA
ATOM     14  N   UNL     1      34.876 -20.704 -20.955  0.00  0.00    -0.222 NA
ATOM     15  N   UNL     1      35.963 -18.723 -21.739  0.00  0.00    -0.269 N 
ATOM     16  C   UNL     1      35.214 -21.600 -19.838  0.00  0.00    +0.151 C 
ATOM     17  C   UNL     1      36.141 -20.783 -18.963  0.00  0.00    +0.233 C 
ATOM     18  C   UNL     1      35.777 -19.772 -20.890  0.00  0.00    +0.284 C 
ATOM     19  C   UNL     1      33.955 -22.048 -19.121  0.00  0.00    +0.030 C 
ATOM     20  H   UNL     1      36.707 -18.115 -21.520  0.00  0.00    +0.157 HD
ENDBRANCH   4  15
BRANCH   1  22
ATOM     21 CL   UNL     1      30.895 -11.753 -20.821  0.00  0.00    -0.079 Cl
ATOM     22  C   UNL     1      33.514 -13.170 -23.484  0.00  0.00    +0.050 C 
ATOM     23  C   UNL     1      32.611 -13.072 -22.426  0.00  0.00    +0.029 C 
ATOM     24  C   UNL     1      33.817 -12.046 -24.250  0.00  0.00    +0.018 C 
ATOM     25  C   UNL     1      32.313 -10.721 -22.902  0.00  0.00    +0.150 C 
ATOM     26  C   UNL     1      32.010 -11.847 -22.134  0.00  0.00    +0.093 C 
ATOM     27  C   UNL     1      33.216 -10.821 -23.959  0.00  0.00    +0.039 C 
BRANCH  25  28
ATOM     28  O   UNL     1      31.741  -9.512 -22.640  0.00  0.00    -0.468 OA
BRANCH  28  29
ATOM     29  C   UNL     1      32.603  -8.375 -22.639  0.00  0.00    +0.257 C 
BRANCH  29  32
ATOM     30  S   UNL     1      31.588  -8.190 -20.063  0.00  0.00    -0.067 S 
ATOM     31  N   UNL     1      32.386  -6.180 -21.479  0.00  0.00    -0.237 NA
ATOM     32  C   UNL     1      32.240  -7.486 -21.486  0.00  0.00    +0.132 C 
ATOM     33  C   UNL     1      31.486  -6.627 -19.366  0.00  0.00    +0.057 C 
ATOM     34  C   UNL     1      31.953  -5.688 -20.263  0.00  0.00    +0.106 C 
ENDBRANCH  29  32
ENDBRANCH  28  29
ENDBRANCH  25  28
ENDBRANCH   1  22
TORSDOF 5
ENDMDL
MODEL 3
REMARK VINA RESULT:     -12.1      1.700      2.227
REMARK  Name = 42642648
REMARK  5 active torsions:
REMARK  status: ('A' for Active; 'I' for Inactive)
REMARK    1  A    between atoms: N_1  and  C_22
REMARK    2  A    between atoms: C_4  and  N_15
REMARK    3  A    between atoms: C_25  and  O_28
REMARK    4  A    between atoms: O_28  and  C_29
REMARK    5  A    between atoms: C_29  and  C_32
REMARK                            x       y       z     vdW  Elec       q    Type
REMARK                         _______ _______ _______ _____ _____    ______ ____
ROOT
ATOM      1  N   UNL     1      33.472 -22.929 -17.479  0.00  0.00    -0.301 N 
ATOM      2  N   UNL     1      29.763 -23.223 -15.666  0.00  0.00    -0.248 NA
ATOM      3  N   UNL     1      31.130 -22.724 -17.586  0.00  0.00    -0.233 NA
ATOM      4  C   UNL     1      33.155 -24.171 -13.436  0.00  0.00    +0.048 C 
ATOM      5  C   UNL     1      32.145 -23.446 -15.515  0.00  0.00    +0.117 C 
ATOM      6  C   UNL     1      33.288 -23.767 -14.760  0.00  0.00    +0.001 C 
ATOM      7  C   UNL     1      30.861 -23.527 -14.952  0.00  0.00    +0.067 C 
ATOM      8  C   UNL     1      32.209 -23.035 -16.843  0.00  0.00    +0.115 C 
ATOM      9  C   UNL     1      31.888 -24.254 -12.868  0.00  0.00    +0.016 C 
ATOM     10  C   UNL     1      30.758 -23.934 -13.624  0.00  0.00    +0.016 C 
ATOM     11  C   UNL     1      29.956 -22.838 -16.943  0.00  0.00    +0.251 C 
ATOM     12  H   UNL     1      34.144 -23.559 -17.134  0.00  0.00    +0.153 HD
ENDROOT
BRANCH   4  15
ATOM     13  O   UNL     1      36.400 -25.193 -12.131  0.00  0.00    -0.448 OA
ATOM     14  N   UNL     1      35.846 -25.214 -14.347  0.00  0.00    -0.222 NA
ATOM     15  N   UNL     1      34.295 -24.493 -12.674  0.00  0.00    -0.269 N 
ATOM     16  C   UNL     1      37.260 -25.605 -14.232  0.00  0.00    +0.151 C 
ATOM     17  C   UNL     1      37.451 -25.911 -12.761  0.00  0.00    +0.233 C 
ATOM     18  C   UNL     1      35.493 -24.962 -13.123  0.00  0.00    +0.284 C 
ATOM     19  C   UNL     1      37.556 -26.788 -15.133  0.00  0.00    +0.030 C 
ATOM     20  H   UNL     1      34.217 -24.364 -11.700  0.00  0.00    +0.157 HD
ENDBRANCH   4  15
BRANCH   1  22
ATOM     21 CL   UNL     1      32.389 -19.870 -21.432  0.00  0.00    -0.079 Cl
ATOM     22  C   UNL     1      33.948 -22.098 -18.506  0.00  0.00    +0.050 C 
ATOM     23  C   UNL     1      33.049 -21.465 -19.364  0.00  0.00    +0.029 C 
ATOM     24  C   UNL     1      35.319 -21.905 -18.666  0.00  0.00    +0.018 C 
ATOM     25  C   UNL     1      34.895 -20.446 -20.545  0.00  0.00    +0.150 C 
ATOM     26  C   UNL     1      33.522 -20.639 -20.384  0.00  0.00    +0.093 C 
ATOM     27  C   UNL     1      35.793 -21.080 -19.686  0.00  0.00    +0.039 C 
BRANCH  25  28
ATOM     28  O   UNL     1      35.386 -19.645 -21.533  0.00  0.00    -0.468 OA
BRANCH  28  29
ATOM     29  C   UNL     1      35.517 -18.257 -21.233  0.00  0.00    +0.257 C 
BRANCH  29  32
ATOM     30  S   UNL     1      34.669 -18.264 -23.876  0.00  0.00    -0.067 S 
ATOM     31  N   UNL     1      34.869 -16.151 -22.400  0.00  0.00    -0.237 NA
ATOM     32  C   UNL     1      35.036 -17.455 -22.407  0.00  0.00    +0.132 C 
ATOM     33  C   UNL     1      34.249 -16.755 -24.573  0.00  0.00    +0.057 C 
ATOM     34  C   UNL     1      34.419 -15.751 -23.643  0.00  0.00    +0.106 C 
ENDBRANCH  29  32
ENDBRANCH  28  29
ENDBRANCH  25  28
ENDBRANCH   1  22
TORSDOF 5
ENDMDL
MODEL 4
REMARK VINA RESULT:     -12.1      6.182     10.438
REMARK  Name = 42642648
REMARK  5 active torsions:
REMARK  status: ('A' for Active; 'I' for Inactive)
REMARK    1  A    between atoms: N_1  and  C_22
REMARK    2  A    between atoms: C_4  and  N_15
REMARK    3  A    between atoms: C_25  and  O_28
REMARK    4  A    between atoms: O_28  and  C_29
REMARK    5  A    between atoms: C_29  and  C_32
REMARK                            x       y       z     vdW  Elec       q    Type
REMARK                         _______ _______ _______ _____ _____    ______ ____
ROOT
ATOM      1  N   UNL     1      34.068 -14.375 -23.723  0.00  0.00    -0.301 N 
ATOM      2  N   UNL     1      33.028 -17.435 -26.308  0.00  0.00    -0.248 NA
ATOM      3  N   UNL     1      33.009 -15.106 -25.694  0.00  0.00    -0.233 NA
ATOM      4  C   UNL     1      35.230 -18.369 -22.894  0.00  0.00    +0.048 C 
ATOM      5  C   UNL     1      34.119 -16.732 -24.292  0.00  0.00    +0.117 C 
ATOM      6  C   UNL     1      34.862 -17.051 -23.142  0.00  0.00    +0.001 C 
ATOM      7  C   UNL     1      33.738 -17.729 -25.205  0.00  0.00    +0.067 C 
ATOM      8  C   UNL     1      33.720 -15.434 -24.598  0.00  0.00    +0.115 C 
ATOM      9  C   UNL     1      34.857 -19.365 -23.790  0.00  0.00    +0.016 C 
ATOM     10  C   UNL     1      34.118 -19.041 -24.931  0.00  0.00    +0.016 C 
ATOM     11  C   UNL     1      32.701 -16.141 -26.493  0.00  0.00    +0.251 C 
ATOM     12  H   UNL     1      34.913 -14.521 -23.240  0.00  0.00    +0.153 HD
ENDROOT
BRANCH   4  15
ATOM     13  O   UNL     1      36.669 -19.782 -19.859  0.00  0.00    -0.448 OA
ATOM     14  N   UNL     1      34.884 -20.679 -20.968  0.00  0.00    -0.222 NA
ATOM     15  N   UNL     1      35.974 -18.695 -21.743  0.00  0.00    -0.269 N 
ATOM     16  C   UNL     1      35.221 -21.580 -19.854  0.00  0.00    +0.151 C 
ATOM     17  C   UNL     1      36.148 -20.767 -18.976  0.00  0.00    +0.233 C 
ATOM     18  C   UNL     1      35.786 -19.747 -20.899  0.00  0.00    +0.284 C 
ATOM     19  C   UNL     1      33.962 -22.029 -19.140  0.00  0.00    +0.030 C 
ATOM     20  H   UNL     1      36.718 -18.089 -21.522  0.00  0.00    +0.157 HD
ENDBRANCH   4  15
BRANCH   1  22
ATOM     21 CL   UNL     1      33.537  -9.390 -24.740  0.00  0.00    -0.079 Cl
ATOM     22  C   UNL     1      33.440 -13.157 -23.414  0.00  0.00    +0.050 C 
ATOM     23  C   UNL     1      33.754 -12.007 -24.137  0.00  0.00    +0.029 C 
ATOM     24  C   UNL     1      32.503 -13.099 -22.383  0.00  0.00    +0.018 C 
ATOM     25  C   UNL     1      32.191 -10.740 -22.798  0.00  0.00    +0.150 C 
ATOM     26  C   UNL     1      33.130 -10.798 -23.830  0.00  0.00    +0.093 C 
ATOM     27  C   UNL     1      31.879 -11.891 -22.075  0.00  0.00    +0.039 C 
BRANCH  25  28
ATOM     28  O   UNL     1      31.566  -9.572 -22.476  0.00  0.00    -0.468 OA
BRANCH  28  29
ATOM     29  C   UNL     1      31.144  -9.417 -21.122  0.00  0.00    +0.257 C 
BRANCH  29  32
ATOM     30  S   UNL     1      31.330  -6.741 -21.832  0.00  0.00    -0.067 S 
ATOM     31  N   UNL     1      31.738  -7.664 -19.452  0.00  0.00    -0.237 NA
ATOM     32  C   UNL     1      31.422  -8.010 -20.680  0.00  0.00    +0.132 C 
ATOM     33  C   UNL     1      31.744  -5.625 -20.598  0.00  0.00    +0.057 C 
ATOM     34  C   UNL     1      31.923  -6.296 -19.407  0.00  0.00    +0.106 C 
ENDBRANCH  29  32
ENDBRANCH  28  29
ENDBRANCH  25  28
ENDBRANCH   1  22
TORSDOF 5
ENDMDL
MODEL 5
REMARK VINA RESULT:     -11.8      4.119     12.035
REMARK  Name = 42642648
REMARK  5 active torsions:
REMARK  status: ('A' for Active; 'I' for Inactive)
REMARK    1  A    between atoms: N_1  and  C_22
REMARK    2  A    between atoms: C_4  and  N_15
REMARK    3  A    between atoms: C_25  and  O_28
REMARK    4  A    between atoms: O_28  and  C_29
REMARK    5  A    between atoms: C_29  and  C_32
REMARK                            x       y       z     vdW  Elec       q    Type
REMARK                         _______ _______ _______ _____ _____    ______ ____
ROOT
ATOM      1  N   UNL     1      33.862 -18.404 -22.352  0.00  0.00    -0.301 N 
ATOM      2  N   UNL     1      33.982 -18.234 -26.486  0.00  0.00    -0.248 NA
ATOM      3  N   UNL     1      34.090 -19.485 -24.429  0.00  0.00    -0.233 NA
ATOM      4  C   UNL     1      33.398 -14.696 -24.359  0.00  0.00    +0.048 C 
ATOM      5  C   UNL     1      33.745 -17.093 -24.390  0.00  0.00    +0.117 C 
ATOM      6  C   UNL     1      33.547 -15.898 -23.675  0.00  0.00    +0.001 C 
ATOM      7  C   UNL     1      33.794 -17.097 -25.793  0.00  0.00    +0.067 C 
ATOM      8  C   UNL     1      33.901 -18.328 -23.767  0.00  0.00    +0.115 C 
ATOM      9  C   UNL     1      33.446 -14.687 -25.749  0.00  0.00    +0.016 C 
ATOM     10  C   UNL     1      33.643 -15.878 -26.451  0.00  0.00    +0.016 C 
ATOM     11  C   UNL     1      34.120 -19.366 -25.767  0.00  0.00    +0.251 C 
ATOM     12  H   UNL     1      33.293 -17.718 -21.933  0.00  0.00    +0.153 HD
ENDROOT
BRANCH   4  15
ATOM     13  O   UNL     1      32.993 -11.267 -23.194  0.00  0.00    -0.448 OA
ATOM     14  N   UNL     1      33.381 -11.843 -25.370  0.00  0.00    -0.222 NA
ATOM     15  N   UNL     1      33.200 -13.495 -23.649  0.00  0.00    -0.269 N 
ATOM     16  C   UNL     1      33.185 -10.385 -25.318  0.00  0.00    +0.151 C 
ATOM     17  C   UNL     1      33.291 -10.041 -23.848  0.00  0.00    +0.233 C 
ATOM     18  C   UNL     1      33.200 -12.226 -24.143  0.00  0.00    +0.284 C 
ATOM     19  C   UNL     1      34.222  -9.683 -26.173  0.00  0.00    +0.030 C 
ATOM     20  H   UNL     1      33.045 -13.584 -22.681  0.00  0.00    +0.157 HD
ENDBRANCH   4  15
BRANCH   1  22
ATOM     21 CL   UNL     1      33.368 -22.242 -19.007  0.00  0.00    -0.079 Cl
ATOM     22  C   UNL     1      34.479 -19.268 -21.433  0.00  0.00    +0.050 C 
ATOM     23  C   UNL     1      33.719 -20.217 -20.751  0.00  0.00    +0.029 C 
ATOM     24  C   UNL     1      35.850 -19.176 -21.202  0.00  0.00    +0.018 C 
ATOM     25  C   UNL     1      35.705 -20.984 -19.607  0.00  0.00    +0.150 C 
ATOM     26  C   UNL     1      34.331 -21.076 -19.838  0.00  0.00    +0.093 C 
ATOM     27  C   UNL     1      36.464 -20.034 -20.290  0.00  0.00    +0.039 C 
BRANCH  25  28
ATOM     28  O   UNL     1      36.330 -21.810 -18.721  0.00  0.00    -0.468 OA
BRANCH  28  29
ATOM     29  C   UNL     1      36.608 -21.277 -17.427  0.00  0.00    +0.257 C 
BRANCH  29  32
ATOM     30  S   UNL     1      35.079 -22.993 -15.871  0.00  0.00    -0.067 S 
ATOM     31  N   UNL     1      37.663 -22.961 -15.922  0.00  0.00    -0.237 NA
ATOM     32  C   UNL     1      36.589 -22.393 -16.424  0.00  0.00    +0.132 C 
ATOM     33  C   UNL     1      35.916 -24.110 -14.875  0.00  0.00    +0.057 C 
ATOM     34  C   UNL     1      37.276 -23.945 -15.034  0.00  0.00    +0.106 C 
ENDBRANCH  29  32
ENDBRANCH  28  29
ENDBRANCH  25  28
ENDBRANCH   1  22
TORSDOF 5
ENDMDL
MODEL 6
REMARK VINA RESULT:     -11.5      6.092     13.627
REMARK  Name = 42642648
REMARK  5 active torsions:
REMARK  status: ('A' for Active; 'I' for Inactive)
REMARK    1  A    between atoms: N_1  and  C_22
REMARK    2  A    between atoms: C_4  and  N_15
REMARK    3  A    between atoms: C_25  and  O_28
REMARK    4  A    between atoms: O_28  and  C_29
REMARK    5  A    between atoms: C_29  and  C_32
REMARK                            x       y       z     vdW  Elec       q    Type
REMARK                         _______ _______ _______ _____ _____    ______ ____
ROOT
ATOM      1  N   UNL     1      33.253 -14.093 -24.076  0.00  0.00    -0.301 N 
ATOM      2  N   UNL     1      32.627 -12.291 -27.749  0.00  0.00    -0.248 NA
ATOM      3  N   UNL     1      32.786 -14.264 -26.376  0.00  0.00    -0.233 NA
ATOM      4  C   UNL     1      33.420  -9.871 -24.449  0.00  0.00    +0.048 C 
ATOM      5  C   UNL     1      33.104 -12.072 -25.409  0.00  0.00    +0.117 C 
ATOM      6  C   UNL     1      33.371 -11.253 -24.298  0.00  0.00    +0.001 C 
ATOM      7  C   UNL     1      32.884 -11.516 -26.680  0.00  0.00    +0.067 C 
ATOM      8  C   UNL     1      33.041 -13.460 -25.326  0.00  0.00    +0.115 C 
ATOM      9  C   UNL     1      33.205  -9.309 -25.702  0.00  0.00    +0.016 C 
ATOM     10  C   UNL     1      32.941 -10.130 -26.802  0.00  0.00    +0.016 C 
ATOM     11  C   UNL     1      32.593 -13.622 -27.539  0.00  0.00    +0.251 C 
ATOM     12  H   UNL     1      32.977 -13.548 -23.304  0.00  0.00    +0.153 HD
ENDROOT
BRANCH   4  15
ATOM     13  O   UNL     1      33.387  -7.544 -21.644  0.00  0.00    -0.448 OA
ATOM     14  N   UNL     1      31.558  -8.040 -22.918  0.00  0.00    -0.222 NA
ATOM     15  N   UNL     1      33.688  -9.045 -23.339  0.00  0.00    -0.269 N 
ATOM     16  C   UNL     1      31.124  -7.140 -21.838  0.00  0.00    +0.151 C 
ATOM     17  C   UNL     1      32.411  -6.582 -21.269  0.00  0.00    +0.233 C 
ATOM     18  C   UNL     1      32.819  -8.232 -22.676  0.00  0.00    +0.284 C 
ATOM     19  C   UNL     1      30.197  -6.070 -22.383  0.00  0.00    +0.030 C 
ATOM     20  H   UNL     1      34.614  -9.055 -23.003  0.00  0.00    +0.157 HD
ENDBRANCH   4  15
BRANCH   1  22
ATOM     21 CL   UNL     1      33.886 -19.020 -25.292  0.00  0.00    -0.079 Cl
ATOM     22  C   UNL     1      33.780 -15.346 -23.726  0.00  0.00    +0.050 C 
ATOM     23  C   UNL     1      33.600 -16.439 -24.573  0.00  0.00    +0.029 C 
ATOM     24  C   UNL     1      34.484 -15.498 -22.532  0.00  0.00    +0.018 C 
ATOM     25  C   UNL     1      34.828 -17.836 -23.031  0.00  0.00    +0.150 C 
ATOM     26  C   UNL     1      34.124 -17.685 -24.227  0.00  0.00    +0.093 C 
ATOM     27  C   UNL     1      35.008 -16.743 -22.185  0.00  0.00    +0.039 C 
BRANCH  25  28
ATOM     28  O   UNL     1      35.351 -19.041 -22.666  0.00  0.00    -0.468 OA
BRANCH  28  29
ATOM     29  C   UNL     1      35.776 -19.178 -21.311  0.00  0.00    +0.257 C 
BRANCH  29  32
ATOM     30  S   UNL     1      35.534 -21.409 -19.679  0.00  0.00    -0.067 S 
ATOM     31  N   UNL     1      33.546 -20.063 -20.637  0.00  0.00    -0.237 NA
ATOM     32  C   UNL     1      34.858 -20.131 -20.604  0.00  0.00    +0.132 C 
ATOM     33  C   UNL     1      33.949 -21.926 -19.281  0.00  0.00    +0.057 C 
ATOM     34  C   UNL     1      33.026 -21.093 -19.878  0.00  0.00    +0.106 C 
ENDBRANCH  29  32
ENDBRANCH  28  29
ENDBRANCH  25  28
ENDBRANCH   1  22
TORSDOF 5
ENDMDL
MODEL 7
REMARK VINA RESULT:     -11.3      6.226     11.227
REMARK  Name = 42642648
REMARK  5 active torsions:
REMARK  status: ('A' for Active; 'I' for Inactive)
REMARK    1  A    between atoms: N_1  and  C_22
REMARK    2  A    between atoms: C_4  and  N_15
REMARK    3  A    between atoms: C_25  and  O_28
REMARK    4  A    between atoms: O_28  and  C_29
REMARK    5  A    between atoms: C_29  and  C_32
REMARK                            x       y       z     vdW  Elec       q    Type
REMARK                         _______ _______ _______ _____ _____    ______ ____
ROOT
ATOM      1  N   UNL     1      33.807 -13.807 -24.147  0.00  0.00    -0.301 N 
ATOM      2  N   UNL     1      32.612 -16.229 -27.284  0.00  0.00    -0.248 NA
ATOM      3  N   UNL     1      32.762 -14.062 -26.240  0.00  0.00    -0.233 NA
ATOM      4  C   UNL     1      34.611 -17.971 -24.068  0.00  0.00    +0.048 C 
ATOM      5  C   UNL     1      33.687 -16.012 -25.151  0.00  0.00    +0.117 C 
ATOM      6  C   UNL     1      34.361 -16.603 -24.068  0.00  0.00    +0.001 C 
ATOM      7  C   UNL     1      33.257 -16.784 -26.243  0.00  0.00    +0.067 C 
ATOM      8  C   UNL     1      33.405 -14.650 -25.213  0.00  0.00    +0.115 C 
ATOM      9  C   UNL     1      34.191 -18.746 -25.143  0.00  0.00    +0.016 C 
ATOM     10  C   UNL     1      33.520 -18.151 -26.215  0.00  0.00    +0.016 C 
ATOM     11  C   UNL     1      32.399 -14.899 -27.226  0.00  0.00    +0.251 C 
ATOM     12  H   UNL     1      34.620 -14.113 -23.685  0.00  0.00    +0.153 HD
ENDROOT
BRANCH   4  15
ATOM     13  O   UNL     1      35.680 -19.801 -21.103  0.00  0.00    -0.448 OA
ATOM     14  N   UNL     1      33.544 -19.810 -21.913  0.00  0.00    -0.222 NA
ATOM     15  N   UNL     1      35.287 -18.569 -22.985  0.00  0.00    -0.269 N 
ATOM     16  C   UNL     1      33.596 -20.734 -20.769  0.00  0.00    +0.151 C 
ATOM     17  C   UNL     1      34.906 -20.412 -20.080  0.00  0.00    +0.233 C 
ATOM     18  C   UNL     1      34.768 -19.394 -22.033  0.00  0.00    +0.284 C 
ATOM     19  C   UNL     1      32.386 -20.535 -19.876  0.00  0.00    +0.030 C 
ATOM     20  H   UNL     1      36.247 -18.366 -22.907  0.00  0.00    +0.157 HD
ENDBRANCH   4  15
BRANCH   1  22
ATOM     21 CL   UNL     1      30.818 -11.573 -20.649  0.00  0.00    -0.079 Cl
ATOM     22  C   UNL     1      33.270 -12.620 -23.625  0.00  0.00    +0.050 C 
ATOM     23  C   UNL     1      32.412 -12.666 -22.527  0.00  0.00    +0.029 C 
ATOM     24  C   UNL     1      33.596 -11.394 -24.204  0.00  0.00    +0.018 C 
ATOM     25  C   UNL     1      32.205 -10.259 -22.587  0.00  0.00    +0.150 C 
ATOM     26  C   UNL     1      31.879 -11.487 -22.007  0.00  0.00    +0.093 C 
ATOM     27  C   UNL     1      33.063 -10.214 -23.685  0.00  0.00    +0.039 C 
BRANCH  25  28
ATOM     28  O   UNL     1      31.698  -9.091 -22.101  0.00  0.00    -0.468 OA
BRANCH  28  29
ATOM     29  C   UNL     1      30.801  -8.374 -22.947  0.00  0.00    +0.257 C 
BRANCH  29  32
ATOM     30  S   UNL     1      32.133  -6.272 -21.719  0.00  0.00    -0.067 S 
ATOM     31  N   UNL     1      30.982  -6.136 -24.029  0.00  0.00    -0.237 NA
ATOM     32  C   UNL     1      31.237  -6.940 -23.021  0.00  0.00    +0.132 C 
ATOM     33  C   UNL     1      32.194  -4.779 -22.559  0.00  0.00    +0.057 C 
ATOM     34  C   UNL     1      31.530  -4.897 -23.762  0.00  0.00    +0.106 C 
ENDBRANCH  29  32
ENDBRANCH  28  29
ENDBRANCH  25  28
ENDBRANCH   1  22
TORSDOF 5
ENDMDL
MODEL 8
REMARK VINA RESULT:     -11.2      6.842     11.927
REMARK  Name = 42642648
REMARK  5 active torsions:
REMARK  status: ('A' for Active; 'I' for Inactive)
REMARK    1  A    between atoms: N_1  and  C_22
REMARK    2  A    between atoms: C_4  and  N_15
REMARK    3  A    between atoms: C_25  and  O_28
REMARK    4  A    between atoms: O_28  and  C_29
REMARK    5  A    between atoms: C_29  and  C_32
REMARK                            x       y       z     vdW  Elec       q    Type
REMARK                         _______ _______ _______ _____ _____    ______ ____
ROOT
ATOM      1  N   UNL     1      33.768 -13.240 -25.365  0.00  0.00    -0.301 N 
ATOM      2  N   UNL     1      31.522 -15.907 -27.595  0.00  0.00    -0.248 NA
ATOM      3  N   UNL     1      32.207 -13.656 -27.076  0.00  0.00    -0.233 NA
ATOM      4  C   UNL     1      34.022 -17.408 -24.616  0.00  0.00    +0.048 C 
ATOM      5  C   UNL     1      33.116 -15.527 -25.845  0.00  0.00    +0.117 C 
ATOM      6  C   UNL     1      33.958 -16.037 -24.841  0.00  0.00    +0.001 C 
ATOM      7  C   UNL     1      32.330 -16.384 -26.632  0.00  0.00    +0.067 C 
ATOM      8  C   UNL     1      33.006 -14.167 -26.119  0.00  0.00    +0.115 C 
ATOM      9  C   UNL     1      33.249 -18.266 -25.389  0.00  0.00    +0.016 C 
ATOM     10  C   UNL     1      32.413 -17.752 -26.384  0.00  0.00    +0.016 C 
ATOM     11  C   UNL     1      31.503 -14.570 -27.764  0.00  0.00    +0.251 C 
ATOM     12  H   UNL     1      34.625 -13.602 -25.042  0.00  0.00    +0.153 HD
ENDROOT
BRANCH   4  15
ATOM     13  O   UNL     1      35.578 -19.100 -21.788  0.00  0.00    -0.448 OA
ATOM     14  N   UNL     1      33.386 -19.348 -22.381  0.00  0.00    -0.222 NA
ATOM     15  N   UNL     1      34.864 -17.924 -23.611  0.00  0.00    -0.269 N 
ATOM     16  C   UNL     1      33.653 -20.257 -21.255  0.00  0.00    +0.151 C 
ATOM     17  C   UNL     1      34.982 -19.790 -20.698  0.00  0.00    +0.233 C 
ATOM     18  C   UNL     1      34.538 -18.799 -22.619  0.00  0.00    +0.284 C 
ATOM     19  C   UNL     1      32.525 -20.191 -20.244  0.00  0.00    +0.030 C 
ATOM     20  H   UNL     1      35.799 -17.616 -23.628  0.00  0.00    +0.157 HD
ENDBRANCH   4  15
BRANCH   1  22
ATOM     21 CL   UNL     1      34.405  -8.273 -26.406  0.00  0.00    -0.079 Cl
ATOM     22  C   UNL     1      33.537 -11.907 -24.990  0.00  0.00    +0.050 C 
ATOM     23  C   UNL     1      34.023 -10.867 -25.781  0.00  0.00    +0.029 C 
ATOM     24  C   UNL     1      32.822 -11.624 -23.827  0.00  0.00    +0.018 C 
ATOM     25  C   UNL     1      33.077  -9.258 -24.245  0.00  0.00    +0.150 C 
ATOM     26  C   UNL     1      33.793  -9.542 -25.410  0.00  0.00    +0.093 C 
ATOM     27  C   UNL     1      32.592 -10.300 -23.455  0.00  0.00    +0.039 C 
BRANCH  25  28
ATOM     28  O   UNL     1      32.838  -7.974 -23.857  0.00  0.00    -0.468 OA
BRANCH  28  29
ATOM     29  C   UNL     1      31.574  -7.706 -23.251  0.00  0.00    +0.257 C 
BRANCH  29  32
ATOM     30  S   UNL     1      30.882  -5.767 -21.390  0.00  0.00    -0.067 S 
ATOM     31  N   UNL     1      32.664  -7.601 -21.012  0.00  0.00    -0.237 NA
ATOM     32  C   UNL     1      31.799  -7.132 -21.883  0.00  0.00    +0.132 C 
ATOM     33  C   UNL     1      31.699  -5.795 -19.883  0.00  0.00    +0.057 C 
ATOM     34  C   UNL     1      32.605  -6.833 -19.865  0.00  0.00    +0.106 C 
ENDBRANCH  29  32
ENDBRANCH  28  29
ENDBRANCH  25  28
ENDBRANCH   1  22
TORSDOF 5
ENDMDL
MODEL 9
REMARK VINA RESULT:     -10.8      7.044     14.138
REMARK  Name = 42642648
REMARK  5 active torsions:
REMARK  status: ('A' for Active; 'I' for Inactive)
REMARK    1  A    between atoms: N_1  and  C_22
REMARK    2  A    between atoms: C_4  and  N_15
REMARK    3  A    between atoms: C_25  and  O_28
REMARK    4  A    between atoms: O_28  and  C_29
REMARK    5  A    between atoms: C_29  and  C_32
REMARK                            x       y       z     vdW  Elec       q    Type
REMARK                         _______ _______ _______ _____ _____    ______ ____
ROOT
ATOM      1  N   UNL     1      33.263 -12.900 -23.797  0.00  0.00    -0.301 N 
ATOM      2  N   UNL     1      33.611 -10.419 -27.092  0.00  0.00    -0.248 NA
ATOM      3  N   UNL     1      33.429 -12.620 -26.128  0.00  0.00    -0.233 NA
ATOM      4  C   UNL     1      33.457  -8.693 -23.301  0.00  0.00    +0.048 C 
ATOM      5  C   UNL     1      33.443 -10.661 -24.712  0.00  0.00    +0.117 C 
ATOM      6  C   UNL     1      33.391 -10.075 -23.435  0.00  0.00    +0.001 C 
ATOM      7  C   UNL     1      33.561  -9.869 -25.866  0.00  0.00    +0.067 C 
ATOM      8  C   UNL     1      33.382 -12.037 -24.915  0.00  0.00    +0.115 C 
ATOM      9  C   UNL     1      33.575  -7.898 -24.436  0.00  0.00    +0.016 C 
ATOM     10  C   UNL     1      33.627  -8.488 -25.702  0.00  0.00    +0.016 C 
ATOM     11  C   UNL     1      33.543 -11.764 -27.156  0.00  0.00    +0.251 C 
ATOM     12  H   UNL     1      32.782 -12.501 -23.037  0.00  0.00    +0.153 HD
ENDROOT
BRANCH   4  15
ATOM     13  O   UNL     1      32.692  -6.842 -20.256  0.00  0.00    -0.448 OA
ATOM     14  N   UNL     1      31.382  -6.826 -22.127  0.00  0.00    -0.222 NA
ATOM     15  N   UNL     1      33.405  -8.100 -22.023  0.00  0.00    -0.269 N 
ATOM     16  C   UNL     1      30.696  -6.039 -21.090  0.00  0.00    +0.151 C 
ATOM     17  C   UNL     1      31.755  -5.797 -20.035  0.00  0.00    +0.233 C 
ATOM     18  C   UNL     1      32.451  -7.262 -21.532  0.00  0.00    +0.284 C 
ATOM     19  C   UNL     1      30.139  -4.759 -21.682  0.00  0.00    +0.030 C 
ATOM     20  H   UNL     1      34.148  -8.316 -21.414  0.00  0.00    +0.157 HD
ENDBRANCH   4  15
BRANCH   1  22
ATOM     21 CL   UNL     1      33.835 -17.655 -25.594  0.00  0.00    -0.079 Cl
ATOM     22  C   UNL     1      33.697 -14.216 -23.566  0.00  0.00    +0.050 C 
ATOM     23  C   UNL     1      33.571 -15.178 -24.568  0.00  0.00    +0.029 C 
ATOM     24  C   UNL     1      34.254 -14.559 -22.335  0.00  0.00    +0.018 C 
ATOM     25  C   UNL     1      34.561 -16.828 -23.106  0.00  0.00    +0.150 C 
ATOM     26  C   UNL     1      34.003 -16.484 -24.338  0.00  0.00    +0.093 C 
ATOM     27  C   UNL     1      34.686 -15.865 -22.105  0.00  0.00    +0.039 C 
BRANCH  25  28
ATOM     28  O   UNL     1      34.992 -18.096 -22.854  0.00  0.00    -0.468 OA
BRANCH  28  29
ATOM     29  C   UNL     1      35.821 -18.282 -21.708  0.00  0.00    +0.257 C 
BRANCH  29  32
ATOM     30  S   UNL     1      33.638 -19.829 -20.972  0.00  0.00    -0.067 S 
ATOM     31  N   UNL     1      36.062 -20.228 -20.170  0.00  0.00    -0.237 NA
ATOM     32  C   UNL     1      35.311 -19.452 -20.918  0.00  0.00    +0.132 C 
ATOM     33  C   UNL     1      33.925 -21.143 -19.910  0.00  0.00    +0.057 C 
ATOM     34  C   UNL     1      35.266 -21.198 -19.592  0.00  0.00    +0.106 C 
ENDBRANCH  29  32
ENDBRANCH  28  29
ENDBRANCH  25  28
ENDBRANCH   1  22
TORSDOF 5
ENDMDL
