MODEL 1
REMARK VINA RESULT:     -11.5      0.000      0.000
REMARK  Name = 11998575
REMARK  7 active torsions:
REMARK  status: ('A' for Active; 'I' for Inactive)
REMARK    1  A    between atoms: C_6  and  C_18
REMARK    2  A    between atoms: C_14  and  O_22
REMARK    3  A    between atoms: C_15  and  O_16
REMARK    4  A    between atoms: C_18  and  O_20
REMARK    5  A    between atoms: O_22  and  C_23
REMARK    6  A    between atoms: C_23  and  C_24
REMARK    7  A    between atoms: C_29  and  O_30
REMARK                            x       y       z     vdW  Elec       q    Type
REMARK                         _______ _______ _______ _____ _____    ______ ____
ROOT
ATOM      1  O   UNL     1      32.178 -21.439 -19.665  0.00  0.00    -0.421 OA
ATOM      2  O   UNL     1      31.482 -20.171 -21.428  0.00  0.00    -0.244 OA
ATOM      3  C   UNL     1      34.829 -20.536 -20.059  0.00  0.00    +0.009 A 
ATOM      4  C   UNL     1      34.521 -21.479 -18.976  0.00  0.00    +0.038 A 
ATOM      5  C   UNL     1      33.794 -20.088 -20.898  0.00  0.00    +0.076 A 
ATOM      6  C   UNL     1      35.338 -18.720 -22.171  0.00  0.00    +0.004 C 
ATOM      7  C   UNL     1      33.201 -21.903 -18.810  0.00  0.00    +0.152 A 
ATOM      8  C   UNL     1      34.047 -19.187 -21.945  0.00  0.00    +0.004 C 
ATOM      9  C   UNL     1      36.125 -20.047 -20.312  0.00  0.00    +0.000 C 
ATOM     10  C   UNL     1      35.465 -21.998 -18.075  0.00  0.00    +0.043 C 
ATOM     11  C   UNL     1      36.376 -19.150 -21.356  0.00  0.00    -0.002 C 
ATOM     12  C   UNL     1      32.398 -20.550 -20.708  0.00  0.00    +0.346 A 
ATOM     13  C   UNL     1      32.808 -22.797 -17.811  0.00  0.00    +0.078 C 
ATOM     14  C   UNL     1      33.765 -23.295 -16.935  0.00  0.00    +0.176 C 
ATOM     15  C   UNL     1      35.092 -22.896 -17.066  0.00  0.00    +0.173 C 
ENDROOT
BRANCH  15  16
ATOM     16  O   UNL     1      36.042 -23.375 -16.215  0.00  0.00    -0.468 OA
ATOM     17  C   UNL     1      37.135 -22.511 -15.913  0.00  0.00    +0.253 C 
ENDBRANCH  15  16
BRANCH   6  18
ATOM     18  C   UNL     1      35.606 -17.765 -23.284  0.00  0.00    +0.133 C 
ATOM     19  C   UNL     1      34.636 -17.934 -24.457  0.00  0.00    +0.037 C 
BRANCH  18  20
ATOM     20  O   UNL     1      35.511 -16.417 -22.807  0.00  0.00    -0.380 OA
ATOM     21  H   UNL     1      36.389 -16.006 -22.824  0.00  0.00    +0.211 HD
ENDBRANCH  18  20
ENDBRANCH   6  18
BRANCH  14  22
ATOM     22  O   UNL     1      33.394 -24.168 -15.958  0.00  0.00    -0.467 OA
BRANCH  22  23
ATOM     23  C   UNL     1      32.723 -23.624 -14.822  0.00  0.00    +0.232 C 
BRANCH  23  24
ATOM     24  C   UNL     1      31.245 -23.611 -15.087  0.00  0.00    +0.021 C 
ATOM     25  C   UNL     1      30.519 -22.445 -14.878  0.00  0.00    +0.002 C 
ATOM     26  C   UNL     1      30.617 -24.768 -15.536  0.00  0.00    +0.002 C 
ATOM     27  C   UNL     1      29.145 -22.434 -15.124  0.00  0.00    +0.037 C 
ATOM     28  C   UNL     1      29.244 -24.757 -15.782  0.00  0.00    +0.037 C 
ATOM     29  C   UNL     1      28.508 -23.590 -15.575  0.00  0.00    +0.139 C 
BRANCH  29  30
ATOM     30  O   UNL     1      27.169 -23.578 -15.815  0.00  0.00    -0.471 OA
ATOM     31  C   UNL     1      26.559 -22.308 -16.040  0.00  0.00    +0.252 C 
ENDBRANCH  29  30
ENDBRANCH  23  24
ENDBRANCH  22  23
ENDBRANCH  14  22
TORSDOF 7
ENDMDL
MODEL 2
REMARK VINA RESULT:     -11.2      2.800      9.003
REMARK  Name = 11998575
REMARK  7 active torsions:
REMARK  status: ('A' for Active; 'I' for Inactive)
REMARK    1  A    between atoms: C_6  and  C_18
REMARK    2  A    between atoms: C_14  and  O_22
REMARK    3  A    between atoms: C_15  and  O_16
REMARK    4  A    between atoms: C_18  and  O_20
REMARK    5  A    between atoms: O_22  and  C_23
REMARK    6  A    between atoms: C_23  and  C_24
REMARK    7  A    between atoms: C_29  and  O_30
REMARK                            x       y       z     vdW  Elec       q    Type
REMARK                         _______ _______ _______ _____ _____    ______ ____
ROOT
ATOM      1  O   UNL     1      32.500 -21.808 -19.256  0.00  0.00    -0.421 OA
ATOM      2  O   UNL     1      31.985 -23.271 -17.585  0.00  0.00    -0.244 OA
ATOM      3  C   UNL     1      35.172 -21.695 -18.338  0.00  0.00    +0.009 A 
ATOM      4  C   UNL     1      34.757 -20.911 -19.508  0.00  0.00    +0.038 A 
ATOM      5  C   UNL     1      34.229 -22.502 -17.679  0.00  0.00    +0.076 A 
ATOM      6  C   UNL     1      35.889 -23.239 -16.075  0.00  0.00    +0.004 C 
ATOM      7  C   UNL     1      33.430 -20.991 -19.933  0.00  0.00    +0.152 A 
ATOM      8  C   UNL     1      34.585 -23.268 -16.557  0.00  0.00    +0.004 C 
ATOM      9  C   UNL     1      36.485 -21.686 -17.827  0.00  0.00    +0.000 C 
ATOM     10  C   UNL     1      35.604 -20.070 -20.248  0.00  0.00    +0.043 C 
ATOM     11  C   UNL     1      36.839 -22.449 -16.709  0.00  0.00    -0.002 C 
ATOM     12  C   UNL     1      32.823 -22.574 -18.144  0.00  0.00    +0.346 A 
ATOM     13  C   UNL     1      32.939 -20.282 -21.034  0.00  0.00    +0.078 C 
ATOM     14  C   UNL     1      33.801 -19.457 -21.746  0.00  0.00    +0.176 C 
ATOM     15  C   UNL     1      35.132 -19.350 -21.354  0.00  0.00    +0.173 C 
ENDROOT
BRANCH  15  16
ATOM     16  O   UNL     1      35.990 -18.545 -22.042  0.00  0.00    -0.468 OA
ATOM     17  C   UNL     1      37.366 -18.918 -22.043  0.00  0.00    +0.253 C 
ENDBRANCH  15  16
BRANCH   6  18
ATOM     18  C   UNL     1      36.267 -24.051 -14.883  0.00  0.00    +0.133 C 
ATOM     19  C   UNL     1      35.959 -25.542 -15.060  0.00  0.00    +0.037 C 
BRANCH  18  20
ATOM     20  O   UNL     1      37.666 -23.905 -14.613  0.00  0.00    -0.380 OA
ATOM     21  H   UNL     1      38.108 -24.760 -14.730  0.00  0.00    +0.211 HD
ENDBRANCH  18  20
ENDBRANCH   6  18
BRANCH  14  22
ATOM     22  O   UNL     1      33.333 -18.762 -22.819  0.00  0.00    -0.467 OA
BRANCH  22  23
ATOM     23  C   UNL     1      33.834 -19.135 -24.102  0.00  0.00    +0.232 C 
BRANCH  23  24
ATOM     24  C   UNL     1      33.297 -18.183 -25.132  0.00  0.00    +0.021 C 
ATOM     25  C   UNL     1      33.892 -16.938 -25.295  0.00  0.00    +0.002 C 
ATOM     26  C   UNL     1      32.207 -18.557 -25.912  0.00  0.00    +0.002 C 
ATOM     27  C   UNL     1      33.392 -16.053 -26.252  0.00  0.00    +0.037 C 
ATOM     28  C   UNL     1      31.708 -17.673 -26.868  0.00  0.00    +0.037 C 
ATOM     29  C   UNL     1      32.301 -16.421 -27.038  0.00  0.00    +0.139 C 
BRANCH  29  30
ATOM     30  O   UNL     1      31.814 -15.559 -27.971  0.00  0.00    -0.471 OA
ATOM     31  C   UNL     1      31.812 -14.172 -27.637  0.00  0.00    +0.252 C 
ENDBRANCH  29  30
ENDBRANCH  23  24
ENDBRANCH  22  23
ENDBRANCH  14  22
TORSDOF 7
ENDMDL
MODEL 3
REMARK VINA RESULT:     -11.2      2.535      5.582
REMARK  Name = 11998575
REMARK  7 active torsions:
REMARK  status: ('A' for Active; 'I' for Inactive)
REMARK    1  A    between atoms: C_6  and  C_18
REMARK    2  A    between atoms: C_14  and  O_22
REMARK    3  A    between atoms: C_15  and  O_16
REMARK    4  A    between atoms: C_18  and  O_20
REMARK    5  A    between atoms: O_22  and  C_23
REMARK    6  A    between atoms: C_23  and  C_24
REMARK    7  A    between atoms: C_29  and  O_30
REMARK                            x       y       z     vdW  Elec       q    Type
REMARK                         _______ _______ _______ _____ _____    ______ ____
ROOT
ATOM      1  O   UNL     1      35.842 -22.037 -18.287  0.00  0.00    -0.421 OA
ATOM      2  O   UNL     1      37.102 -20.897 -19.808  0.00  0.00    -0.244 OA
ATOM      3  C   UNL     1      33.486 -21.190 -19.602  0.00  0.00    +0.009 A 
ATOM      4  C   UNL     1      33.403 -22.046 -18.411  0.00  0.00    +0.038 A 
ATOM      5  C   UNL     1      34.746 -20.796 -20.082  0.00  0.00    +0.076 A 
ATOM      6  C   UNL     1      33.733 -19.543 -21.892  0.00  0.00    +0.004 C 
ATOM      7  C   UNL     1      34.587 -22.445 -17.788  0.00  0.00    +0.152 A 
ATOM      8  C   UNL     1      34.869 -19.980 -21.218  0.00  0.00    +0.004 C 
ATOM      9  C   UNL     1      32.354 -20.733 -20.305  0.00  0.00    +0.000 C 
ATOM     10  C   UNL     1      32.206 -22.504 -17.837  0.00  0.00    +0.043 C 
ATOM     11  C   UNL     1      32.477 -19.919 -21.436  0.00  0.00    -0.002 C 
ATOM     12  C   UNL     1      35.994 -21.229 -19.407  0.00  0.00    +0.346 A 
ATOM     13  C   UNL     1      34.612 -23.256 -16.650  0.00  0.00    +0.078 C 
ATOM     14  C   UNL     1      33.411 -23.693 -16.104  0.00  0.00    +0.176 C 
ATOM     15  C   UNL     1      32.209 -23.318 -16.696  0.00  0.00    +0.173 C 
ENDROOT
BRANCH  15  16
ATOM     16  O   UNL     1      31.023 -23.738 -16.173  0.00  0.00    -0.468 OA
ATOM     17  C   UNL     1      29.889 -22.900 -16.387  0.00  0.00    +0.253 C 
ENDBRANCH  15  16
BRANCH   6  18
ATOM     18  C   UNL     1      33.863 -18.674 -23.096  0.00  0.00    +0.133 C 
ATOM     19  C   UNL     1      34.696 -17.416 -22.832  0.00  0.00    +0.037 C 
BRANCH  18  20
ATOM     20  O   UNL     1      34.474 -19.407 -24.166  0.00  0.00    -0.380 OA
ATOM     21  H   UNL     1      35.376 -19.079 -24.307  0.00  0.00    +0.211 HD
ENDBRANCH  18  20
ENDBRANCH   6  18
BRANCH  14  22
ATOM     22  O   UNL     1      33.424 -24.483 -14.995  0.00  0.00    -0.467 OA
BRANCH  22  23
ATOM     23  C   UNL     1      34.170 -24.013 -13.873  0.00  0.00    +0.232 C 
BRANCH  23  24
ATOM     24  C   UNL     1      35.522 -24.664 -13.877  0.00  0.00    +0.021 C 
ATOM     25  C   UNL     1      36.556 -24.109 -13.133  0.00  0.00    +0.002 C 
ATOM     26  C   UNL     1      35.728 -25.818 -14.628  0.00  0.00    +0.002 C 
ATOM     27  C   UNL     1      37.813 -24.714 -13.137  0.00  0.00    +0.037 C 
ATOM     28  C   UNL     1      36.985 -26.423 -14.632  0.00  0.00    +0.037 C 
ATOM     29  C   UNL     1      38.027 -25.871 -13.887  0.00  0.00    +0.139 C 
BRANCH  29  30
ATOM     30  O   UNL     1      39.253 -26.462 -13.891  0.00  0.00    -0.471 OA
ATOM     31  C   UNL     1      40.221 -25.945 -14.803  0.00  0.00    +0.252 C 
ENDBRANCH  29  30
ENDBRANCH  23  24
ENDBRANCH  22  23
ENDBRANCH  14  22
TORSDOF 7
ENDMDL
MODEL 4
REMARK VINA RESULT:     -11.0      4.654      8.638
REMARK  Name = 11998575
REMARK  7 active torsions:
REMARK  status: ('A' for Active; 'I' for Inactive)
REMARK    1  A    between atoms: C_6  and  C_18
REMARK    2  A    between atoms: C_14  and  O_22
REMARK    3  A    between atoms: C_15  and  O_16
REMARK    4  A    between atoms: C_18  and  O_20
REMARK    5  A    between atoms: O_22  and  C_23
REMARK    6  A    between atoms: C_23  and  C_24
REMARK    7  A    between atoms: C_29  and  O_30
REMARK                            x       y       z     vdW  Elec       q    Type
REMARK                         _______ _______ _______ _____ _____    ______ ____
ROOT
ATOM      1  O   UNL     1      33.110 -15.440 -26.236  0.00  0.00    -0.421 OA
ATOM      2  O   UNL     1      32.416 -14.034 -27.891  0.00  0.00    -0.244 OA
ATOM      3  C   UNL     1      33.581 -13.222 -24.546  0.00  0.00    +0.009 A 
ATOM      4  C   UNL     1      33.844 -14.586 -24.068  0.00  0.00    +0.038 A 
ATOM      5  C   UNL     1      33.094 -13.030 -25.850  0.00  0.00    +0.076 A 
ATOM      6  C   UNL     1      33.048 -10.627 -25.543  0.00  0.00    +0.004 C 
ATOM      7  C   UNL     1      33.599 -15.657 -24.930  0.00  0.00    +0.152 A 
ATOM      8  C   UNL     1      32.829 -11.742 -26.344  0.00  0.00    +0.004 C 
ATOM      9  C   UNL     1      33.793 -12.074 -23.758  0.00  0.00    +0.000 C 
ATOM     10  C   UNL     1      34.330 -14.906 -22.791  0.00  0.00    +0.043 C 
ATOM     11  C   UNL     1      33.530 -10.792 -24.251  0.00  0.00    -0.002 C 
ATOM     12  C   UNL     1      32.841 -14.180 -26.751  0.00  0.00    +0.346 A 
ATOM     13  C   UNL     1      33.819 -16.990 -24.569  0.00  0.00    +0.078 C 
ATOM     14  C   UNL     1      34.302 -17.275 -23.298  0.00  0.00    +0.176 C 
ATOM     15  C   UNL     1      34.558 -16.235 -22.409  0.00  0.00    +0.173 C 
ENDROOT
BRANCH  15  16
ATOM     16  O   UNL     1      35.032 -16.499 -21.159  0.00  0.00    -0.468 OA
ATOM     17  C   UNL     1      34.594 -15.642 -20.107  0.00  0.00    +0.253 C 
ENDBRANCH  15  16
BRANCH   6  18
ATOM     18  C   UNL     1      32.768  -9.260 -26.069  0.00  0.00    +0.133 C 
ATOM     19  C   UNL     1      32.186  -8.323 -25.005  0.00  0.00    +0.037 C 
BRANCH  18  20
ATOM     20  O   UNL     1      33.973  -8.675 -26.579  0.00  0.00    -0.380 OA
ATOM     21  H   UNL     1      34.041  -7.757 -26.272  0.00  0.00    +0.211 HD
ENDBRANCH  18  20
ENDBRANCH   6  18
BRANCH  14  22
ATOM     22  O   UNL     1      34.521 -18.570 -22.936  0.00  0.00    -0.467 OA
BRANCH  22  23
ATOM     23  C   UNL     1      33.425 -19.275 -22.356  0.00  0.00    +0.232 C 
BRANCH  23  24
ATOM     24  C   UNL     1      33.926 -20.093 -21.201  0.00  0.00    +0.021 C 
ATOM     25  C   UNL     1      35.287 -20.136 -20.927  0.00  0.00    +0.002 C 
ATOM     26  C   UNL     1      33.022 -20.801 -20.416  0.00  0.00    +0.002 C 
ATOM     27  C   UNL     1      35.753 -20.896 -19.854  0.00  0.00    +0.037 C 
ATOM     28  C   UNL     1      33.487 -21.561 -19.343  0.00  0.00    +0.037 C 
ATOM     29  C   UNL     1      34.852 -21.608 -19.062  0.00  0.00    +0.139 C 
BRANCH  29  30
ATOM     30  O   UNL     1      35.307 -22.349 -18.015  0.00  0.00    -0.471 OA
ATOM     31  C   UNL     1      36.487 -21.892 -17.358  0.00  0.00    +0.252 C 
ENDBRANCH  29  30
ENDBRANCH  23  24
ENDBRANCH  22  23
ENDBRANCH  14  22
TORSDOF 7
ENDMDL
MODEL 5
REMARK VINA RESULT:     -10.9      2.915      9.232
REMARK  Name = 11998575
REMARK  7 active torsions:
REMARK  status: ('A' for Active; 'I' for Inactive)
REMARK    1  A    between atoms: C_6  and  C_18
REMARK    2  A    between atoms: C_14  and  O_22
REMARK    3  A    between atoms: C_15  and  O_16
REMARK    4  A    between atoms: C_18  and  O_20
REMARK    5  A    between atoms: O_22  and  C_23
REMARK    6  A    between atoms: C_23  and  C_24
REMARK    7  A    between atoms: C_29  and  O_30
REMARK                            x       y       z     vdW  Elec       q    Type
REMARK                         _______ _______ _______ _____ _____    ______ ____
ROOT
ATOM      1  O   UNL     1      37.051 -22.100 -17.518  0.00  0.00    -0.421 OA
ATOM      2  O   UNL     1      38.253 -22.814 -15.717  0.00  0.00    -0.244 OA
ATOM      3  C   UNL     1      34.668 -22.995 -16.285  0.00  0.00    +0.009 A 
ATOM      4  C   UNL     1      34.624 -22.364 -17.611  0.00  0.00    +0.038 A 
ATOM      5  C   UNL     1      35.904 -23.150 -15.636  0.00  0.00    +0.076 A 
ATOM      6  C   UNL     1      34.840 -24.200 -13.729  0.00  0.00    +0.004 C 
ATOM      7  C   UNL     1      35.821 -21.934 -18.189  0.00  0.00    +0.152 A 
ATOM      8  C   UNL     1      35.989 -23.748 -14.367  0.00  0.00    +0.004 C 
ATOM      9  C   UNL     1      33.521 -23.462 -15.614  0.00  0.00    +0.000 C 
ATOM     10  C   UNL     1      33.454 -22.154 -18.358  0.00  0.00    +0.043 C 
ATOM     11  C   UNL     1      33.606 -24.058 -14.352  0.00  0.00    -0.002 C 
ATOM     12  C   UNL     1      37.165 -22.689 -16.265  0.00  0.00    +0.346 A 
ATOM     13  C   UNL     1      35.883 -21.325 -19.445  0.00  0.00    +0.078 C 
ATOM     14  C   UNL     1      34.708 -21.131 -20.162  0.00  0.00    +0.176 C 
ATOM     15  C   UNL     1      33.495 -21.545 -19.620  0.00  0.00    +0.173 C 
ENDROOT
BRANCH  15  16
ATOM     16  O   UNL     1      32.334 -21.362 -20.310  0.00  0.00    -0.468 OA
ATOM     17  C   UNL     1      32.010 -20.027 -20.688  0.00  0.00    +0.253 C 
ENDBRANCH  15  16
BRANCH   6  18
ATOM     18  C   UNL     1      34.930 -24.836 -12.383  0.00  0.00    +0.133 C 
ATOM     19  C   UNL     1      36.341 -25.334 -12.057  0.00  0.00    +0.037 C 
BRANCH  18  20
ATOM     20  O   UNL     1      34.532 -23.902 -11.372  0.00  0.00    -0.380 OA
ATOM     21  H   UNL     1      33.599 -24.045 -11.150  0.00  0.00    +0.211 HD
ENDBRANCH  18  20
ENDBRANCH   6  18
BRANCH  14  22
ATOM     22  O   UNL     1      34.757 -20.539 -21.387  0.00  0.00    -0.467 OA
BRANCH  22  23
ATOM     23  C   UNL     1      35.323 -19.231 -21.454  0.00  0.00    +0.232 C 
BRANCH  23  24
ATOM     24  C   UNL     1      34.961 -18.608 -22.771  0.00  0.00    +0.021 C 
ATOM     25  C   UNL     1      34.575 -19.417 -23.832  0.00  0.00    +0.002 C 
ATOM     26  C   UNL     1      35.017 -17.225 -22.917  0.00  0.00    +0.002 C 
ATOM     27  C   UNL     1      34.239 -18.838 -25.057  0.00  0.00    +0.037 C 
ATOM     28  C   UNL     1      34.681 -16.646 -24.141  0.00  0.00    +0.037 C 
ATOM     29  C   UNL     1      34.292 -17.453 -25.210  0.00  0.00    +0.139 C 
BRANCH  29  30
ATOM     30  O   UNL     1      33.964 -16.888 -26.404  0.00  0.00    -0.471 OA
ATOM     31  C   UNL     1      33.303 -15.625 -26.366  0.00  0.00    +0.252 C 
ENDBRANCH  29  30
ENDBRANCH  23  24
ENDBRANCH  22  23
ENDBRANCH  14  22
TORSDOF 7
ENDMDL
MODEL 6
REMARK VINA RESULT:     -10.6      1.821      8.980
REMARK  Name = 11998575
REMARK  7 active torsions:
REMARK  status: ('A' for Active; 'I' for Inactive)
REMARK    1  A    between atoms: C_6  and  C_18
REMARK    2  A    between atoms: C_14  and  O_22
REMARK    3  A    between atoms: C_15  and  O_16
REMARK    4  A    between atoms: C_18  and  O_20
REMARK    5  A    between atoms: O_22  and  C_23
REMARK    6  A    between atoms: C_23  and  C_24
REMARK    7  A    between atoms: C_29  and  O_30
REMARK                            x       y       z     vdW  Elec       q    Type
REMARK                         _______ _______ _______ _____ _____    ______ ____
ROOT
ATOM      1  O   UNL     1      35.835 -22.757 -16.839  0.00  0.00    -0.421 OA
ATOM      2  O   UNL     1      35.839 -23.880 -14.855  0.00  0.00    -0.244 OA
ATOM      3  C   UNL     1      33.016 -22.962 -16.952  0.00  0.00    +0.009 A 
ATOM      4  C   UNL     1      33.753 -22.284 -18.026  0.00  0.00    +0.038 A 
ATOM      5  C   UNL     1      33.725 -23.508 -15.868  0.00  0.00    +0.076 A 
ATOM      6  C   UNL     1      31.673 -24.286 -14.840  0.00  0.00    +0.004 C 
ATOM      7  C   UNL     1      35.144 -22.201 -17.937  0.00  0.00    +0.152 A 
ATOM      8  C   UNL     1      33.058 -24.164 -14.820  0.00  0.00    +0.004 C 
ATOM      9  C   UNL     1      31.615 -23.101 -16.944  0.00  0.00    +0.000 C 
ATOM     10  C   UNL     1      33.160 -21.701 -19.158  0.00  0.00    +0.043 C 
ATOM     11  C   UNL     1      30.951 -23.755 -15.901  0.00  0.00    -0.002 C 
ATOM     12  C   UNL     1      35.202 -23.411 -15.790  0.00  0.00    +0.346 A 
ATOM     13  C   UNL     1      35.933 -21.578 -18.908  0.00  0.00    +0.078 C 
ATOM     14  C   UNL     1      35.318 -21.010 -20.017  0.00  0.00    +0.176 C 
ATOM     15  C   UNL     1      33.933 -21.072 -20.143  0.00  0.00    +0.173 C 
ENDROOT
BRANCH  15  16
ATOM     16  O   UNL     1      33.314 -20.520 -21.225  0.00  0.00    -0.468 OA
ATOM     17  C   UNL     1      32.069 -19.866 -20.994  0.00  0.00    +0.253 C 
ENDBRANCH  15  16
BRANCH   6  18
ATOM     18  C   UNL     1      30.965 -24.983 -13.729  0.00  0.00    +0.133 C 
ATOM     19  C   UNL     1      30.401 -24.014 -12.684  0.00  0.00    +0.037 C 
BRANCH  18  20
ATOM     20  O   UNL     1      29.885 -25.768 -14.250  0.00  0.00    -0.380 OA
ATOM     21  H   UNL     1      29.884 -26.638 -13.823  0.00  0.00    +0.211 HD
ENDBRANCH  18  20
ENDBRANCH   6  18
BRANCH  14  22
ATOM     22  O   UNL     1      36.077 -20.402 -20.970  0.00  0.00    -0.467 OA
BRANCH  22  23
ATOM     23  C   UNL     1      36.362 -19.016 -20.784  0.00  0.00    +0.232 C 
BRANCH  23  24
ATOM     24  C   UNL     1      35.664 -18.225 -21.852  0.00  0.00    +0.021 C 
ATOM     25  C   UNL     1      35.530 -18.760 -23.128  0.00  0.00    +0.002 C 
ATOM     26  C   UNL     1      35.160 -16.963 -21.555  0.00  0.00    +0.002 C 
ATOM     27  C   UNL     1      34.881 -18.025 -24.121  0.00  0.00    +0.037 C 
ATOM     28  C   UNL     1      34.512 -16.228 -22.548  0.00  0.00    +0.037 C 
ATOM     29  C   UNL     1      34.373 -16.759 -23.830  0.00  0.00    +0.139 C 
BRANCH  29  30
ATOM     30  O   UNL     1      33.740 -16.042 -24.798  0.00  0.00    -0.471 OA
ATOM     31  C   UNL     1      33.398 -14.692 -24.489  0.00  0.00    +0.252 C 
ENDBRANCH  29  30
ENDBRANCH  23  24
ENDBRANCH  22  23
ENDBRANCH  14  22
TORSDOF 7
ENDMDL
MODEL 7
REMARK VINA RESULT:     -10.6      2.645      4.541
REMARK  Name = 11998575
REMARK  7 active torsions:
REMARK  status: ('A' for Active; 'I' for Inactive)
REMARK    1  A    between atoms: C_6  and  C_18
REMARK    2  A    between atoms: C_14  and  O_22
REMARK    3  A    between atoms: C_15  and  O_16
REMARK    4  A    between atoms: C_18  and  O_20
REMARK    5  A    between atoms: O_22  and  C_23
REMARK    6  A    between atoms: C_23  and  C_24
REMARK    7  A    between atoms: C_29  and  O_30
REMARK                            x       y       z     vdW  Elec       q    Type
REMARK                         _______ _______ _______ _____ _____    ______ ____
ROOT
ATOM      1  O   UNL     1      32.169 -21.108 -20.268  0.00  0.00    -0.421 OA
ATOM      2  O   UNL     1      31.346 -19.858 -21.988  0.00  0.00    -0.244 OA
ATOM      3  C   UNL     1      34.748 -20.041 -20.724  0.00  0.00    +0.009 A 
ATOM      4  C   UNL     1      34.529 -21.017 -19.648  0.00  0.00    +0.038 A 
ATOM      5  C   UNL     1      33.664 -19.643 -21.525  0.00  0.00    +0.076 A 
ATOM      6  C   UNL     1      35.083 -18.166 -22.818  0.00  0.00    +0.004 C 
ATOM      7  C   UNL     1      33.242 -21.522 -19.452  0.00  0.00    +0.152 A 
ATOM      8  C   UNL     1      33.831 -18.712 -22.563  0.00  0.00    +0.004 C 
ATOM      9  C   UNL     1      36.004 -19.470 -21.006  0.00  0.00    +0.000 C 
ATOM     10  C   UNL     1      35.529 -21.492 -18.784  0.00  0.00    +0.043 C 
ATOM     11  C   UNL     1      36.170 -18.544 -22.040  0.00  0.00    -0.002 C 
ATOM     12  C   UNL     1      32.304 -20.191 -21.302  0.00  0.00    +0.346 A 
ATOM     13  C   UNL     1      32.935 -22.454 -18.457  0.00  0.00    +0.078 C 
ATOM     14  C   UNL     1      33.945 -22.906 -17.617  0.00  0.00    +0.176 C 
ATOM     15  C   UNL     1      35.241 -22.426 -17.780  0.00  0.00    +0.173 C 
ENDROOT
BRANCH  15  16
ATOM     16  O   UNL     1      36.244 -22.860 -16.965  0.00  0.00    -0.468 OA
ATOM     17  C   UNL     1      37.222 -21.899 -16.575  0.00  0.00    +0.253 C 
ENDBRANCH  15  16
BRANCH   6  18
ATOM     18  C   UNL     1      35.260 -17.179 -23.921  0.00  0.00    +0.133 C 
ATOM     19  C   UNL     1      34.139 -17.248 -24.964  0.00  0.00    +0.037 C 
BRANCH  18  20
ATOM     20  O   UNL     1      35.304 -15.849 -23.388  0.00  0.00    -0.380 OA
ATOM     21  H   UNL     1      36.227 -15.563 -23.311  0.00  0.00    +0.211 HD
ENDBRANCH  18  20
ENDBRANCH   6  18
BRANCH  14  22
ATOM     22  O   UNL     1      33.656 -23.815 -16.645  0.00  0.00    -0.467 OA
BRANCH  22  23
ATOM     23  C   UNL     1      33.839 -23.399 -15.293  0.00  0.00    +0.232 C 
BRANCH  23  24
ATOM     24  C   UNL     1      35.060 -24.071 -14.735  0.00  0.00    +0.021 C 
ATOM     25  C   UNL     1      35.829 -23.419 -13.779  0.00  0.00    +0.002 C 
ATOM     26  C   UNL     1      35.411 -25.341 -15.182  0.00  0.00    +0.002 C 
ATOM     27  C   UNL     1      36.964 -24.044 -13.260  0.00  0.00    +0.037 C 
ATOM     28  C   UNL     1      36.546 -25.965 -14.664  0.00  0.00    +0.037 C 
ATOM     29  C   UNL     1      37.322 -25.317 -13.704  0.00  0.00    +0.139 C 
BRANCH  29  30
ATOM     30  O   UNL     1      38.429 -25.926 -13.198  0.00  0.00    -0.471 OA
ATOM     31  C   UNL     1      39.606 -25.908 -14.004  0.00  0.00    +0.252 C 
ENDBRANCH  29  30
ENDBRANCH  23  24
ENDBRANCH  22  23
ENDBRANCH  14  22
TORSDOF 7
ENDMDL
MODEL 8
REMARK VINA RESULT:     -10.6      5.565     12.133
REMARK  Name = 11998575
REMARK  7 active torsions:
REMARK  status: ('A' for Active; 'I' for Inactive)
REMARK    1  A    between atoms: C_6  and  C_18
REMARK    2  A    between atoms: C_14  and  O_22
REMARK    3  A    between atoms: C_15  and  O_16
REMARK    4  A    between atoms: C_18  and  O_20
REMARK    5  A    between atoms: O_22  and  C_23
REMARK    6  A    between atoms: C_23  and  C_24
REMARK    7  A    between atoms: C_29  and  O_30
REMARK                            x       y       z     vdW  Elec       q    Type
REMARK                         _______ _______ _______ _____ _____    ______ ____
ROOT
ATOM      1  O   UNL     1      34.178 -14.382 -22.201  0.00  0.00    -0.421 OA
ATOM      2  O   UNL     1      34.814 -15.267 -20.199  0.00  0.00    -0.244 OA
ATOM      3  C   UNL     1      34.215 -16.963 -23.356  0.00  0.00    +0.009 A 
ATOM      4  C   UNL     1      33.852 -15.794 -24.167  0.00  0.00    +0.038 A 
ATOM      5  C   UNL     1      34.544 -16.787 -22.001  0.00  0.00    +0.076 A 
ATOM      6  C   UNL     1      34.925 -19.164 -21.723  0.00  0.00    +0.004 C 
ATOM      7  C   UNL     1      33.844 -14.535 -23.564  0.00  0.00    +0.152 A 
ATOM      8  C   UNL     1      34.896 -17.879 -21.192  0.00  0.00    +0.004 C 
ATOM      9  C   UNL     1      34.254 -18.275 -23.866  0.00  0.00    +0.000 C 
ATOM     10  C   UNL     1      33.506 -15.840 -25.528  0.00  0.00    +0.043 C 
ATOM     11  C   UNL     1      34.605 -19.362 -23.059  0.00  0.00    -0.002 C 
ATOM     12  C   UNL     1      34.531 -15.442 -21.377  0.00  0.00    +0.346 A 
ATOM     13  C   UNL     1      33.515 -13.363 -24.251  0.00  0.00    +0.078 C 
ATOM     14  C   UNL     1      33.177 -13.441 -25.597  0.00  0.00    +0.176 C 
ATOM     15  C   UNL     1      33.172 -14.677 -26.235  0.00  0.00    +0.173 C 
ENDROOT
BRANCH  15  16
ATOM     16  O   UNL     1      32.844 -14.771 -27.555  0.00  0.00    -0.468 OA
ATOM     17  C   UNL     1      31.513 -15.180 -27.862  0.00  0.00    +0.253 C 
ENDBRANCH  15  16
BRANCH   6  18
ATOM     18  C   UNL     1      35.301 -20.323 -20.863  0.00  0.00    +0.133 C 
ATOM     19  C   UNL     1      36.636 -20.116 -20.140  0.00  0.00    +0.037 C 
BRANCH  18  20
ATOM     20  O   UNL     1      34.283 -20.555 -19.881  0.00  0.00    -0.380 OA
ATOM     21  H   UNL     1      34.660 -20.444 -18.995  0.00  0.00    +0.211 HD
ENDBRANCH  18  20
ENDBRANCH   6  18
BRANCH  14  22
ATOM     22  O   UNL     1      32.855 -12.306 -26.277  0.00  0.00    -0.467 OA
BRANCH  22  23
ATOM     23  C   UNL     1      33.909 -11.376 -26.523  0.00  0.00    +0.232 C 
BRANCH  23  24
ATOM     24  C   UNL     1      33.872 -10.305 -25.472  0.00  0.00    +0.021 C 
ATOM     25  C   UNL     1      35.061  -9.786 -24.975  0.00  0.00    +0.002 C 
ATOM     26  C   UNL     1      32.646  -9.843 -25.004  0.00  0.00    +0.002 C 
ATOM     27  C   UNL     1      35.026  -8.790 -23.998  0.00  0.00    +0.037 C 
ATOM     28  C   UNL     1      32.611  -8.848 -24.027  0.00  0.00    +0.037 C 
ATOM     29  C   UNL     1      33.801  -8.322 -23.524  0.00  0.00    +0.139 C 
BRANCH  29  30
ATOM     30  O   UNL     1      33.767  -7.350 -22.571  0.00  0.00    -0.471 OA
ATOM     31  C   UNL     1      33.052  -7.642 -21.372  0.00  0.00    +0.252 C 
ENDBRANCH  29  30
ENDBRANCH  23  24
ENDBRANCH  22  23
ENDBRANCH  14  22
TORSDOF 7
ENDMDL
MODEL 9
REMARK VINA RESULT:     -10.4      2.456      4.737
REMARK  Name = 11998575
REMARK  7 active torsions:
REMARK  status: ('A' for Active; 'I' for Inactive)
REMARK    1  A    between atoms: C_6  and  C_18
REMARK    2  A    between atoms: C_14  and  O_22
REMARK    3  A    between atoms: C_15  and  O_16
REMARK    4  A    between atoms: C_18  and  O_20
REMARK    5  A    between atoms: O_22  and  C_23
REMARK    6  A    between atoms: C_23  and  C_24
REMARK    7  A    between atoms: C_29  and  O_30
REMARK                            x       y       z     vdW  Elec       q    Type
REMARK                         _______ _______ _______ _____ _____    ______ ____
ROOT
ATOM      1  O   UNL     1      36.856 -20.065 -20.290  0.00  0.00    -0.421 OA
ATOM      2  O   UNL     1      37.951 -18.657 -21.711  0.00  0.00    -0.244 OA
ATOM      3  C   UNL     1      34.457 -19.655 -21.730  0.00  0.00    +0.009 A 
ATOM      4  C   UNL     1      34.477 -20.544 -20.562  0.00  0.00    +0.038 A 
ATOM      5  C   UNL     1      35.641 -19.009 -22.125  0.00  0.00    +0.076 A 
ATOM      6  C   UNL     1      34.504 -17.924 -23.970  0.00  0.00    +0.004 C 
ATOM      7  C   UNL     1      35.680 -20.723 -19.875  0.00  0.00    +0.152 A 
ATOM      8  C   UNL     1      35.664 -18.150 -23.237  0.00  0.00    +0.004 C 
ATOM      9  C   UNL     1      33.299 -19.405 -22.492  0.00  0.00    +0.000 C 
ATOM     10  C   UNL     1      33.363 -21.243 -20.070  0.00  0.00    +0.043 C 
ATOM     11  C   UNL     1      33.322 -18.550 -23.598  0.00  0.00    -0.002 C 
ATOM     12  C   UNL     1      36.909 -19.210 -21.383  0.00  0.00    +0.346 A 
ATOM     13  C   UNL     1      35.800 -21.548 -18.753  0.00  0.00    +0.078 C 
ATOM     14  C   UNL     1      34.680 -22.226 -18.288  0.00  0.00    +0.176 C 
ATOM     15  C   UNL     1      33.462 -22.074 -18.945  0.00  0.00    +0.173 C 
ENDROOT
BRANCH  15  16
ATOM     16  O   UNL     1      32.354 -22.733 -18.503  0.00  0.00    -0.468 OA
ATOM     17  C   UNL     1      32.105 -22.709 -17.099  0.00  0.00    +0.253 C 
ENDBRANCH  15  16
BRANCH   6  18
ATOM     18  C   UNL     1      34.529 -17.011 -25.149  0.00  0.00    +0.133 C 
ATOM     19  C   UNL     1      33.570 -17.453 -26.259  0.00  0.00    +0.037 C 
BRANCH  18  20
ATOM     20  O   UNL     1      34.178 -15.681 -24.747  0.00  0.00    -0.380 OA
ATOM     21  H   UNL     1      34.863 -15.063 -25.046  0.00  0.00    +0.211 HD
ENDBRANCH  18  20
ENDBRANCH   6  18
BRANCH  14  22
ATOM     22  O   UNL     1      34.785 -23.030 -17.195  0.00  0.00    -0.467 OA
BRANCH  22  23
ATOM     23  C   UNL     1      35.909 -22.821 -16.341  0.00  0.00    +0.232 C 
BRANCH  23  24
ATOM     24  C   UNL     1      35.604 -23.385 -14.984  0.00  0.00    +0.021 C 
ATOM     25  C   UNL     1      36.617 -23.491 -14.039  0.00  0.00    +0.002 C 
ATOM     26  C   UNL     1      34.309 -23.799 -14.686  0.00  0.00    +0.002 C 
ATOM     27  C   UNL     1      36.333 -24.016 -12.777  0.00  0.00    +0.037 C 
ATOM     28  C   UNL     1      34.026 -24.325 -13.425  0.00  0.00    +0.037 C 
ATOM     29  C   UNL     1      35.037 -24.433 -12.471  0.00  0.00    +0.139 C 
BRANCH  29  30
ATOM     30  O   UNL     1      34.761 -24.945 -11.241  0.00  0.00    -0.471 OA
ATOM     31  C   UNL     1      35.376 -24.312 -10.120  0.00  0.00    +0.252 C 
ENDBRANCH  29  30
ENDBRANCH  23  24
ENDBRANCH  22  23
ENDBRANCH  14  22
TORSDOF 7
ENDMDL
