MODEL 1
REMARK VINA RESULT:     -13.0      0.000      0.000
REMARK  Name = 447736
REMARK  4 active torsions:
REMARK  status: ('A' for Active; 'I' for Inactive)
REMARK    1  A    between atoms: N_2  and  C_13
REMARK    2  A    between atoms: C_3  and  C_20
REMARK    3  A    between atoms: C_6  and  C_17
REMARK    4  A    between atoms: C_28  and  C_32
REMARK                            x       y       z     vdW  Elec       q    Type
REMARK                         _______ _______ _______ _____ _____    ______ ____
ROOT
ATOM      1  O   UNL     1      33.420 -23.811 -18.111  0.00  0.00    -0.270 OA
ATOM      2  N   UNL     1      34.605 -22.284 -16.772  0.00  0.00    -0.280 N 
ATOM      3  C   UNL     1      33.942 -22.717 -17.929  0.00  0.00    +0.249 C 
ATOM      4  H   UNL     1      34.967 -21.369 -16.799  0.00  0.00    +0.155 HD
ENDROOT
BRANCH   2  13
ATOM      5  N   UNL     1      37.755 -25.605 -12.601  0.00  0.00    +0.388 N 
ATOM      6  C   UNL     1      37.733 -24.624 -13.704  0.00  0.00    -0.039 C 
ATOM      7  C   UNL     1      36.332 -24.160 -14.080  0.00  0.00    -0.045 C 
ATOM      8  C   UNL     1      35.252 -24.379 -13.200  0.00  0.00    -0.030 C 
ATOM      9  C   UNL     1      35.453 -25.129 -11.908  0.00  0.00    +0.003 C 
ATOM     10  C   UNL     1      36.920 -25.158 -11.487  0.00  0.00    -0.076 C 
ATOM     11  C   UNL     1      36.098 -23.439 -15.262  0.00  0.00    +0.008 C 
ATOM     12  C   UNL     1      33.965 -23.937 -13.542  0.00  0.00    -0.003 C 
ATOM     13  C   UNL     1      34.815 -22.992 -15.588  0.00  0.00    +0.050 C 
ATOM     14  C   UNL     1      33.749 -23.246 -14.732  0.00  0.00    +0.014 C 
ATOM     15  H   UNL     1      38.714 -25.717 -12.273  0.00  0.00    -0.084 HD
ATOM     16  H   UNL     1      37.388 -26.492 -12.946  0.00  0.00    -0.084 HD
BRANCH   6  17
ATOM     17  C   UNL     1      38.494 -25.263 -14.873  0.00  0.00    -0.015 C 
ATOM     18  C   UNL     1      39.971 -25.412 -14.526  0.00  0.00    -0.002 C 
ATOM     19  C   UNL     1      37.881 -26.613 -15.230  0.00  0.00    -0.002 C 
ENDBRANCH   6  17
ENDBRANCH   2  13
BRANCH   3  20
ATOM     20  C   UNL     1      33.906 -21.737 -19.045  0.00  0.00    +0.054 C 
ATOM     21  C   UNL     1      35.072 -20.236 -20.520  0.00  0.00    +0.000 C 
ATOM     22  C   UNL     1      35.089 -21.166 -19.466  0.00  0.00    +0.005 C 
ATOM     23  C   UNL     1      33.839 -19.902 -21.129  0.00  0.00    +0.000 C 
ATOM     24  C   UNL     1      32.695 -21.429 -19.620  0.00  0.00    +0.005 C 
ATOM     25  C   UNL     1      32.659 -20.508 -20.667  0.00  0.00    +0.000 C 
ATOM     26  C   UNL     1      33.822 -18.973 -22.181  0.00  0.00    +0.003 C 
ATOM     27  C   UNL     1      36.252 -19.631 -20.981  0.00  0.00    +0.000 C 
ATOM     28  C   UNL     1      35.004 -18.382 -22.628  0.00  0.00    +0.031 C 
ATOM     29  C   UNL     1      36.217 -18.710 -22.028  0.00  0.00    +0.003 C 
BRANCH  28  32
ATOM     30  N   UNL     1      34.503 -17.775 -24.983  0.00  0.00    -0.343 N 
ATOM     31  N   UNL     1      35.388 -16.184 -23.519  0.00  0.00    -0.285 NA
ATOM     32  C   UNL     1      34.969 -17.421 -23.718  0.00  0.00    +0.117 C 
ATOM     33  H   UNL     1      34.487 -17.108 -25.707  0.00  0.00    +0.144 HD
ATOM     34  H   UNL     1      34.188 -18.693 -25.152  0.00  0.00    +0.144 HD
ATOM     35  H   UNL     1      35.365 -15.532 -24.256  0.00  0.00    +0.188 HD
ENDBRANCH  28  32
ENDBRANCH   3  20
TORSDOF 4
ENDMDL
MODEL 2
REMARK VINA RESULT:     -12.2      2.955     11.334
REMARK  Name = 447736
REMARK  4 active torsions:
REMARK  status: ('A' for Active; 'I' for Inactive)
REMARK    1  A    between atoms: N_2  and  C_13
REMARK    2  A    between atoms: C_3  and  C_20
REMARK    3  A    between atoms: C_6  and  C_17
REMARK    4  A    between atoms: C_28  and  C_32
REMARK                            x       y       z     vdW  Elec       q    Type
REMARK                         _______ _______ _______ _____ _____    ______ ____
ROOT
ATOM      1  O   UNL     1      32.284 -19.783 -21.776  0.00  0.00    -0.270 OA
ATOM      2  N   UNL     1      34.239 -18.926 -22.760  0.00  0.00    -0.280 N 
ATOM      3  C   UNL     1      33.501 -19.638 -21.805  0.00  0.00    +0.249 C 
ATOM      4  H   UNL     1      35.215 -18.912 -22.629  0.00  0.00    +0.155 HD
ENDROOT
BRANCH   2  13
ATOM      5  N   UNL     1      32.699 -13.993 -26.174  0.00  0.00    +0.388 N 
ATOM      6  C   UNL     1      33.507 -14.606 -25.101  0.00  0.00    -0.039 C 
ATOM      7  C   UNL     1      33.376 -16.122 -25.028  0.00  0.00    -0.045 C 
ATOM      8  C   UNL     1      32.836 -16.841 -26.115  0.00  0.00    -0.030 C 
ATOM      9  C   UNL     1      32.324 -16.118 -27.335  0.00  0.00    +0.003 C 
ATOM     10  C   UNL     1      32.885 -14.703 -27.439  0.00  0.00    -0.076 C 
ATOM     11  C   UNL     1      33.859 -16.841 -23.922  0.00  0.00    +0.008 C 
ATOM     12  C   UNL     1      32.732 -18.238 -26.051  0.00  0.00    -0.003 C 
ATOM     13  C   UNL     1      33.761 -18.233 -23.873  0.00  0.00    +0.050 C 
ATOM     14  C   UNL     1      33.192 -18.930 -24.933  0.00  0.00    +0.014 C 
ATOM     15  H   UNL     1      32.984 -13.021 -26.293  0.00  0.00    -0.084 HD
ATOM     16  H   UNL     1      31.715 -14.049 -25.913  0.00  0.00    -0.084 HD
BRANCH   6  17
ATOM     17  C   UNL     1      33.111 -13.900 -23.798  0.00  0.00    -0.015 C 
ATOM     18  C   UNL     1      34.250 -13.976 -22.787  0.00  0.00    -0.002 C 
ATOM     19  C   UNL     1      32.727 -12.451 -24.075  0.00  0.00    -0.002 C 
ENDBRANCH   6  17
ENDBRANCH   2  13
BRANCH   3  20
ATOM     20  C   UNL     1      34.299 -20.250 -20.711  0.00  0.00    +0.054 C 
ATOM     21  C   UNL     1      34.404 -21.660 -18.766  0.00  0.00    +0.000 C 
ATOM     22  C   UNL     1      33.663 -21.075 -19.807  0.00  0.00    +0.005 C 
ATOM     23  C   UNL     1      35.790 -21.390 -18.665  0.00  0.00    +0.000 C 
ATOM     24  C   UNL     1      35.644 -19.971 -20.635  0.00  0.00    +0.005 C 
ATOM     25  C   UNL     1      36.395 -20.543 -19.608  0.00  0.00    +0.000 C 
ATOM     26  C   UNL     1      36.529 -21.975 -17.624  0.00  0.00    +0.003 C 
ATOM     27  C   UNL     1      33.799 -22.507 -17.823  0.00  0.00    +0.000 C 
ATOM     28  C   UNL     1      35.912 -22.814 -16.697  0.00  0.00    +0.031 C 
ATOM     29  C   UNL     1      34.549 -23.080 -16.796  0.00  0.00    +0.003 C 
BRANCH  28  32
ATOM     30  N   UNL     1      36.086 -23.875 -14.459  0.00  0.00    -0.343 N 
ATOM     31  N   UNL     1      38.003 -23.518 -15.746  0.00  0.00    -0.285 NA
ATOM     32  C   UNL     1      36.692 -23.411 -15.624  0.00  0.00    +0.117 C 
ATOM     33  H   UNL     1      36.633 -24.277 -13.745  0.00  0.00    +0.144 HD
ATOM     34  H   UNL     1      35.110 -23.802 -14.349  0.00  0.00    +0.144 HD
ATOM     35  H   UNL     1      38.533 -23.923 -15.021  0.00  0.00    +0.188 HD
ENDBRANCH  28  32
ENDBRANCH   3  20
TORSDOF 4
ENDMDL
MODEL 3
REMARK VINA RESULT:     -11.9      0.731      1.510
REMARK  Name = 447736
REMARK  4 active torsions:
REMARK  status: ('A' for Active; 'I' for Inactive)
REMARK    1  A    between atoms: N_2  and  C_13
REMARK    2  A    between atoms: C_3  and  C_20
REMARK    3  A    between atoms: C_6  and  C_17
REMARK    4  A    between atoms: C_28  and  C_32
REMARK                            x       y       z     vdW  Elec       q    Type
REMARK                         _______ _______ _______ _____ _____    ______ ____
ROOT
ATOM      1  O   UNL     1      34.036 -23.254 -18.450  0.00  0.00    -0.270 OA
ATOM      2  N   UNL     1      35.442 -22.030 -17.017  0.00  0.00    -0.280 N 
ATOM      3  C   UNL     1      34.769 -22.299 -18.216  0.00  0.00    +0.249 C 
ATOM      4  H   UNL     1      35.992 -21.213 -17.004  0.00  0.00    +0.155 HD
ENDROOT
BRANCH   2  13
ATOM      5  N   UNL     1      37.669 -25.790 -12.629  0.00  0.00    +0.388 N 
ATOM      6  C   UNL     1      37.892 -24.796 -13.697  0.00  0.00    -0.039 C 
ATOM      7  C   UNL     1      36.610 -24.152 -14.210  0.00  0.00    -0.045 C 
ATOM      8  C   UNL     1      35.419 -24.249 -13.461  0.00  0.00    -0.030 C 
ATOM      9  C   UNL     1      35.380 -25.040 -12.179  0.00  0.00    +0.003 C 
ATOM     10  C   UNL     1      36.775 -25.260 -11.600  0.00  0.00    -0.076 C 
ATOM     11  C   UNL     1      36.602 -23.388 -15.388  0.00  0.00    +0.008 C 
ATOM     12  C   UNL     1      34.244 -23.643 -13.929  0.00  0.00    -0.003 C 
ATOM     13  C   UNL     1      35.429 -22.778 -15.839  0.00  0.00    +0.050 C 
ATOM     14  C   UNL     1      34.250 -22.910 -15.114  0.00  0.00    +0.014 C 
ATOM     15  H   UNL     1      38.564 -26.027 -12.202  0.00  0.00    -0.084 HD
ATOM     16  H   UNL     1      37.237 -26.618 -13.039  0.00  0.00    -0.084 HD
BRANCH   6  17
ATOM     17  C   UNL     1      38.695 -25.505 -14.795  0.00  0.00    -0.015 C 
ATOM     18  C   UNL     1      40.145 -25.685 -14.359  0.00  0.00    -0.002 C 
ATOM     19  C   UNL     1      38.059 -26.849 -15.132  0.00  0.00    -0.002 C 
ENDBRANCH   6  17
ENDBRANCH   2  13
BRANCH   3  20
ATOM     20  C   UNL     1      35.006 -21.322 -19.311  0.00  0.00    +0.054 C 
ATOM     21  C   UNL     1      34.154 -20.034 -21.156  0.00  0.00    +0.000 C 
ATOM     22  C   UNL     1      33.947 -20.956 -20.115  0.00  0.00    +0.005 C 
ATOM     23  C   UNL     1      35.449 -19.499 -21.358  0.00  0.00    +0.000 C 
ATOM     24  C   UNL     1      36.273 -20.817 -19.487  0.00  0.00    +0.005 C 
ATOM     25  C   UNL     1      36.498 -19.901 -20.515  0.00  0.00    +0.000 C 
ATOM     26  C   UNL     1      35.656 -18.579 -22.398  0.00  0.00    +0.003 C 
ATOM     27  C   UNL     1      33.106 -19.633 -21.998  0.00  0.00    +0.000 C 
ATOM     28  C   UNL     1      34.603 -18.190 -23.225  0.00  0.00    +0.031 C 
ATOM     29  C   UNL     1      33.330 -18.717 -23.026  0.00  0.00    +0.003 C 
BRANCH  28  32
ATOM     30  N   UNL     1      34.447 -17.511 -25.609  0.00  0.00    -0.343 N 
ATOM     31  N   UNL     1      35.425 -16.083 -24.038  0.00  0.00    -0.285 NA
ATOM     32  C   UNL     1      34.834 -17.236 -24.298  0.00  0.00    +0.117 C 
ATOM     33  H   UNL     1      34.613 -16.850 -26.320  0.00  0.00    +0.144 HD
ATOM     34  H   UNL     1      34.008 -18.365 -25.823  0.00  0.00    +0.144 HD
ATOM     35  H   UNL     1      35.582 -15.436 -24.763  0.00  0.00    +0.188 HD
ENDBRANCH  28  32
ENDBRANCH   3  20
TORSDOF 4
ENDMDL
MODEL 4
REMARK VINA RESULT:     -11.6      2.624      4.631
REMARK  Name = 447736
REMARK  4 active torsions:
REMARK  status: ('A' for Active; 'I' for Inactive)
REMARK    1  A    between atoms: N_2  and  C_13
REMARK    2  A    between atoms: C_3  and  C_20
REMARK    3  A    between atoms: C_6  and  C_17
REMARK    4  A    between atoms: C_28  and  C_32
REMARK                            x       y       z     vdW  Elec       q    Type
REMARK                         _______ _______ _______ _____ _____    ______ ____
ROOT
ATOM      1  O   UNL     1      36.839 -19.432 -19.861  0.00  0.00    -0.270 OA
ATOM      2  N   UNL     1      34.941 -20.807 -19.677  0.00  0.00    -0.280 N 
ATOM      3  C   UNL     1      35.749 -19.822 -20.262  0.00  0.00    +0.249 C 
ATOM      4  H   UNL     1      34.090 -20.996 -20.135  0.00  0.00    +0.155 HD
ENDROOT
BRANCH   2  13
ATOM      5  N   UNL     1      33.600 -24.241 -14.701  0.00  0.00    +0.388 N 
ATOM      6  C   UNL     1      33.258 -23.758 -16.054  0.00  0.00    -0.039 C 
ATOM      7  C   UNL     1      34.383 -22.986 -16.729  0.00  0.00    -0.045 C 
ATOM      8  C   UNL     1      35.701 -23.075 -16.236  0.00  0.00    -0.030 C 
ATOM      9  C   UNL     1      36.005 -23.883 -15.000  0.00  0.00    +0.003 C 
ATOM     10  C   UNL     1      34.906 -24.898 -14.695  0.00  0.00    -0.076 C 
ATOM     11  C   UNL     1      34.153 -22.237 -17.895  0.00  0.00    +0.008 C 
ATOM     12  C   UNL     1      36.738 -22.374 -16.869  0.00  0.00    -0.003 C 
ATOM     13  C   UNL     1      35.195 -21.552 -18.525  0.00  0.00    +0.050 C 
ATOM     14  C   UNL     1      36.484 -21.616 -18.009  0.00  0.00    +0.014 C 
ATOM     15  H   UNL     1      32.891 -24.908 -14.395  0.00  0.00    -0.084 HD
ATOM     16  H   UNL     1      33.635 -23.441 -14.069  0.00  0.00    -0.084 HD
BRANCH   6  17
ATOM     17  C   UNL     1      31.963 -22.947 -15.915  0.00  0.00    -0.015 C 
ATOM     18  C   UNL     1      30.871 -23.534 -16.801  0.00  0.00    -0.002 C 
ATOM     19  C   UNL     1      31.517 -22.907 -14.458  0.00  0.00    -0.002 C 
ENDBRANCH   6  17
ENDBRANCH   2  13
BRANCH   3  20
ATOM     20  C   UNL     1      35.188 -19.182 -21.481  0.00  0.00    +0.054 C 
ATOM     21  C   UNL     1      34.622 -17.183 -22.693  0.00  0.00    +0.000 C 
ATOM     22  C   UNL     1      35.150 -17.804 -21.549  0.00  0.00    +0.005 C 
ATOM     23  C   UNL     1      34.138 -17.984 -23.755  0.00  0.00    +0.000 C 
ATOM     24  C   UNL     1      34.724 -19.982 -22.498  0.00  0.00    +0.005 C 
ATOM     25  C   UNL     1      34.196 -19.383 -23.641  0.00  0.00    +0.000 C 
ATOM     26  C   UNL     1      33.610 -17.363 -24.898  0.00  0.00    +0.003 C 
ATOM     27  C   UNL     1      34.565 -15.785 -22.807  0.00  0.00    +0.000 C 
ATOM     28  C   UNL     1      33.562 -15.972 -24.995  0.00  0.00    +0.031 C 
ATOM     29  C   UNL     1      34.038 -15.185 -23.950  0.00  0.00    +0.003 C 
BRANCH  28  32
ATOM     30  N   UNL     1      32.483 -14.055 -26.147  0.00  0.00    -0.343 N 
ATOM     31  N   UNL     1      33.004 -16.001 -27.332  0.00  0.00    -0.285 NA
ATOM     32  C   UNL     1      33.011 -15.345 -26.185  0.00  0.00    +0.117 C 
ATOM     33  H   UNL     1      32.117 -13.649 -26.965  0.00  0.00    +0.144 HD
ATOM     34  H   UNL     1      32.478 -13.551 -25.302  0.00  0.00    +0.144 HD
ATOM     35  H   UNL     1      32.631 -15.577 -28.139  0.00  0.00    +0.188 HD
ENDBRANCH  28  32
ENDBRANCH   3  20
TORSDOF 4
ENDMDL
MODEL 5
REMARK VINA RESULT:     -11.4      7.385     14.838
REMARK  Name = 447736
REMARK  4 active torsions:
REMARK  status: ('A' for Active; 'I' for Inactive)
REMARK    1  A    between atoms: N_2  and  C_13
REMARK    2  A    between atoms: C_3  and  C_20
REMARK    3  A    between atoms: C_6  and  C_17
REMARK    4  A    between atoms: C_28  and  C_32
REMARK                            x       y       z     vdW  Elec       q    Type
REMARK                         _______ _______ _______ _____ _____    ______ ____
ROOT
ATOM      1  O   UNL     1      32.821 -13.142 -25.090  0.00  0.00    -0.270 OA
ATOM      2  N   UNL     1      34.401 -11.795 -23.987  0.00  0.00    -0.280 N 
ATOM      3  C   UNL     1      33.692 -12.977 -24.243  0.00  0.00    +0.249 C 
ATOM      4  H   UNL     1      35.070 -11.841 -23.265  0.00  0.00    +0.155 HD
ENDROOT
BRANCH   2  13
ATOM      5  N   UNL     1      32.382  -6.007 -24.866  0.00  0.00    +0.388 N 
ATOM      6  C   UNL     1      32.695  -7.131 -23.960  0.00  0.00    -0.039 C 
ATOM      7  C   UNL     1      33.431  -8.277 -24.641  0.00  0.00    -0.045 C 
ATOM      8  C   UNL     1      34.051  -8.079 -25.892  0.00  0.00    -0.030 C 
ATOM      9  C   UNL     1      33.942  -6.753 -26.601  0.00  0.00    +0.003 C 
ATOM     10  C   UNL     1      33.556  -5.625 -25.649  0.00  0.00    -0.076 C 
ATOM     11  C   UNL     1      33.577  -9.524 -24.011  0.00  0.00    +0.008 C 
ATOM     12  C   UNL     1      34.741  -9.132 -26.510  0.00  0.00    -0.003 C 
ATOM     13  C   UNL     1      34.276 -10.562 -24.629  0.00  0.00    +0.050 C 
ATOM     14  C   UNL     1      34.852 -10.369 -25.879  0.00  0.00    +0.014 C 
ATOM     15  H   UNL     1      32.076  -5.207 -24.312  0.00  0.00    -0.084 HD
ATOM     16  H   UNL     1      31.645  -6.301 -25.507  0.00  0.00    -0.084 HD
BRANCH   6  17
ATOM     17  C   UNL     1      31.368  -7.558 -23.319  0.00  0.00    -0.015 C 
ATOM     18  C   UNL     1      31.288  -7.057 -21.881  0.00  0.00    -0.002 C 
ATOM     19  C   UNL     1      30.192  -7.042 -24.139  0.00  0.00    -0.002 C 
ENDBRANCH   6  17
ENDBRANCH   2  13
BRANCH   3  20
ATOM     20  C   UNL     1      34.033 -14.126 -23.365  0.00  0.00    +0.054 C 
ATOM     21  C   UNL     1      34.529 -16.467 -23.120  0.00  0.00    +0.000 C 
ATOM     22  C   UNL     1      34.208 -15.370 -23.936  0.00  0.00    +0.005 C 
ATOM     23  C   UNL     1      34.668 -16.275 -21.724  0.00  0.00    +0.000 C 
ATOM     24  C   UNL     1      34.161 -13.913 -22.012  0.00  0.00    +0.005 C 
ATOM     25  C   UNL     1      34.480 -14.991 -21.186  0.00  0.00    +0.000 C 
ATOM     26  C   UNL     1      34.989 -17.371 -20.908  0.00  0.00    +0.003 C 
ATOM     27  C   UNL     1      34.717 -17.750 -23.658  0.00  0.00    +0.000 C 
ATOM     28  C   UNL     1      35.172 -18.639 -21.460  0.00  0.00    +0.031 C 
ATOM     29  C   UNL     1      35.036 -18.828 -22.833  0.00  0.00    +0.003 C 
BRANCH  28  32
ATOM     30  N   UNL     1      34.637 -20.848 -20.458  0.00  0.00    -0.343 N 
ATOM     31  N   UNL     1      36.645 -19.771 -19.936  0.00  0.00    -0.285 NA
ATOM     32  C   UNL     1      35.503 -19.765 -20.601  0.00  0.00    +0.117 C 
ATOM     33  H   UNL     1      34.882 -21.600 -19.872  0.00  0.00    +0.144 HD
ATOM     34  H   UNL     1      33.781 -20.860 -20.944  0.00  0.00    +0.144 HD
ATOM     35  H   UNL     1      36.871 -20.533 -19.354  0.00  0.00    +0.188 HD
ENDBRANCH  28  32
ENDBRANCH   3  20
TORSDOF 4
ENDMDL
MODEL 6
REMARK VINA RESULT:     -11.2      1.182      2.656
REMARK  Name = 447736
REMARK  4 active torsions:
REMARK  status: ('A' for Active; 'I' for Inactive)
REMARK    1  A    between atoms: N_2  and  C_13
REMARK    2  A    between atoms: C_3  and  C_20
REMARK    3  A    between atoms: C_6  and  C_17
REMARK    4  A    between atoms: C_28  and  C_32
REMARK                            x       y       z     vdW  Elec       q    Type
REMARK                         _______ _______ _______ _____ _____    ______ ____
ROOT
ATOM      1  O   UNL     1      33.960 -23.202 -18.270  0.00  0.00    -0.270 OA
ATOM      2  N   UNL     1      35.889 -22.004 -17.662  0.00  0.00    -0.280 N 
ATOM      3  C   UNL     1      34.732 -22.260 -18.409  0.00  0.00    +0.249 C 
ATOM      4  H   UNL     1      36.395 -21.197 -17.911  0.00  0.00    +0.155 HD
ENDROOT
BRANCH   2  13
ATOM      5  N   UNL     1      35.798 -25.374 -12.467  0.00  0.00    +0.388 N 
ATOM      6  C   UNL     1      35.127 -24.885 -13.688  0.00  0.00    -0.039 C 
ATOM      7  C   UNL     1      36.059 -24.152 -14.644  0.00  0.00    -0.045 C 
ATOM      8  C   UNL     1      37.457 -24.284 -14.513  0.00  0.00    -0.030 C 
ATOM      9  C   UNL     1      38.050 -25.097 -13.391  0.00  0.00    +0.003 C 
ATOM     10  C   UNL     1      37.039 -26.073 -12.796  0.00  0.00    -0.076 C 
ATOM     11  C   UNL     1      35.554 -23.400 -15.717  0.00  0.00    +0.008 C 
ATOM     12  C   UNL     1      38.312 -23.620 -15.405  0.00  0.00    -0.003 C 
ATOM     13  C   UNL     1      36.413 -22.753 -16.607  0.00  0.00    +0.050 C 
ATOM     14  C   UNL     1      37.791 -22.857 -16.448  0.00  0.00    +0.014 C 
ATOM     15  H   UNL     1      35.174 -26.016 -11.977  0.00  0.00    -0.084 HD
ATOM     16  H   UNL     1      36.023 -24.574 -11.876  0.00  0.00    -0.084 HD
BRANCH   6  17
ATOM     17  C   UNL     1      33.941 -24.030 -13.223  0.00  0.00    -0.015 C 
ATOM     18  C   UNL     1      32.627 -24.652 -13.683  0.00  0.00    -0.002 C 
ATOM     19  C   UNL     1      33.964 -23.871 -11.707  0.00  0.00    -0.002 C 
ENDBRANCH   6  17
ENDBRANCH   2  13
BRANCH   3  20
ATOM     20  C   UNL     1      34.448 -21.286 -19.496  0.00  0.00    +0.054 C 
ATOM     21  C   UNL     1      35.253 -19.697 -21.112  0.00  0.00    +0.000 C 
ATOM     22  C   UNL     1      35.505 -20.622 -20.084  0.00  0.00    +0.005 C 
ATOM     23  C   UNL     1      33.919 -19.464 -21.523  0.00  0.00    +0.000 C 
ATOM     24  C   UNL     1      33.143 -21.078 -19.877  0.00  0.00    +0.005 C 
ATOM     25  C   UNL     1      32.875 -20.163 -20.895  0.00  0.00    +0.000 C 
ATOM     26  C   UNL     1      33.669 -18.540 -22.550  0.00  0.00    +0.003 C 
ATOM     27  C   UNL     1      36.297 -18.999 -21.739  0.00  0.00    +0.000 C 
ATOM     28  C   UNL     1      34.718 -17.855 -23.163  0.00  0.00    +0.031 C 
ATOM     29  C   UNL     1      36.030 -18.084 -22.758  0.00  0.00    +0.003 C 
BRANCH  28  32
ATOM     30  N   UNL     1      34.481 -17.276 -25.566  0.00  0.00    -0.343 N 
ATOM     31  N   UNL     1      34.149 -15.648 -23.923  0.00  0.00    -0.285 NA
ATOM     32  C   UNL     1      34.441 -16.901 -24.225  0.00  0.00    +0.117 C 
ATOM     33  H   UNL     1      34.289 -16.614 -26.269  0.00  0.00    +0.144 HD
ATOM     34  H   UNL     1      34.699 -18.204 -25.811  0.00  0.00    +0.144 HD
ATOM     35  H   UNL     1      33.961 -15.000 -24.640  0.00  0.00    +0.188 HD
ENDBRANCH  28  32
ENDBRANCH   3  20
TORSDOF 4
ENDMDL
MODEL 7
REMARK VINA RESULT:     -11.1      2.286     10.762
REMARK  Name = 447736
REMARK  4 active torsions:
REMARK  status: ('A' for Active; 'I' for Inactive)
REMARK    1  A    between atoms: N_2  and  C_13
REMARK    2  A    between atoms: C_3  and  C_20
REMARK    3  A    between atoms: C_6  and  C_17
REMARK    4  A    between atoms: C_28  and  C_32
REMARK                            x       y       z     vdW  Elec       q    Type
REMARK                         _______ _______ _______ _____ _____    ______ ____
ROOT
ATOM      1  O   UNL     1      32.842 -20.657 -20.904  0.00  0.00    -0.270 OA
ATOM      2  N   UNL     1      34.876 -19.641 -21.503  0.00  0.00    -0.280 N 
ATOM      3  C   UNL     1      34.036 -20.446 -20.721  0.00  0.00    +0.249 C 
ATOM      4  H   UNL     1      35.814 -19.582 -21.209  0.00  0.00    +0.155 HD
ENDROOT
BRANCH   2  13
ATOM      5  N   UNL     1      33.580 -14.613 -24.878  0.00  0.00    +0.388 N 
ATOM      6  C   UNL     1      34.234 -15.239 -23.712  0.00  0.00    -0.039 C 
ATOM      7  C   UNL     1      34.208 -16.761 -23.741  0.00  0.00    -0.045 C 
ATOM      8  C   UNL     1      33.921 -17.443 -24.941  0.00  0.00    -0.030 C 
ATOM      9  C   UNL     1      33.574 -16.680 -26.194  0.00  0.00    +0.003 C 
ATOM     10  C   UNL     1      34.035 -15.227 -26.124  0.00  0.00    -0.076 C 
ATOM     11  C   UNL     1      34.545 -17.516 -22.605  0.00  0.00    +0.008 C 
ATOM     12  C   UNL     1      33.913 -18.845 -24.969  0.00  0.00    -0.003 C 
ATOM     13  C   UNL     1      34.546 -18.912 -22.646  0.00  0.00    +0.050 C 
ATOM     14  C   UNL     1      34.224 -19.576 -23.824  0.00  0.00    +0.014 C 
ATOM     15  H   UNL     1      33.806 -13.619 -24.894  0.00  0.00    -0.084 HD
ATOM     16  H   UNL     1      32.572 -14.750 -24.799  0.00  0.00    -0.084 HD
BRANCH   6  17
ATOM     17  C   UNL     1      33.566 -14.645 -22.465  0.00  0.00    -0.015 C 
ATOM     18  C   UNL     1      34.545 -14.629 -21.296  0.00  0.00    -0.002 C 
ATOM     19  C   UNL     1      33.049 -13.241 -22.758  0.00  0.00    -0.002 C 
ENDBRANCH   6  17
ENDBRANCH   2  13
BRANCH   3  20
ATOM     20  C   UNL     1      34.678 -21.076 -19.539  0.00  0.00    +0.054 C 
ATOM     21  C   UNL     1      34.507 -22.479 -17.593  0.00  0.00    +0.000 C 
ATOM     22  C   UNL     1      33.914 -21.876 -18.715  0.00  0.00    +0.005 C 
ATOM     23  C   UNL     1      35.879 -22.251 -17.328  0.00  0.00    +0.000 C 
ATOM     24  C   UNL     1      36.012 -20.838 -19.304  0.00  0.00    +0.005 C 
ATOM     25  C   UNL     1      36.617 -21.428 -18.193  0.00  0.00    +0.000 C 
ATOM     26  C   UNL     1      36.470 -22.853 -16.206  0.00  0.00    +0.003 C 
ATOM     27  C   UNL     1      33.768 -23.302 -16.728  0.00  0.00    +0.000 C 
ATOM     28  C   UNL     1      35.721 -23.668 -15.357  0.00  0.00    +0.031 C 
ATOM     29  C   UNL     1      34.372 -23.892 -15.618  0.00  0.00    +0.003 C 
BRANCH  28  32
ATOM     30  N   UNL     1      35.713 -25.296 -13.482  0.00  0.00    -0.343 N 
ATOM     31  N   UNL     1      37.544 -23.880 -13.806  0.00  0.00    -0.285 NA
ATOM     32  C   UNL     1      36.349 -24.283 -14.198  0.00  0.00    +0.117 C 
ATOM     33  H   UNL     1      36.157 -25.699 -12.701  0.00  0.00    +0.144 HD
ATOM     34  H   UNL     1      34.821 -25.608 -13.757  0.00  0.00    +0.144 HD
ATOM     35  H   UNL     1      37.971 -24.296 -13.022  0.00  0.00    +0.188 HD
ENDBRANCH  28  32
ENDBRANCH   3  20
TORSDOF 4
ENDMDL
MODEL 8
REMARK VINA RESULT:     -11.0      8.077     12.787
REMARK  Name = 447736
REMARK  4 active torsions:
REMARK  status: ('A' for Active; 'I' for Inactive)
REMARK    1  A    between atoms: N_2  and  C_13
REMARK    2  A    between atoms: C_3  and  C_20
REMARK    3  A    between atoms: C_6  and  C_17
REMARK    4  A    between atoms: C_28  and  C_32
REMARK                            x       y       z     vdW  Elec       q    Type
REMARK                         _______ _______ _______ _____ _____    ______ ____
ROOT
ATOM      1  O   UNL     1      34.167 -11.773 -26.040  0.00  0.00    -0.270 OA
ATOM      2  N   UNL     1      33.360 -13.058 -24.244  0.00  0.00    -0.280 N 
ATOM      3  C   UNL     1      33.713 -11.874 -24.906  0.00  0.00    +0.249 C 
ATOM      4  H   UNL     1      33.009 -12.954 -23.330  0.00  0.00    +0.155 HD
ENDROOT
BRANCH   2  13
ATOM      5  N   UNL     1      34.598 -19.123 -24.058  0.00  0.00    +0.388 N 
ATOM      6  C   UNL     1      34.250 -17.865 -23.368  0.00  0.00    -0.039 C 
ATOM      7  C   UNL     1      33.897 -16.726 -24.315  0.00  0.00    -0.045 C 
ATOM      8  C   UNL     1      33.585 -16.995 -25.663  0.00  0.00    -0.030 C 
ATOM      9  C   UNL     1      33.657 -18.401 -26.202  0.00  0.00    +0.003 C 
ATOM     10  C   UNL     1      33.611 -19.444 -25.088  0.00  0.00    -0.076 C 
ATOM     11  C   UNL     1      33.796 -15.403 -23.854  0.00  0.00    +0.008 C 
ATOM     12  C   UNL     1      33.245 -15.946 -26.529  0.00  0.00    -0.003 C 
ATOM     13  C   UNL     1      33.445 -14.367 -24.722  0.00  0.00    +0.050 C 
ATOM     14  C   UNL     1      33.176 -14.636 -26.059  0.00  0.00    +0.014 C 
ATOM     15  H   UNL     1      34.626 -19.881 -23.377  0.00  0.00    -0.084 HD
ATOM     16  H   UNL     1      35.508 -19.009 -24.505  0.00  0.00    -0.084 HD
BRANCH   6  17
ATOM     17  C   UNL     1      35.425 -17.538 -22.437  0.00  0.00    -0.015 C 
ATOM     18  C   UNL     1      34.925 -17.289 -21.019  0.00  0.00    -0.002 C 
ATOM     19  C   UNL     1      36.450 -18.666 -22.460  0.00  0.00    -0.002 C 
ENDBRANCH   6  17
ENDBRANCH   2  13
BRANCH   3  20
ATOM     20  C   UNL     1      33.532 -10.627 -24.117  0.00  0.00    +0.054 C 
ATOM     21  C   UNL     1      32.379  -9.426 -22.381  0.00  0.00    +0.000 C 
ATOM     22  C   UNL     1      32.563 -10.597 -23.135  0.00  0.00    +0.005 C 
ATOM     23  C   UNL     1      33.192  -8.297 -22.645  0.00  0.00    +0.000 C 
ATOM     24  C   UNL     1      34.334  -9.545 -24.393  0.00  0.00    +0.005 C 
ATOM     25  C   UNL     1      34.165  -8.373 -23.655  0.00  0.00    +0.000 C 
ATOM     26  C   UNL     1      33.007  -7.127 -21.892  0.00  0.00    +0.003 C 
ATOM     27  C   UNL     1      31.406  -9.350 -21.372  0.00  0.00    +0.000 C 
ATOM     28  C   UNL     1      32.036  -7.070 -20.892  0.00  0.00    +0.031 C 
ATOM     29  C   UNL     1      31.237  -8.180 -20.633  0.00  0.00    +0.003 C 
BRANCH  28  32
ATOM     30  N   UNL     1      31.133  -4.772 -20.628  0.00  0.00    -0.343 N 
ATOM     31  N   UNL     1      32.390  -5.748 -18.917  0.00  0.00    -0.285 NA
ATOM     32  C   UNL     1      31.857  -5.850 -20.122  0.00  0.00    +0.117 C 
ATOM     33  H   UNL     1      31.023  -3.955 -20.089  0.00  0.00    +0.144 HD
ATOM     34  H   UNL     1      30.731  -4.827 -21.525  0.00  0.00    +0.144 HD
ATOM     35  H   UNL     1      32.269  -4.923 -18.393  0.00  0.00    +0.188 HD
ENDBRANCH  28  32
ENDBRANCH   3  20
TORSDOF 4
ENDMDL
MODEL 9
REMARK VINA RESULT:     -10.9      3.934     12.242
REMARK  Name = 447736
REMARK  4 active torsions:
REMARK  status: ('A' for Active; 'I' for Inactive)
REMARK    1  A    between atoms: N_2  and  C_13
REMARK    2  A    between atoms: C_3  and  C_20
REMARK    3  A    between atoms: C_6  and  C_17
REMARK    4  A    between atoms: C_28  and  C_32
REMARK                            x       y       z     vdW  Elec       q    Type
REMARK                         _______ _______ _______ _____ _____    ______ ____
ROOT
ATOM      1  O   UNL     1      36.026 -16.963 -23.448  0.00  0.00    -0.270 OA
ATOM      2  N   UNL     1      33.691 -17.177 -23.618  0.00  0.00    -0.280 N 
ATOM      3  C   UNL     1      34.963 -17.469 -23.107  0.00  0.00    +0.249 C 
ATOM      4  H   UNL     1      32.942 -17.682 -23.227  0.00  0.00    +0.155 HD
ENDROOT
BRANCH   2  13
ATOM      5  N   UNL     1      32.965 -11.608 -26.227  0.00  0.00    +0.388 N 
ATOM      6  C   UNL     1      33.639 -12.486 -25.251  0.00  0.00    -0.039 C 
ATOM      7  C   UNL     1      33.305 -13.962 -25.424  0.00  0.00    -0.045 C 
ATOM      8  C   UNL     1      32.720 -14.421 -26.622  0.00  0.00    -0.030 C 
ATOM      9  C   UNL     1      32.359 -13.454 -27.721  0.00  0.00    +0.003 C 
ATOM     10  C   UNL     1      33.107 -12.130 -27.585  0.00  0.00    -0.076 C 
ATOM     11  C   UNL     1      33.641 -14.904 -24.438  0.00  0.00    +0.008 C 
ATOM     12  C   UNL     1      32.427 -15.783 -26.785  0.00  0.00    -0.003 C 
ATOM     13  C   UNL     1      33.356 -16.260 -24.615  0.00  0.00    +0.050 C 
ATOM     14  C   UNL     1      32.745 -16.698 -25.785  0.00  0.00    +0.014 C 
ATOM     15  H   UNL     1      33.381 -10.678 -26.183  0.00  0.00    -0.084 HD
ATOM     16  H   UNL     1      31.972 -11.567 -25.998  0.00  0.00    -0.084 HD
BRANCH   6  17
ATOM     17  C   UNL     1      33.287 -11.945 -23.859  0.00  0.00    -0.015 C 
ATOM     18  C   UNL     1      33.000 -10.449 -23.929  0.00  0.00    -0.002 C 
ATOM     19  C   UNL     1      32.094 -12.700 -23.283  0.00  0.00    -0.002 C 
ENDBRANCH   6  17
ENDBRANCH   2  13
BRANCH   3  20
ATOM     20  C   UNL     1      35.001 -18.524 -22.061  0.00  0.00    +0.054 C 
ATOM     21  C   UNL     1      33.830 -20.063 -20.631  0.00  0.00    +0.000 C 
ATOM     22  C   UNL     1      33.811 -19.065 -21.620  0.00  0.00    +0.005 C 
ATOM     23  C   UNL     1      35.071 -20.494 -20.105  0.00  0.00    +0.000 C 
ATOM     24  C   UNL     1      36.220 -18.925 -21.567  0.00  0.00    +0.005 C 
ATOM     25  C   UNL     1      36.258 -19.914 -20.584  0.00  0.00    +0.000 C 
ATOM     26  C   UNL     1      35.089 -21.491 -19.117  0.00  0.00    +0.003 C 
ATOM     27  C   UNL     1      32.644 -20.642 -20.153  0.00  0.00    +0.000 C 
ATOM     28  C   UNL     1      33.901 -22.056 -18.654  0.00  0.00    +0.031 C 
ATOM     29  C   UNL     1      32.680 -21.632 -19.171  0.00  0.00    +0.003 C 
BRANCH  28  32
ATOM     30  N   UNL     1      32.885 -23.987 -17.468  0.00  0.00    -0.343 N 
ATOM     31  N   UNL     1      34.982 -23.180 -16.825  0.00  0.00    -0.285 NA
ATOM     32  C   UNL     1      33.937 -23.087 -17.629  0.00  0.00    +0.117 C 
ATOM     33  H   UNL     1      32.931 -24.678 -16.769  0.00  0.00    +0.144 HD
ATOM     34  H   UNL     1      32.097 -23.932 -18.056  0.00  0.00    +0.144 HD
ATOM     35  H   UNL     1      35.008 -23.878 -16.131  0.00  0.00    +0.188 HD
ENDBRANCH  28  32
ENDBRANCH   3  20
TORSDOF 4
ENDMDL
