MODEL 1
REMARK VINA RESULT:     -12.4      0.000      0.000
REMARK  Name = 4470378
REMARK  6 active torsions:
REMARK  status: ('A' for Active; 'I' for Inactive)
REMARK    1  A    between atoms: C_5  and  O_10
REMARK    2  A    between atoms: C_6  and  O_24
REMARK    3  A    between atoms: O_10  and  C_11
REMARK    4  A    between atoms: C_12  and  C_19
REMARK    5  A    between atoms: O_24  and  C_25
REMARK    6  A    between atoms: C_26  and  C_33
REMARK                            x       y       z     vdW  Elec       q    Type
REMARK                         _______ _______ _______ _____ _____    ______ ____
ROOT
ATOM      1  F   UNL     1      35.096 -16.958 -20.133  0.00  0.00    -0.221 F 
ATOM      2  F   UNL     1      34.130 -14.318 -23.965  0.00  0.00    -0.199 F 
ATOM      3  N   UNL     1      35.205 -17.770 -23.667  0.00  0.00    -0.331 NA
ATOM      4  C   UNL     1      34.601 -15.596 -22.017  0.00  0.00    +0.031 C 
ATOM      5  C   UNL     1      35.285 -17.854 -22.320  0.00  0.00    +0.298 C 
ATOM      6  C   UNL     1      34.820 -16.579 -24.158  0.00  0.00    +0.312 C 
ATOM      7  C   UNL     1      34.996 -16.807 -21.459  0.00  0.00    +0.270 C 
ATOM      8  C   UNL     1      34.508 -15.471 -23.399  0.00  0.00    +0.201 C 
ATOM      9  C   UNL     1      34.280 -14.435 -21.138  0.00  0.00    +0.032 C 
ENDROOT
BRANCH   5  10
ATOM     10  O   UNL     1      35.677 -19.057 -21.795  0.00  0.00    -0.428 OA
BRANCH  10  11
ATOM     11  C   UNL     1      34.736 -19.779 -21.089  0.00  0.00    +0.148 C 
ATOM     12  C   UNL     1      34.198 -21.341 -19.349  0.00  0.00    +0.032 C 
ATOM     13  C   UNL     1      35.150 -20.611 -20.062  0.00  0.00    +0.040 C 
ATOM     14  C   UNL     1      33.397 -19.657 -21.424  0.00  0.00    +0.038 C 
ATOM     15  C   UNL     1      32.847 -21.229 -19.674  0.00  0.00    +0.003 C 
ATOM     16  C   UNL     1      32.446 -20.387 -20.712  0.00  0.00    +0.003 C 
BRANCH  12  19
ATOM     17  N   UNL     1      33.760 -23.118 -17.763  0.00  0.00    -0.387 N 
ATOM     18  N   UNL     1      35.856 -22.131 -17.771  0.00  0.00    -0.345 N 
ATOM     19  C   UNL     1      34.613 -22.214 -18.275  0.00  0.00    +0.096 C 
ATOM     20  H   UNL     1      34.050 -23.709 -17.031  0.00  0.00    +0.157 HD
ATOM     21  H   UNL     1      32.846 -23.190 -18.121  0.00  0.00    +0.157 HD
ATOM     22  H   UNL     1      36.131 -22.729 -17.038  0.00  0.00    +0.144 HD
ATOM     23  H   UNL     1      36.492 -21.473 -18.134  0.00  0.00    +0.144 HD
ENDBRANCH  12  19
ENDBRANCH  10  11
ENDBRANCH   5  10
BRANCH   6  24
ATOM     24  O   UNL     1      34.737 -16.481 -25.537  0.00  0.00    -0.426 OA
BRANCH  24  25
ATOM     25  C   UNL     1      33.514 -16.644 -26.110  0.00  0.00    +0.148 C 
ATOM     26  C   UNL     1      31.607 -15.720 -27.272  0.00  0.00    +0.034 C 
ATOM     27  C   UNL     1      32.862 -15.553 -26.686  0.00  0.00    +0.040 C 
ATOM     28  C   UNL     1      32.910 -17.901 -26.120  0.00  0.00    +0.038 C 
ATOM     29  C   UNL     1      31.004 -16.977 -27.282  0.00  0.00    +0.003 C 
ATOM     30  C   UNL     1      31.656 -18.068 -26.706  0.00  0.00    +0.003 C 
BRANCH  26  33
ATOM     31  N   UNL     1      31.511 -13.317 -27.888  0.00  0.00    -0.343 N 
ATOM     32  N   UNL     1      29.733 -14.739 -28.412  0.00  0.00    -0.285 NA
ATOM     33  C   UNL     1      30.928 -14.583 -27.873  0.00  0.00    +0.117 C 
ATOM     34  H   UNL     1      31.034 -12.561 -28.300  0.00  0.00    +0.144 HD
ATOM     35  H   UNL     1      32.400 -13.178 -27.488  0.00  0.00    +0.144 HD
ATOM     36  H   UNL     1      29.272 -13.970 -28.819  0.00  0.00    +0.188 HD
ENDBRANCH  26  33
ENDBRANCH  24  25
ENDBRANCH   6  24
TORSDOF 6
ENDMDL
MODEL 2
REMARK VINA RESULT:     -11.8      7.354     11.691
REMARK  Name = 4470378
REMARK  6 active torsions:
REMARK  status: ('A' for Active; 'I' for Inactive)
REMARK    1  A    between atoms: C_5  and  O_10
REMARK    2  A    between atoms: C_6  and  O_24
REMARK    3  A    between atoms: O_10  and  C_11
REMARK    4  A    between atoms: C_12  and  C_19
REMARK    5  A    between atoms: O_24  and  C_25
REMARK    6  A    between atoms: C_26  and  C_33
REMARK                            x       y       z     vdW  Elec       q    Type
REMARK                         _______ _______ _______ _____ _____    ______ ____
ROOT
ATOM      1  F   UNL     1      33.104 -22.543 -19.507  0.00  0.00    -0.221 F 
ATOM      2  F   UNL     1      37.212 -20.876 -17.793  0.00  0.00    -0.199 F 
ATOM      3  N   UNL     1      34.805 -23.186 -16.367  0.00  0.00    -0.331 NA
ATOM      4  C   UNL     1      35.165 -21.680 -18.695  0.00  0.00    +0.031 C 
ATOM      5  C   UNL     1      33.904 -23.205 -17.376  0.00  0.00    +0.298 C 
ATOM      6  C   UNL     1      35.879 -22.399 -16.557  0.00  0.00    +0.312 C 
ATOM      7  C   UNL     1      34.036 -22.478 -18.548  0.00  0.00    +0.270 C 
ATOM      8  C   UNL     1      36.115 -21.634 -17.679  0.00  0.00    +0.201 C 
ATOM      9  C   UNL     1      35.357 -20.875 -19.935  0.00  0.00    +0.032 C 
ENDROOT
BRANCH   5  10
ATOM     10  O   UNL     1      32.800 -23.998 -17.206  0.00  0.00    -0.428 OA
BRANCH  10  11
ATOM     11  C   UNL     1      31.833 -23.560 -16.325  0.00  0.00    +0.148 C 
ATOM     12  C   UNL     1      29.559 -22.931 -15.884  0.00  0.00    +0.032 C 
ATOM     13  C   UNL     1      30.537 -23.375 -16.776  0.00  0.00    +0.040 C 
ATOM     14  C   UNL     1      32.179 -23.313 -15.006  0.00  0.00    +0.038 C 
ATOM     15  C   UNL     1      29.893 -22.679 -14.554  0.00  0.00    +0.003 C 
ATOM     16  C   UNL     1      31.203 -22.870 -14.114  0.00  0.00    +0.003 C 
BRANCH  12  19
ATOM     17  N   UNL     1      27.268 -22.243 -15.506  0.00  0.00    -0.387 N 
ATOM     18  N   UNL     1      27.854 -23.040 -17.601  0.00  0.00    -0.345 N 
ATOM     19  C   UNL     1      28.202 -22.733 -16.340  0.00  0.00    +0.096 C 
ATOM     20  H   UNL     1      26.346 -22.111 -15.823  0.00  0.00    +0.157 HD
ATOM     21  H   UNL     1      27.507 -22.014 -14.578  0.00  0.00    +0.157 HD
ATOM     22  H   UNL     1      26.927 -22.903 -17.903  0.00  0.00    +0.144 HD
ATOM     23  H   UNL     1      28.526 -23.402 -18.223  0.00  0.00    +0.144 HD
ENDBRANCH  12  19
ENDBRANCH  10  11
ENDBRANCH   5  10
BRANCH   6  24
ATOM     24  O   UNL     1      36.808 -22.370 -15.530  0.00  0.00    -0.426 OA
BRANCH  24  25
ATOM     25  C   UNL     1      36.867 -23.448 -14.702  0.00  0.00    +0.148 C 
ATOM     26  C   UNL     1      36.434 -24.461 -12.551  0.00  0.00    +0.034 C 
ATOM     27  C   UNL     1      36.371 -23.356 -13.401  0.00  0.00    +0.040 C 
ATOM     28  C   UNL     1      37.427 -24.644 -15.152  0.00  0.00    +0.038 C 
ATOM     29  C   UNL     1      36.993 -25.657 -13.001  0.00  0.00    +0.003 C 
ATOM     30  C   UNL     1      37.489 -25.748 -14.302  0.00  0.00    +0.003 C 
BRANCH  26  33
ATOM     31  N   UNL     1      36.341 -23.360 -10.327  0.00  0.00    -0.343 N 
ATOM     32  N   UNL     1      35.030 -25.245 -10.765  0.00  0.00    -0.285 NA
ATOM     33  C   UNL     1      35.916 -24.365 -11.195  0.00  0.00    +0.117 C 
ATOM     34  H   UNL     1      35.978 -23.314  -9.413  0.00  0.00    +0.144 HD
ATOM     35  H   UNL     1      37.003 -22.696 -10.628  0.00  0.00    +0.144 HD
ATOM     36  H   UNL     1      34.679 -25.181  -9.847  0.00  0.00    +0.188 HD
ENDBRANCH  26  33
ENDBRANCH  24  25
ENDBRANCH   6  24
TORSDOF 6
ENDMDL
MODEL 3
REMARK VINA RESULT:     -11.6      3.356      4.744
REMARK  Name = 4470378
REMARK  6 active torsions:
REMARK  status: ('A' for Active; 'I' for Inactive)
REMARK    1  A    between atoms: C_5  and  O_10
REMARK    2  A    between atoms: C_6  and  O_24
REMARK    3  A    between atoms: O_10  and  C_11
REMARK    4  A    between atoms: C_12  and  C_19
REMARK    5  A    between atoms: O_24  and  C_25
REMARK    6  A    between atoms: C_26  and  C_33
REMARK                            x       y       z     vdW  Elec       q    Type
REMARK                         _______ _______ _______ _____ _____    ______ ____
ROOT
ATOM      1  F   UNL     1      33.625 -14.934 -20.078  0.00  0.00    -0.221 F 
ATOM      2  F   UNL     1      31.279 -11.411 -22.241  0.00  0.00    -0.199 F 
ATOM      3  N   UNL     1      34.054 -13.460 -23.365  0.00  0.00    -0.331 NA
ATOM      4  C   UNL     1      32.421 -13.167 -21.116  0.00  0.00    +0.031 C 
ATOM      5  C   UNL     1      34.205 -14.237 -22.269  0.00  0.00    +0.298 C 
ATOM      6  C   UNL     1      33.073 -12.542 -23.302  0.00  0.00    +0.312 C 
ATOM      7  C   UNL     1      33.422 -14.132 -21.130  0.00  0.00    +0.270 C 
ATOM      8  C   UNL     1      32.236 -12.348 -22.225  0.00  0.00    +0.201 C 
ATOM      9  C   UNL     1      31.550 -13.009 -19.916  0.00  0.00    +0.032 C 
ENDROOT
BRANCH   5  10
ATOM     10  O   UNL     1      35.198 -15.179 -22.308  0.00  0.00    -0.428 OA
BRANCH  10  11
ATOM     11  C   UNL     1      34.823 -16.490 -22.520  0.00  0.00    +0.148 C 
ATOM     12  C   UNL     1      33.829 -18.161 -23.926  0.00  0.00    +0.032 C 
ATOM     13  C   UNL     1      34.210 -16.835 -23.713  0.00  0.00    +0.040 C 
ATOM     14  C   UNL     1      35.067 -17.432 -21.534  0.00  0.00    +0.038 C 
ATOM     15  C   UNL     1      34.068 -19.121 -22.944  0.00  0.00    +0.003 C 
ATOM     16  C   UNL     1      34.687 -18.757 -21.747  0.00  0.00    +0.003 C 
BRANCH  12  19
ATOM     17  N   UNL     1      31.867 -18.356 -25.332  0.00  0.00    -0.387 N 
ATOM     18  N   UNL     1      33.904 -19.079 -26.166  0.00  0.00    -0.345 N 
ATOM     19  C   UNL     1      33.188 -18.538 -25.165  0.00  0.00    +0.096 C 
ATOM     20  H   UNL     1      31.438 -18.616 -26.179  0.00  0.00    +0.157 HD
ATOM     21  H   UNL     1      31.329 -17.961 -24.608  0.00  0.00    +0.157 HD
ATOM     22  H   UNL     1      33.460 -19.335 -27.007  0.00  0.00    +0.144 HD
ATOM     23  H   UNL     1      34.872 -19.221 -26.058  0.00  0.00    +0.144 HD
ENDBRANCH  12  19
ENDBRANCH  10  11
ENDBRANCH   5  10
BRANCH   6  24
ATOM     24  O   UNL     1      32.911 -11.739 -24.419  0.00  0.00    -0.426 OA
BRANCH  24  25
ATOM     25  C   UNL     1      33.117 -12.305 -25.639  0.00  0.00    +0.148 C 
ATOM     26  C   UNL     1      32.644 -14.049 -27.244  0.00  0.00    +0.034 C 
ATOM     27  C   UNL     1      32.433 -13.468 -25.993  0.00  0.00    +0.040 C 
ATOM     28  C   UNL     1      34.013 -11.723 -26.536  0.00  0.00    +0.038 C 
ATOM     29  C   UNL     1      33.540 -13.467 -28.141  0.00  0.00    +0.003 C 
ATOM     30  C   UNL     1      34.224 -12.304 -27.787  0.00  0.00    +0.003 C 
BRANCH  26  33
ATOM     31  N   UNL     1      30.555 -15.253 -27.835  0.00  0.00    -0.343 N 
ATOM     32  N   UNL     1      32.588 -16.401 -27.735  0.00  0.00    -0.285 NA
ATOM     33  C   UNL     1      31.930 -15.262 -27.612  0.00  0.00    +0.117 C 
ATOM     34  H   UNL     1      30.092 -16.085 -28.084  0.00  0.00    +0.144 HD
ATOM     35  H   UNL     1      30.046 -14.415 -27.746  0.00  0.00    +0.144 HD
ATOM     36  H   UNL     1      32.106 -17.222 -27.985  0.00  0.00    +0.188 HD
ENDBRANCH  26  33
ENDBRANCH  24  25
ENDBRANCH   6  24
TORSDOF 6
ENDMDL
MODEL 4
REMARK VINA RESULT:     -11.5      2.793      3.925
REMARK  Name = 4470378
REMARK  6 active torsions:
REMARK  status: ('A' for Active; 'I' for Inactive)
REMARK    1  A    between atoms: C_5  and  O_10
REMARK    2  A    between atoms: C_6  and  O_24
REMARK    3  A    between atoms: O_10  and  C_11
REMARK    4  A    between atoms: C_12  and  C_19
REMARK    5  A    between atoms: O_24  and  C_25
REMARK    6  A    between atoms: C_26  and  C_33
REMARK                            x       y       z     vdW  Elec       q    Type
REMARK                         _______ _______ _______ _____ _____    ______ ____
ROOT
ATOM      1  F   UNL     1      33.656 -14.921 -20.076  0.00  0.00    -0.221 F 
ATOM      2  F   UNL     1      31.290 -11.405 -22.228  0.00  0.00    -0.199 F 
ATOM      3  N   UNL     1      34.054 -13.458 -23.372  0.00  0.00    -0.331 NA
ATOM      4  C   UNL     1      32.442 -13.157 -21.108  0.00  0.00    +0.031 C 
ATOM      5  C   UNL     1      34.214 -14.231 -22.274  0.00  0.00    +0.298 C 
ATOM      6  C   UNL     1      33.074 -12.539 -23.303  0.00  0.00    +0.312 C 
ATOM      7  C   UNL     1      33.443 -14.122 -21.129  0.00  0.00    +0.270 C 
ATOM      8  C   UNL     1      32.246 -12.342 -22.218  0.00  0.00    +0.201 C 
ATOM      9  C   UNL     1      31.583 -12.995 -19.900  0.00  0.00    +0.032 C 
ENDROOT
BRANCH   5  10
ATOM     10  O   UNL     1      35.207 -15.174 -22.319  0.00  0.00    -0.428 OA
BRANCH  10  11
ATOM     11  C   UNL     1      34.837 -16.474 -22.597  0.00  0.00    +0.148 C 
ATOM     12  C   UNL     1      34.518 -18.739 -21.871  0.00  0.00    +0.032 C 
ATOM     13  C   UNL     1      34.892 -17.424 -21.590  0.00  0.00    +0.040 C 
ATOM     14  C   UNL     1      34.418 -16.801 -23.876  0.00  0.00    +0.038 C 
ATOM     15  C   UNL     1      34.094 -19.084 -23.154  0.00  0.00    +0.003 C 
ATOM     16  C   UNL     1      34.045 -18.115 -24.157  0.00  0.00    +0.003 C 
BRANCH  12  19
ATOM     17  N   UNL     1      33.461 -20.415 -20.479  0.00  0.00    -0.387 N 
ATOM     18  N   UNL     1      35.726 -20.015 -20.205  0.00  0.00    -0.345 N 
ATOM     19  C   UNL     1      34.570 -19.742 -20.833  0.00  0.00    +0.096 C 
ATOM     20  H   UNL     1      33.504 -21.097 -19.771  0.00  0.00    +0.157 HD
ATOM     21  H   UNL     1      32.606 -20.226 -20.929  0.00  0.00    +0.157 HD
ATOM     22  H   UNL     1      35.753 -20.699 -19.497  0.00  0.00    +0.144 HD
ATOM     23  H   UNL     1      36.547 -19.529 -20.452  0.00  0.00    +0.144 HD
ENDBRANCH  12  19
ENDBRANCH  10  11
ENDBRANCH   5  10
BRANCH   6  24
ATOM     24  O   UNL     1      32.902 -11.740 -24.420  0.00  0.00    -0.426 OA
BRANCH  24  25
ATOM     25  C   UNL     1      33.110 -12.306 -25.640  0.00  0.00    +0.148 C 
ATOM     26  C   UNL     1      32.639 -14.048 -27.246  0.00  0.00    +0.034 C 
ATOM     27  C   UNL     1      32.425 -13.468 -25.996  0.00  0.00    +0.040 C 
ATOM     28  C   UNL     1      34.010 -11.725 -26.534  0.00  0.00    +0.038 C 
ATOM     29  C   UNL     1      33.539 -13.468 -28.140  0.00  0.00    +0.003 C 
ATOM     30  C   UNL     1      34.224 -12.306 -27.784  0.00  0.00    +0.003 C 
BRANCH  26  33
ATOM     31  N   UNL     1      30.547 -15.252 -27.831  0.00  0.00    -0.343 N 
ATOM     32  N   UNL     1      32.582 -16.397 -27.752  0.00  0.00    -0.285 NA
ATOM     33  C   UNL     1      31.924 -15.260 -27.617  0.00  0.00    +0.117 C 
ATOM     34  H   UNL     1      30.083 -16.083 -28.081  0.00  0.00    +0.144 HD
ATOM     35  H   UNL     1      30.038 -14.415 -27.733  0.00  0.00    +0.144 HD
ATOM     36  H   UNL     1      32.100 -17.218 -28.003  0.00  0.00    +0.188 HD
ENDBRANCH  26  33
ENDBRANCH  24  25
ENDBRANCH   6  24
TORSDOF 6
ENDMDL
MODEL 5
REMARK VINA RESULT:     -11.4      3.390      7.525
REMARK  Name = 4470378
REMARK  6 active torsions:
REMARK  status: ('A' for Active; 'I' for Inactive)
REMARK    1  A    between atoms: C_5  and  O_10
REMARK    2  A    between atoms: C_6  and  O_24
REMARK    3  A    between atoms: O_10  and  C_11
REMARK    4  A    between atoms: C_12  and  C_19
REMARK    5  A    between atoms: O_24  and  C_25
REMARK    6  A    between atoms: C_26  and  C_33
REMARK                            x       y       z     vdW  Elec       q    Type
REMARK                         _______ _______ _______ _____ _____    ______ ____
ROOT
ATOM      1  F   UNL     1      31.253 -11.345 -22.205  0.00  0.00    -0.221 F 
ATOM      2  F   UNL     1      33.599 -14.914 -20.119  0.00  0.00    -0.199 F 
ATOM      3  N   UNL     1      34.029 -13.368 -23.373  0.00  0.00    -0.331 NA
ATOM      4  C   UNL     1      32.394 -13.126 -21.119  0.00  0.00    +0.031 C 
ATOM      5  C   UNL     1      33.045 -12.443 -23.302  0.00  0.00    +0.298 C 
ATOM      6  C   UNL     1      34.168 -14.159 -22.294  0.00  0.00    +0.312 C 
ATOM      7  C   UNL     1      32.209 -12.282 -22.209  0.00  0.00    +0.270 C 
ATOM      8  C   UNL     1      33.396 -14.090 -21.154  0.00  0.00    +0.201 C 
ATOM      9  C   UNL     1      31.521 -12.997 -19.917  0.00  0.00    +0.032 C 
ENDROOT
BRANCH   5  10
ATOM     10  O   UNL     1      32.883 -11.626 -24.389  0.00  0.00    -0.428 OA
BRANCH  10  11
ATOM     11  C   UNL     1      33.041 -12.192 -25.638  0.00  0.00    +0.148 C 
ATOM     12  C   UNL     1      32.349 -13.781 -27.298  0.00  0.00    +0.032 C 
ATOM     13  C   UNL     1      32.188 -13.209 -26.035  0.00  0.00    +0.040 C 
ATOM     14  C   UNL     1      34.050 -11.731 -26.468  0.00  0.00    +0.038 C 
ATOM     15  C   UNL     1      33.360 -13.328 -28.145  0.00  0.00    +0.003 C 
ATOM     16  C   UNL     1      34.211 -12.303 -27.730  0.00  0.00    +0.003 C 
BRANCH  12  19
ATOM     17  N   UNL     1      30.178 -14.589 -28.004  0.00  0.00    -0.387 N 
ATOM     18  N   UNL     1      31.927 -16.100 -27.854  0.00  0.00    -0.345 N 
ATOM     19  C   UNL     1      31.468 -14.843 -27.727  0.00  0.00    +0.096 C 
ATOM     20  H   UNL     1      29.584 -15.317 -28.296  0.00  0.00    +0.157 HD
ATOM     21  H   UNL     1      29.827 -13.673 -27.915  0.00  0.00    +0.157 HD
ATOM     22  H   UNL     1      31.320 -16.819 -28.146  0.00  0.00    +0.144 HD
ATOM     23  H   UNL     1      32.869 -16.303 -27.653  0.00  0.00    +0.144 HD
ENDBRANCH  12  19
ENDBRANCH  10  11
ENDBRANCH   5  10
BRANCH   6  24
ATOM     24  O   UNL     1      35.172 -15.112 -22.356  0.00  0.00    -0.426 OA
BRANCH  24  25
ATOM     25  C   UNL     1      34.810 -16.394 -22.630  0.00  0.00    +0.148 C 
ATOM     26  C   UNL     1      33.843 -18.020 -24.134  0.00  0.00    +0.034 C 
ATOM     27  C   UNL     1      34.215 -16.705 -23.853  0.00  0.00    +0.040 C 
ATOM     28  C   UNL     1      35.031 -17.398 -21.688  0.00  0.00    +0.038 C 
ATOM     29  C   UNL     1      34.065 -19.024 -23.192  0.00  0.00    +0.003 C 
ATOM     30  C   UNL     1      34.659 -18.713 -21.969  0.00  0.00    +0.003 C 
BRANCH  26  33
ATOM     31  N   UNL     1      31.883 -18.716 -25.489  0.00  0.00    -0.343 N 
ATOM     32  N   UNL     1      33.937 -18.292 -26.520  0.00  0.00    -0.285 NA
ATOM     33  C   UNL     1      33.223 -18.343 -25.410  0.00  0.00    +0.117 C 
ATOM     34  H   UNL     1      31.483 -18.931 -26.363  0.00  0.00    +0.144 HD
ATOM     35  H   UNL     1      31.335 -18.764 -24.673  0.00  0.00    +0.144 HD
ATOM     36  H   UNL     1      33.518 -18.511 -27.384  0.00  0.00    +0.188 HD
ENDBRANCH  26  33
ENDBRANCH  24  25
ENDBRANCH   6  24
TORSDOF 6
ENDMDL
MODEL 6
REMARK VINA RESULT:     -11.3      5.381     11.773
REMARK  Name = 4470378
REMARK  6 active torsions:
REMARK  status: ('A' for Active; 'I' for Inactive)
REMARK    1  A    between atoms: C_5  and  O_10
REMARK    2  A    between atoms: C_6  and  O_24
REMARK    3  A    between atoms: O_10  and  C_11
REMARK    4  A    between atoms: C_12  and  C_19
REMARK    5  A    between atoms: O_24  and  C_25
REMARK    6  A    between atoms: C_26  and  C_33
REMARK                            x       y       z     vdW  Elec       q    Type
REMARK                         _______ _______ _______ _____ _____    ______ ____
ROOT
ATOM      1  F   UNL     1      30.595 -23.044 -17.217  0.00  0.00    -0.221 F 
ATOM      2  F   UNL     1      33.187 -23.571 -13.268  0.00  0.00    -0.199 F 
ATOM      3  N   UNL     1      34.188 -23.033 -16.713  0.00  0.00    -0.331 NA
ATOM      4  C   UNL     1      31.846 -23.313 -15.213  0.00  0.00    +0.031 C 
ATOM      5  C   UNL     1      32.964 -22.977 -17.285  0.00  0.00    +0.298 C 
ATOM      6  C   UNL     1      34.204 -23.232 -15.383  0.00  0.00    +0.312 C 
ATOM      7  C   UNL     1      31.775 -23.109 -16.587  0.00  0.00    +0.270 C 
ATOM      8  C   UNL     1      33.087 -23.377 -14.588  0.00  0.00    +0.201 C 
ATOM      9  C   UNL     1      30.597 -23.464 -14.413  0.00  0.00    +0.032 C 
ENDROOT
BRANCH   5  10
ATOM     10  O   UNL     1      32.921 -22.776 -18.640  0.00  0.00    -0.428 OA
BRANCH  10  11
ATOM     11  C   UNL     1      33.881 -21.952 -19.190  0.00  0.00    +0.148 C 
ATOM     12  C   UNL     1      34.465 -20.116 -20.620  0.00  0.00    +0.032 C 
ATOM     13  C   UNL     1      33.493 -20.948 -20.062  0.00  0.00    +0.040 C 
ATOM     14  C   UNL     1      35.212 -22.147 -18.860  0.00  0.00    +0.038 C 
ATOM     15  C   UNL     1      35.809 -20.299 -20.297  0.00  0.00    +0.003 C 
ATOM     16  C   UNL     1      36.183 -21.315 -19.417  0.00  0.00    +0.003 C 
BRANCH  12  19
ATOM     17  N   UNL     1      34.669 -17.857 -21.472  0.00  0.00    -0.387 N 
ATOM     18  N   UNL     1      33.120 -19.275 -22.450  0.00  0.00    -0.345 N 
ATOM     19  C   UNL     1      34.078 -19.063 -21.532  0.00  0.00    +0.096 C 
ATOM     20  H   UNL     1      34.400 -17.146 -22.096  0.00  0.00    +0.157 HD
ATOM     21  H   UNL     1      35.372 -17.686 -20.803  0.00  0.00    +0.157 HD
ATOM     22  H   UNL     1      32.861 -18.553 -23.067  0.00  0.00    +0.144 HD
ATOM     23  H   UNL     1      32.677 -20.152 -22.505  0.00  0.00    +0.144 HD
ENDBRANCH  12  19
ENDBRANCH  10  11
ENDBRANCH   5  10
BRANCH   6  24
ATOM     24  O   UNL     1      35.453 -23.293 -14.787  0.00  0.00    -0.426 OA
BRANCH  24  25
ATOM     25  C   UNL     1      36.134 -24.469 -14.865  0.00  0.00    +0.148 C 
ATOM     26  C   UNL     1      38.212 -25.696 -14.740  0.00  0.00    +0.034 C 
ATOM     27  C   UNL     1      37.513 -24.491 -14.658  0.00  0.00    +0.040 C 
ATOM     28  C   UNL     1      35.453 -25.651 -15.154  0.00  0.00    +0.038 C 
ATOM     29  C   UNL     1      37.531 -26.878 -15.029  0.00  0.00    +0.003 C 
ATOM     30  C   UNL     1      36.151 -26.856 -15.236  0.00  0.00    +0.003 C 
BRANCH  26  33
ATOM     31  N   UNL     1      40.366 -26.914 -14.543  0.00  0.00    -0.343 N 
ATOM     32  N   UNL     1      40.300 -24.591 -14.298  0.00  0.00    -0.285 NA
ATOM     33  C   UNL     1      39.650 -25.718 -14.524  0.00  0.00    +0.117 C 
ATOM     34  H   UNL     1      41.339 -26.907 -14.395  0.00  0.00    +0.144 HD
ATOM     35  H   UNL     1      39.900 -27.766 -14.706  0.00  0.00    +0.144 HD
ATOM     36  H   UNL     1      41.273 -24.605 -14.152  0.00  0.00    +0.188 HD
ENDBRANCH  26  33
ENDBRANCH  24  25
ENDBRANCH   6  24
TORSDOF 6
ENDMDL
MODEL 7
REMARK VINA RESULT:     -11.3      2.982      7.175
REMARK  Name = 4470378
REMARK  6 active torsions:
REMARK  status: ('A' for Active; 'I' for Inactive)
REMARK    1  A    between atoms: C_5  and  O_10
REMARK    2  A    between atoms: C_6  and  O_24
REMARK    3  A    between atoms: O_10  and  C_11
REMARK    4  A    between atoms: C_12  and  C_19
REMARK    5  A    between atoms: O_24  and  C_25
REMARK    6  A    between atoms: C_26  and  C_33
REMARK                            x       y       z     vdW  Elec       q    Type
REMARK                         _______ _______ _______ _____ _____    ______ ____
ROOT
ATOM      1  F   UNL     1      34.631 -19.924 -24.154  0.00  0.00    -0.221 F 
ATOM      2  F   UNL     1      35.029 -17.174 -20.298  0.00  0.00    -0.199 F 
ATOM      3  N   UNL     1      34.708 -16.313 -23.807  0.00  0.00    -0.331 NA
ATOM      4  C   UNL     1      34.833 -18.593 -22.194  0.00  0.00    +0.031 C 
ATOM      5  C   UNL     1      34.643 -17.560 -24.328  0.00  0.00    +0.298 C 
ATOM      6  C   UNL     1      34.836 -16.243 -22.470  0.00  0.00    +0.312 C 
ATOM      7  C   UNL     1      34.700 -18.720 -23.573  0.00  0.00    +0.270 C 
ATOM      8  C   UNL     1      34.902 -17.327 -21.621  0.00  0.00    +0.201 C 
ATOM      9  C   UNL     1      34.900 -19.808 -21.333  0.00  0.00    +0.032 C 
ENDROOT
BRANCH   5  10
ATOM     10  O   UNL     1      34.514 -17.658 -25.688  0.00  0.00    -0.428 OA
BRANCH  10  11
ATOM     11  C   UNL     1      33.432 -17.030 -26.270  0.00  0.00    +0.148 C 
ATOM     12  C   UNL     1      32.442 -15.063 -27.225  0.00  0.00    +0.032 C 
ATOM     13  C   UNL     1      33.537 -15.698 -26.637  0.00  0.00    +0.040 C 
ATOM     14  C   UNL     1      32.263 -17.744 -26.475  0.00  0.00    +0.038 C 
ATOM     15  C   UNL     1      31.258 -15.770 -27.437  0.00  0.00    +0.003 C 
ATOM     16  C   UNL     1      31.168 -17.110 -27.062  0.00  0.00    +0.003 C 
BRANCH  12  19
ATOM     17  N   UNL     1      33.732 -13.108 -27.841  0.00  0.00    -0.387 N 
ATOM     18  N   UNL     1      31.424 -12.929 -27.750  0.00  0.00    -0.345 N 
ATOM     19  C   UNL     1      32.534 -13.674 -27.613  0.00  0.00    +0.096 C 
ATOM     20  H   UNL     1      33.787 -12.162 -28.105  0.00  0.00    +0.157 HD
ATOM     21  H   UNL     1      34.555 -13.641 -27.744  0.00  0.00    +0.157 HD
ATOM     22  H   UNL     1      31.496 -11.983 -28.014  0.00  0.00    +0.144 HD
ATOM     23  H   UNL     1      30.540 -13.329 -27.585  0.00  0.00    +0.144 HD
ENDBRANCH  12  19
ENDBRANCH  10  11
ENDBRANCH   5  10
BRANCH   6  24
ATOM     24  O   UNL     1      34.905 -14.972 -21.926  0.00  0.00    -0.426 OA
BRANCH  24  25
ATOM     25  C   UNL     1      33.984 -14.058 -22.335  0.00  0.00    +0.148 C 
ATOM     26  C   UNL     1      32.180 -12.532 -21.827  0.00  0.00    +0.034 C 
ATOM     27  C   UNL     1      33.125 -13.468 -21.407  0.00  0.00    +0.040 C 
ATOM     28  C   UNL     1      33.895 -13.712 -23.684  0.00  0.00    +0.038 C 
ATOM     29  C   UNL     1      32.092 -12.187 -23.175  0.00  0.00    +0.003 C 
ATOM     30  C   UNL     1      32.950 -12.776 -24.104  0.00  0.00    +0.003 C 
BRANCH  26  33
ATOM     31  N   UNL     1      30.064 -11.370 -21.247  0.00  0.00    -0.343 N 
ATOM     32  N   UNL     1      31.629 -11.867 -19.584  0.00  0.00    -0.285 NA
ATOM     33  C   UNL     1      31.285 -11.918 -20.858  0.00  0.00    +0.117 C 
ATOM     34  H   UNL     1      29.474 -10.958 -20.575  0.00  0.00    +0.144 HD
ATOM     35  H   UNL     1      29.791 -11.394 -22.193  0.00  0.00    +0.144 HD
ATOM     36  H   UNL     1      31.024 -11.452 -18.928  0.00  0.00    +0.188 HD
ENDBRANCH  26  33
ENDBRANCH  24  25
ENDBRANCH   6  24
TORSDOF 6
ENDMDL
MODEL 8
REMARK VINA RESULT:     -11.2      5.755      9.112
REMARK  Name = 4470378
REMARK  6 active torsions:
REMARK  status: ('A' for Active; 'I' for Inactive)
REMARK    1  A    between atoms: C_5  and  O_10
REMARK    2  A    between atoms: C_6  and  O_24
REMARK    3  A    between atoms: O_10  and  C_11
REMARK    4  A    between atoms: C_12  and  C_19
REMARK    5  A    between atoms: O_24  and  C_25
REMARK    6  A    between atoms: C_26  and  C_33
REMARK                            x       y       z     vdW  Elec       q    Type
REMARK                         _______ _______ _______ _____ _____    ______ ____
ROOT
ATOM      1  F   UNL     1      32.992 -23.161 -13.342  0.00  0.00    -0.221 F 
ATOM      2  F   UNL     1      31.580 -23.598 -17.860  0.00  0.00    -0.199 F 
ATOM      3  N   UNL     1      34.859 -22.954 -16.446  0.00  0.00    -0.331 NA
ATOM      4  C   UNL     1      32.235 -23.387 -15.584  0.00  0.00    +0.031 C 
ATOM      5  C   UNL     1      34.531 -22.960 -15.134  0.00  0.00    +0.298 C 
ATOM      6  C   UNL     1      33.845 -23.169 -17.304  0.00  0.00    +0.312 C 
ATOM      7  C   UNL     1      33.248 -23.170 -14.656  0.00  0.00    +0.270 C 
ATOM      8  C   UNL     1      32.533 -23.389 -16.943  0.00  0.00    +0.201 C 
ATOM      9  C   UNL     1      30.835 -23.617 -15.125  0.00  0.00    +0.032 C 
ENDROOT
BRANCH   5  10
ATOM     10  O   UNL     1      35.546 -22.741 -14.240  0.00  0.00    -0.428 OA
BRANCH  10  11
ATOM     11  C   UNL     1      36.277 -23.837 -13.830  0.00  0.00    +0.148 C 
ATOM     12  C   UNL     1      38.162 -25.296 -14.109  0.00  0.00    +0.032 C 
ATOM     13  C   UNL     1      37.423 -24.187 -14.524  0.00  0.00    +0.040 C 
ATOM     14  C   UNL     1      35.849 -24.564 -12.731  0.00  0.00    +0.038 C 
ATOM     15  C   UNL     1      37.743 -26.038 -13.005  0.00  0.00    +0.003 C 
ATOM     16  C   UNL     1      36.586 -25.673 -12.316  0.00  0.00    +0.003 C 
BRANCH  12  19
ATOM     17  N   UNL     1      40.062 -26.758 -14.449  0.00  0.00    -0.387 N 
ATOM     18  N   UNL     1      39.790 -24.947 -15.867  0.00  0.00    -0.345 N 
ATOM     19  C   UNL     1      39.360 -25.674 -14.822  0.00  0.00    +0.096 C 
ATOM     20  H   UNL     1      40.877 -27.010 -14.940  0.00  0.00    +0.157 HD
ATOM     21  H   UNL     1      39.760 -27.301 -13.684  0.00  0.00    +0.157 HD
ATOM     22  H   UNL     1      40.608 -25.211 -16.348  0.00  0.00    +0.144 HD
ATOM     23  H   UNL     1      39.287 -24.149 -16.152  0.00  0.00    +0.144 HD
ENDBRANCH  12  19
ENDBRANCH  10  11
ENDBRANCH   5  10
BRANCH   6  24
ATOM     24  O   UNL     1      34.169 -23.164 -18.650  0.00  0.00    -0.426 OA
BRANCH  24  25
ATOM     25  C   UNL     1      33.976 -22.009 -19.343  0.00  0.00    +0.148 C 
ATOM     26  C   UNL     1      34.872 -20.122 -20.557  0.00  0.00    +0.034 C 
ATOM     27  C   UNL     1      35.070 -21.307 -19.849  0.00  0.00    +0.040 C 
ATOM     28  C   UNL     1      32.684 -21.525 -19.544  0.00  0.00    +0.038 C 
ATOM     29  C   UNL     1      33.580 -19.638 -20.759  0.00  0.00    +0.003 C 
ATOM     30  C   UNL     1      32.486 -20.340 -20.253  0.00  0.00    +0.003 C 
BRANCH  26  33
ATOM     31  N   UNL     1      35.898 -18.587 -22.217  0.00  0.00    -0.343 N 
ATOM     32  N   UNL     1      37.190 -19.488 -20.491  0.00  0.00    -0.285 NA
ATOM     33  C   UNL     1      36.014 -19.391 -21.085  0.00  0.00    +0.117 C 
ATOM     34  H   UNL     1      36.683 -18.101 -22.558  0.00  0.00    +0.144 HD
ATOM     35  H   UNL     1      35.031 -18.504 -22.676  0.00  0.00    +0.144 HD
ATOM     36  H   UNL     1      37.963 -18.994 -20.847  0.00  0.00    +0.188 HD
ENDBRANCH  26  33
ENDBRANCH  24  25
ENDBRANCH   6  24
TORSDOF 6
ENDMDL
MODEL 9
REMARK VINA RESULT:     -11.2      3.143      7.247
REMARK  Name = 4470378
REMARK  6 active torsions:
REMARK  status: ('A' for Active; 'I' for Inactive)
REMARK    1  A    between atoms: C_5  and  O_10
REMARK    2  A    between atoms: C_6  and  O_24
REMARK    3  A    between atoms: O_10  and  C_11
REMARK    4  A    between atoms: C_12  and  C_19
REMARK    5  A    between atoms: O_24  and  C_25
REMARK    6  A    between atoms: C_26  and  C_33
REMARK                            x       y       z     vdW  Elec       q    Type
REMARK                         _______ _______ _______ _____ _____    ______ ____
ROOT
ATOM      1  F   UNL     1      34.043 -19.604 -24.721  0.00  0.00    -0.221 F 
ATOM      2  F   UNL     1      34.808 -17.202 -20.692  0.00  0.00    -0.199 F 
ATOM      3  N   UNL     1      34.603 -16.068 -24.132  0.00  0.00    -0.331 NA
ATOM      4  C   UNL     1      34.423 -18.449 -22.678  0.00  0.00    +0.031 C 
ATOM      5  C   UNL     1      34.372 -17.256 -24.735  0.00  0.00    +0.298 C 
ATOM      6  C   UNL     1      34.740 -16.108 -22.794  0.00  0.00    +0.312 C 
ATOM      7  C   UNL     1      34.273 -18.463 -24.061  0.00  0.00    +0.270 C 
ATOM      8  C   UNL     1      34.662 -17.246 -22.021  0.00  0.00    +0.201 C 
ATOM      9  C   UNL     1      34.328 -19.719 -21.902  0.00  0.00    +0.032 C 
ENDROOT
BRANCH   5  10
ATOM     10  O   UNL     1      34.230 -17.243 -26.097  0.00  0.00    -0.428 OA
BRANCH  10  11
ATOM     11  C   UNL     1      33.210 -16.475 -26.622  0.00  0.00    +0.148 C 
ATOM     12  C   UNL     1      32.404 -14.356 -27.408  0.00  0.00    +0.032 C 
ATOM     13  C   UNL     1      33.436 -15.133 -26.878  0.00  0.00    +0.040 C 
ATOM     14  C   UNL     1      31.983 -17.063 -26.880  0.00  0.00    +0.038 C 
ATOM     15  C   UNL     1      31.163 -14.934 -27.674  0.00  0.00    +0.003 C 
ATOM     16  C   UNL     1      30.952 -16.287 -27.410  0.00  0.00    +0.003 C 
BRANCH  12  19
ATOM     17  N   UNL     1      33.868 -12.477 -27.843  0.00  0.00    -0.387 N 
ATOM     18  N   UNL     1      31.583 -12.108 -27.775  0.00  0.00    -0.345 N 
ATOM     19  C   UNL     1      32.622 -12.954 -27.682  0.00  0.00    +0.096 C 
ATOM     20  H   UNL     1      34.009 -11.520 -28.029  0.00  0.00    +0.157 HD
ATOM     21  H   UNL     1      34.641 -13.084 -27.777  0.00  0.00    +0.157 HD
ATOM     22  H   UNL     1      31.739 -11.153 -27.961  0.00  0.00    +0.144 HD
ATOM     23  H   UNL     1      30.664 -12.442 -27.657  0.00  0.00    +0.144 HD
ENDBRANCH  12  19
ENDBRANCH  10  11
ENDBRANCH   5  10
BRANCH   6  24
ATOM     24  O   UNL     1      34.979 -14.897 -22.166  0.00  0.00    -0.426 OA
BRANCH  24  25
ATOM     25  C   UNL     1      34.088 -13.891 -22.373  0.00  0.00    +0.148 C 
ATOM     26  C   UNL     1      33.386 -11.938 -23.611  0.00  0.00    +0.034 C 
ATOM     27  C   UNL     1      34.300 -12.970 -23.400  0.00  0.00    +0.040 C 
ATOM     28  C   UNL     1      32.962 -13.777 -21.556  0.00  0.00    +0.038 C 
ATOM     29  C   UNL     1      32.261 -11.824 -22.795  0.00  0.00    +0.003 C 
ATOM     30  C   UNL     1      32.049 -12.744 -21.768  0.00  0.00    +0.003 C 
BRANCH  26  33
ATOM     31  N   UNL     1      32.602 -10.104 -25.090  0.00  0.00    -0.343 N 
ATOM     32  N   UNL     1      34.779 -10.930 -25.290  0.00  0.00    -0.285 NA
ATOM     33  C   UNL     1      33.608 -10.978 -24.682  0.00  0.00    +0.117 C 
ATOM     34  H   UNL     1      32.773  -9.463 -25.817  0.00  0.00    +0.144 HD
ATOM     35  H   UNL     1      31.721 -10.127 -24.651  0.00  0.00    +0.144 HD
ATOM     36  H   UNL     1      34.930 -10.281 -26.015  0.00  0.00    +0.188 HD
ENDBRANCH  26  33
ENDBRANCH  24  25
ENDBRANCH   6  24
TORSDOF 6
ENDMDL
