MODEL 1
REMARK VINA RESULT:     -12.3      0.000      0.000
REMARK  Name = 11574606
REMARK  6 active torsions:
REMARK  status: ('A' for Active; 'I' for Inactive)
REMARK    1  A    between atoms: C_5  and  O_24
REMARK    2  A    between atoms: C_7  and  N_10
REMARK    3  A    between atoms: N_10  and  C_12
REMARK    4  A    between atoms: C_15  and  S_18
REMARK    5  A    between atoms: S_18  and  N_21
REMARK    6  A    between atoms: O_24  and  C_25
REMARK                            x       y       z     vdW  Elec       q    Type
REMARK                         _______ _______ _______ _____ _____    ______ ____
ROOT
ATOM      1  N   UNL     1      32.643 -23.695 -14.237  0.00  0.00    -0.299 NA
ATOM      2  N   UNL     1      31.696 -23.160 -16.383  0.00  0.00    -0.106 N 
ATOM      3  N   UNL     1      30.486 -22.814 -16.895  0.00  0.00    -0.139 NA
ATOM      4  N   UNL     1      30.321 -23.117 -14.643  0.00  0.00    -0.145 NA
ATOM      5  C   UNL     1      33.757 -23.846 -14.878  0.00  0.00    +0.291 C 
ATOM      6  C   UNL     1      33.997 -23.681 -16.329  0.00  0.00    +0.105 C 
ATOM      7  C   UNL     1      32.918 -23.331 -17.050  0.00  0.00    +0.142 C 
ATOM      8  C   UNL     1      31.570 -23.341 -15.000  0.00  0.00    +0.178 C 
ATOM      9  C   UNL     1      29.711 -22.804 -15.814  0.00  0.00    +0.230 C 
ENDROOT
BRANCH   7  10
ATOM     10  N   UNL     1      32.934 -23.131 -18.402  0.00  0.00    -0.299 N 
ATOM     11  H   UNL     1      32.425 -23.781 -18.938  0.00  0.00    +0.153 HD
BRANCH  10  12
ATOM     12  C   UNL     1      33.581 -22.121 -19.122  0.00  0.00    +0.049 C 
ATOM     13  C   UNL     1      34.978 -22.024 -19.109  0.00  0.00    +0.016 C 
ATOM     14  C   UNL     1      32.839 -21.194 -19.866  0.00  0.00    +0.016 C 
ATOM     15  C   UNL     1      34.876 -20.098 -20.564  0.00  0.00    +0.122 C 
ATOM     16  C   UNL     1      35.623 -21.017 -19.827  0.00  0.00    +0.021 C 
ATOM     17  C   UNL     1      33.484 -20.187 -20.583  0.00  0.00    +0.021 C 
BRANCH  15  18
ATOM     18  S   UNL     1      35.682 -18.837 -21.463  0.00  0.00    +0.057 S 
ATOM     19  O   UNL     1      37.115 -18.946 -21.222  0.00  0.00    -0.153 OA
ATOM     20  O   UNL     1      35.175 -18.844 -22.828  0.00  0.00    -0.153 OA
BRANCH  18  21
ATOM     21  N   UNL     1      35.095 -17.444 -20.667  0.00  0.00    -0.203 NA
ATOM     22  H   UNL     1      35.194 -16.634 -21.280  0.00  0.00    +0.144 HD
ATOM     23  H   UNL     1      35.630 -17.289 -19.812  0.00  0.00    +0.144 HD
ENDBRANCH  18  21
ENDBRANCH  15  18
ENDBRANCH  10  12
ENDBRANCH   7  10
BRANCH   5  24
ATOM     24  O   UNL     1      34.881 -24.198 -14.209  0.00  0.00    -0.455 OA
BRANCH  24  25
ATOM     25  C   UNL     1      35.915 -24.618 -15.098  0.00  0.00    +0.169 C 
ATOM     26  C   UNL     1      37.214 -23.883 -14.764  0.00  0.00    +0.044 C 
ATOM     27  C   UNL     1      36.078 -26.133 -14.980  0.00  0.00    +0.044 C 
ATOM     28  C   UNL     1      37.779 -24.301 -13.405  0.00  0.00    +0.004 C 
ATOM     29  C   UNL     1      36.647 -26.548 -13.623  0.00  0.00    +0.004 C 
ATOM     30  C   UNL     1      37.947 -25.815 -13.309  0.00  0.00    +0.000 C 
ENDBRANCH  24  25
ENDBRANCH   5  24
TORSDOF 6
ENDMDL
MODEL 2
REMARK VINA RESULT:     -10.9      5.493     11.013
REMARK  Name = 11574606
REMARK  6 active torsions:
REMARK  status: ('A' for Active; 'I' for Inactive)
REMARK    1  A    between atoms: C_5  and  O_24
REMARK    2  A    between atoms: C_7  and  N_10
REMARK    3  A    between atoms: N_10  and  C_12
REMARK    4  A    between atoms: C_15  and  S_18
REMARK    5  A    between atoms: S_18  and  N_21
REMARK    6  A    between atoms: O_24  and  C_25
REMARK                            x       y       z     vdW  Elec       q    Type
REMARK                         _______ _______ _______ _____ _____    ______ ____
ROOT
ATOM      1  N   UNL     1      33.608 -15.772 -24.788  0.00  0.00    -0.299 NA
ATOM      2  N   UNL     1      34.489 -17.872 -24.015  0.00  0.00    -0.106 N 
ATOM      3  N   UNL     1      34.537 -19.163 -24.435  0.00  0.00    -0.139 NA
ATOM      4  N   UNL     1      33.424 -17.889 -25.959  0.00  0.00    -0.145 NA
ATOM      5  C   UNL     1      34.101 -15.277 -23.698  0.00  0.00    +0.291 C 
ATOM      6  C   UNL     1      34.840 -15.991 -22.633  0.00  0.00    +0.105 C 
ATOM      7  C   UNL     1      35.012 -17.308 -22.841  0.00  0.00    +0.142 C 
ATOM      8  C   UNL     1      33.801 -17.109 -24.966  0.00  0.00    +0.178 C 
ATOM      9  C   UNL     1      33.890 -19.110 -25.595  0.00  0.00    +0.230 C 
ENDROOT
BRANCH   7  10
ATOM     10  N   UNL     1      35.667 -18.139 -21.977  0.00  0.00    -0.299 N 
ATOM     11  H   UNL     1      36.629 -17.968 -21.864  0.00  0.00    +0.153 HD
BRANCH  10  12
ATOM     12  C   UNL     1      35.146 -19.204 -21.234  0.00  0.00    +0.049 C 
ATOM     13  C   UNL     1      36.002 -20.102 -20.585  0.00  0.00    +0.016 C 
ATOM     14  C   UNL     1      33.760 -19.384 -21.130  0.00  0.00    +0.016 C 
ATOM     15  C   UNL     1      34.101 -21.336 -19.746  0.00  0.00    +0.122 C 
ATOM     16  C   UNL     1      35.482 -21.163 -19.843  0.00  0.00    +0.021 C 
ATOM     17  C   UNL     1      33.241 -20.446 -20.389  0.00  0.00    +0.021 C 
BRANCH  15  18
ATOM     18  S   UNL     1      33.450 -22.664 -18.819  0.00  0.00    +0.057 S 
ATOM     19  O   UNL     1      32.124 -22.287 -18.347  0.00  0.00    -0.153 OA
ATOM     20  O   UNL     1      33.623 -23.891 -19.584  0.00  0.00    -0.153 OA
BRANCH  18  21
ATOM     21  N   UNL     1      34.522 -22.690 -17.489  0.00  0.00    -0.203 NA
ATOM     22  H   UNL     1      35.406 -22.254 -17.756  0.00  0.00    +0.144 HD
ATOM     23  H   UNL     1      34.691 -23.655 -17.207  0.00  0.00    +0.144 HD
ENDBRANCH  18  21
ENDBRANCH  15  18
ENDBRANCH  10  12
ENDBRANCH   7  10
BRANCH   5  24
ATOM     24  O   UNL     1      33.961 -13.957 -23.429  0.00  0.00    -0.455 OA
BRANCH  24  25
ATOM     25  C   UNL     1      32.793 -13.414 -24.043  0.00  0.00    +0.169 C 
ATOM     26  C   UNL     1      31.992 -12.615 -23.015  0.00  0.00    +0.044 C 
ATOM     27  C   UNL     1      33.220 -12.544 -25.225  0.00  0.00    +0.044 C 
ATOM     28  C   UNL     1      32.729 -11.351 -22.568  0.00  0.00    +0.004 C 
ATOM     29  C   UNL     1      33.952 -11.280 -24.775  0.00  0.00    +0.004 C 
ATOM     30  C   UNL     1      33.136 -10.488 -23.759  0.00  0.00    +0.000 C 
ENDBRANCH  24  25
ENDBRANCH   5  24
TORSDOF 6
ENDMDL
MODEL 3
REMARK VINA RESULT:     -10.6      2.135      4.869
REMARK  Name = 11574606
REMARK  6 active torsions:
REMARK  status: ('A' for Active; 'I' for Inactive)
REMARK    1  A    between atoms: C_5  and  O_24
REMARK    2  A    between atoms: C_7  and  N_10
REMARK    3  A    between atoms: N_10  and  C_12
REMARK    4  A    between atoms: C_15  and  S_18
REMARK    5  A    between atoms: S_18  and  N_21
REMARK    6  A    between atoms: O_24  and  C_25
REMARK                            x       y       z     vdW  Elec       q    Type
REMARK                         _______ _______ _______ _____ _____    ______ ____
ROOT
ATOM      1  N   UNL     1      32.880 -23.566 -15.182  0.00  0.00    -0.299 NA
ATOM      2  N   UNL     1      34.998 -23.019 -16.183  0.00  0.00    -0.106 N 
ATOM      3  N   UNL     1      36.299 -22.924 -15.804  0.00  0.00    -0.139 NA
ATOM      4  N   UNL     1      35.014 -23.541 -14.027  0.00  0.00    -0.145 NA
ATOM      5  C   UNL     1      32.382 -23.352 -16.358  0.00  0.00    +0.291 C 
ATOM      6  C   UNL     1      33.103 -22.949 -17.586  0.00  0.00    +0.105 C 
ATOM      7  C   UNL     1      34.430 -22.794 -17.445  0.00  0.00    +0.142 C 
ATOM      8  C   UNL     1      34.229 -23.399 -15.076  0.00  0.00    +0.178 C 
ATOM      9  C   UNL     1      36.246 -23.246 -14.515  0.00  0.00    +0.230 C 
ENDROOT
BRANCH   7  10
ATOM     10  N   UNL     1      35.269 -22.427 -18.460  0.00  0.00    -0.299 N 
ATOM     11  H   UNL     1      36.090 -22.963 -18.552  0.00  0.00    +0.153 HD
BRANCH  10  12
ATOM     12  C   UNL     1      35.113 -21.388 -19.382  0.00  0.00    +0.049 C 
ATOM     13  C   UNL     1      36.227 -20.680 -19.850  0.00  0.00    +0.016 C 
ATOM     14  C   UNL     1      33.838 -21.041 -19.851  0.00  0.00    +0.016 C 
ATOM     15  C   UNL     1      34.799 -19.305 -21.231  0.00  0.00    +0.122 C 
ATOM     16  C   UNL     1      36.071 -19.644 -20.771  0.00  0.00    +0.021 C 
ATOM     17  C   UNL     1      33.683 -20.005 -20.771  0.00  0.00    +0.021 C 
BRANCH  15  18
ATOM     18  S   UNL     1      34.602 -18.008 -22.382  0.00  0.00    +0.057 S 
ATOM     19  O   UNL     1      33.471 -18.326 -23.243  0.00  0.00    -0.153 OA
ATOM     20  O   UNL     1      34.630 -16.742 -21.663  0.00  0.00    -0.153 OA
BRANCH  18  21
ATOM     21  N   UNL     1      36.043 -18.156 -23.288  0.00  0.00    -0.203 NA
ATOM     22  H   UNL     1      35.823 -18.125 -24.284  0.00  0.00    +0.144 HD
ATOM     23  H   UNL     1      36.494 -19.044 -23.068  0.00  0.00    +0.144 HD
ENDBRANCH  18  21
ENDBRANCH  15  18
ENDBRANCH  10  12
ENDBRANCH   7  10
BRANCH   5  24
ATOM     24  O   UNL     1      31.051 -23.491 -16.566  0.00  0.00    -0.455 OA
BRANCH  24  25
ATOM     25  C   UNL     1      30.381 -23.960 -15.397  0.00  0.00    +0.169 C 
ATOM     26  C   UNL     1      29.706 -22.788 -14.682  0.00  0.00    +0.044 C 
ATOM     27  C   UNL     1      29.368 -25.029 -15.807  0.00  0.00    +0.044 C 
ATOM     28  C   UNL     1      28.549 -22.208 -15.497  0.00  0.00    +0.004 C 
ATOM     29  C   UNL     1      28.211 -24.445 -16.617  0.00  0.00    +0.004 C 
ATOM     30  C   UNL     1      27.541 -23.285 -15.887  0.00  0.00    +0.000 C 
ENDBRANCH  24  25
ENDBRANCH   5  24
TORSDOF 6
ENDMDL
MODEL 4
REMARK VINA RESULT:     -10.5      3.802      7.522
REMARK  Name = 11574606
REMARK  6 active torsions:
REMARK  status: ('A' for Active; 'I' for Inactive)
REMARK    1  A    between atoms: C_5  and  O_24
REMARK    2  A    between atoms: C_7  and  N_10
REMARK    3  A    between atoms: N_10  and  C_12
REMARK    4  A    between atoms: C_15  and  S_18
REMARK    5  A    between atoms: S_18  and  N_21
REMARK    6  A    between atoms: O_24  and  C_25
REMARK                            x       y       z     vdW  Elec       q    Type
REMARK                         _______ _______ _______ _____ _____    ______ ____
ROOT
ATOM      1  N   UNL     1      32.272 -22.005 -19.126  0.00  0.00    -0.299 NA
ATOM      2  N   UNL     1      34.619 -21.681 -18.709  0.00  0.00    -0.106 N 
ATOM      3  N   UNL     1      35.666 -21.032 -19.283  0.00  0.00    -0.139 NA
ATOM      4  N   UNL     1      33.777 -20.698 -20.510  0.00  0.00    -0.145 NA
ATOM      5  C   UNL     1      32.281 -22.719 -18.047  0.00  0.00    +0.291 C 
ATOM      6  C   UNL     1      33.432 -23.012 -17.164  0.00  0.00    +0.105 C 
ATOM      7  C   UNL     1      34.598 -22.461 -17.544  0.00  0.00    +0.142 C 
ATOM      8  C   UNL     1      33.471 -21.461 -19.480  0.00  0.00    +0.178 C 
ATOM      9  C   UNL     1      35.104 -20.467 -20.347  0.00  0.00    +0.230 C 
ENDROOT
BRANCH   7  10
ATOM     10  N   UNL     1      35.773 -22.613 -16.863  0.00  0.00    -0.299 N 
ATOM     11  H   UNL     1      36.573 -22.245 -17.303  0.00  0.00    +0.153 HD
BRANCH  10  12
ATOM     12  C   UNL     1      35.985 -23.224 -15.623  0.00  0.00    +0.049 C 
ATOM     13  C   UNL     1      37.209 -23.841 -15.336  0.00  0.00    +0.016 C 
ATOM     14  C   UNL     1      34.975 -23.226 -14.651  0.00  0.00    +0.016 C 
ATOM     15  C   UNL     1      36.409 -24.448 -13.139  0.00  0.00    +0.122 C 
ATOM     16  C   UNL     1      37.420 -24.451 -14.099  0.00  0.00    +0.021 C 
ATOM     17  C   UNL     1      35.187 -23.836 -13.416  0.00  0.00    +0.021 C 
BRANCH  15  18
ATOM     18  S   UNL     1      36.672 -25.211 -11.591  0.00  0.00    +0.057 S 
ATOM     19  O   UNL     1      36.866 -26.639 -11.810  0.00  0.00    -0.153 OA
ATOM     20  O   UNL     1      37.676 -24.448 -10.863  0.00  0.00    -0.153 OA
BRANCH  18  21
ATOM     21  N   UNL     1      35.153 -24.970 -10.847  0.00  0.00    -0.203 NA
ATOM     22  H   UNL     1      35.216 -25.217  -9.858  0.00  0.00    +0.144 HD
ATOM     23  H   UNL     1      34.455 -25.559 -11.300  0.00  0.00    +0.144 HD
ENDBRANCH  18  21
ENDBRANCH  15  18
ENDBRANCH  10  12
ENDBRANCH   7  10
BRANCH   5  24
ATOM     24  O   UNL     1      31.139 -23.303 -17.611  0.00  0.00    -0.455 OA
BRANCH  24  25
ATOM     25  C   UNL     1      30.678 -22.716 -16.395  0.00  0.00    +0.169 C 
ATOM     26  C   UNL     1      29.168 -22.480 -16.474  0.00  0.00    +0.044 C 
ATOM     27  C   UNL     1      31.044 -23.642 -15.235  0.00  0.00    +0.044 C 
ATOM     28  C   UNL     1      28.382 -23.792 -16.509  0.00  0.00    +0.004 C 
ATOM     29  C   UNL     1      30.253 -24.950 -15.269  0.00  0.00    +0.004 C 
ATOM     30  C   UNL     1      28.750 -24.698 -15.337  0.00  0.00    +0.000 C 
ENDBRANCH  24  25
ENDBRANCH   5  24
TORSDOF 6
ENDMDL
MODEL 5
REMARK VINA RESULT:     -10.4      5.492     10.875
REMARK  Name = 11574606
REMARK  6 active torsions:
REMARK  status: ('A' for Active; 'I' for Inactive)
REMARK    1  A    between atoms: C_5  and  O_24
REMARK    2  A    between atoms: C_7  and  N_10
REMARK    3  A    between atoms: N_10  and  C_12
REMARK    4  A    between atoms: C_15  and  S_18
REMARK    5  A    between atoms: S_18  and  N_21
REMARK    6  A    between atoms: O_24  and  C_25
REMARK                            x       y       z     vdW  Elec       q    Type
REMARK                         _______ _______ _______ _____ _____    ______ ____
ROOT
ATOM      1  N   UNL     1      33.421 -14.580 -23.905  0.00  0.00    -0.299 NA
ATOM      2  N   UNL     1      34.542 -16.708 -23.893  0.00  0.00    -0.106 N 
ATOM      3  N   UNL     1      34.788 -17.724 -24.760  0.00  0.00    -0.139 NA
ATOM      4  N   UNL     1      33.589 -16.089 -25.797  0.00  0.00    -0.145 NA
ATOM      5  C   UNL     1      33.785 -14.493 -22.665  0.00  0.00    +0.291 C 
ATOM      6  C   UNL     1      34.561 -15.478 -21.879  0.00  0.00    +0.105 C 
ATOM      7  C   UNL     1      34.922 -16.586 -22.548  0.00  0.00    +0.142 C 
ATOM      8  C   UNL     1      33.805 -15.717 -24.552  0.00  0.00    +0.178 C 
ATOM      9  C   UNL     1      34.199 -17.299 -25.873  0.00  0.00    +0.230 C 
ENDROOT
BRANCH   7  10
ATOM     10  N   UNL     1      35.641 -17.610 -21.999  0.00  0.00    -0.299 N 
ATOM     11  H   UNL     1      36.619 -17.546 -22.091  0.00  0.00    +0.153 HD
BRANCH  10  12
ATOM     12  C   UNL     1      35.166 -18.740 -21.324  0.00  0.00    +0.049 C 
ATOM     13  C   UNL     1      33.799 -19.046 -21.326  0.00  0.00    +0.016 C 
ATOM     14  C   UNL     1      36.053 -19.581 -20.638  0.00  0.00    +0.016 C 
ATOM     15  C   UNL     1      34.216 -21.003 -19.972  0.00  0.00    +0.122 C 
ATOM     16  C   UNL     1      33.326 -20.173 -20.653  0.00  0.00    +0.021 C 
ATOM     17  C   UNL     1      35.579 -20.707 -19.965  0.00  0.00    +0.021 C 
BRANCH  15  18
ATOM     18  S   UNL     1      33.625 -22.413 -19.130  0.00  0.00    +0.057 S 
ATOM     19  O   UNL     1      32.295 -22.115 -18.614  0.00  0.00    -0.153 OA
ATOM     20  O   UNL     1      33.827 -23.579 -19.978  0.00  0.00    -0.153 OA
BRANCH  18  21
ATOM     21  N   UNL     1      34.718 -22.491 -17.819  0.00  0.00    -0.203 NA
ATOM     22  H   UNL     1      35.497 -21.852 -17.987  0.00  0.00    +0.144 HD
ATOM     23  H   UNL     1      35.074 -23.443 -17.729  0.00  0.00    +0.144 HD
ENDBRANCH  18  21
ENDBRANCH  15  18
ENDBRANCH  10  12
ENDBRANCH   7  10
BRANCH   5  24
ATOM     24  O   UNL     1      33.452 -13.401 -21.936  0.00  0.00    -0.455 OA
BRANCH  24  25
ATOM     25  C   UNL     1      32.058 -13.112 -22.027  0.00  0.00    +0.169 C 
ATOM     26  C   UNL     1      31.461 -12.998 -20.623  0.00  0.00    +0.044 C 
ATOM     27  C   UNL     1      31.877 -11.819 -22.823  0.00  0.00    +0.044 C 
ATOM     28  C   UNL     1      31.988 -11.775 -19.871  0.00  0.00    +0.004 C 
ATOM     29  C   UNL     1      32.400 -10.598 -22.066  0.00  0.00    +0.004 C 
ATOM     30  C   UNL     1      31.787 -10.493 -20.673  0.00  0.00    +0.000 C 
ENDBRANCH  24  25
ENDBRANCH   5  24
TORSDOF 6
ENDMDL
MODEL 6
REMARK VINA RESULT:     -10.1      3.184      8.231
REMARK  Name = 11574606
REMARK  6 active torsions:
REMARK  status: ('A' for Active; 'I' for Inactive)
REMARK    1  A    between atoms: C_5  and  O_24
REMARK    2  A    between atoms: C_7  and  N_10
REMARK    3  A    between atoms: N_10  and  C_12
REMARK    4  A    between atoms: C_15  and  S_18
REMARK    5  A    between atoms: S_18  and  N_21
REMARK    6  A    between atoms: O_24  and  C_25
REMARK                            x       y       z     vdW  Elec       q    Type
REMARK                         _______ _______ _______ _____ _____    ______ ____
ROOT
ATOM      1  N   UNL     1      33.739 -21.435 -19.710  0.00  0.00    -0.299 NA
ATOM      2  N   UNL     1      34.627 -22.546 -17.772  0.00  0.00    -0.106 N 
ATOM      3  N   UNL     1      34.182 -23.368 -16.785  0.00  0.00    -0.139 NA
ATOM      4  N   UNL     1      32.475 -22.859 -18.206  0.00  0.00    -0.145 NA
ATOM      5  C   UNL     1      34.938 -20.975 -19.874  0.00  0.00    +0.291 C 
ATOM      6  C   UNL     1      36.126 -21.228 -19.029  0.00  0.00    +0.105 C 
ATOM      7  C   UNL     1      35.917 -22.033 -17.973  0.00  0.00    +0.142 C 
ATOM      8  C   UNL     1      33.563 -22.248 -18.630  0.00  0.00    +0.178 C 
ATOM      9  C   UNL     1      32.898 -23.519 -17.098  0.00  0.00    +0.230 C 
ENDROOT
BRANCH   7  10
ATOM     10  N   UNL     1      36.886 -22.386 -17.077  0.00  0.00    -0.299 N 
ATOM     11  H   UNL     1      37.812 -22.185 -17.345  0.00  0.00    +0.153 HD
BRANCH  10  12
ATOM     12  C   UNL     1      36.732 -22.998 -15.829  0.00  0.00    +0.049 C 
ATOM     13  C   UNL     1      37.509 -24.110 -15.482  0.00  0.00    +0.016 C 
ATOM     14  C   UNL     1      35.798 -22.504 -14.908  0.00  0.00    +0.016 C 
ATOM     15  C   UNL     1      36.422 -24.222 -13.327  0.00  0.00    +0.122 C 
ATOM     16  C   UNL     1      37.355 -24.719 -14.237  0.00  0.00    +0.021 C 
ATOM     17  C   UNL     1      35.644 -23.114 -13.663  0.00  0.00    +0.021 C 
BRANCH  15  18
ATOM     18  S   UNL     1      36.228 -24.984 -11.769  0.00  0.00    +0.057 S 
ATOM     19  O   UNL     1      36.671 -26.368 -11.877  0.00  0.00    -0.153 OA
ATOM     20  O   UNL     1      36.807 -24.117 -10.753  0.00  0.00    -0.153 OA
BRANCH  18  21
ATOM     21  N   UNL     1      34.527 -24.961 -11.605  0.00  0.00    -0.203 NA
ATOM     22  H   UNL     1      34.136 -25.819 -11.998  0.00  0.00    +0.144 HD
ATOM     23  H   UNL     1      34.148 -24.156 -12.103  0.00  0.00    +0.144 HD
ENDBRANCH  18  21
ENDBRANCH  15  18
ENDBRANCH  10  12
ENDBRANCH   7  10
BRANCH   5  24
ATOM     24  O   UNL     1      35.214 -20.159 -20.918  0.00  0.00    -0.455 OA
BRANCH  24  25
ATOM     25  C   UNL     1      34.214 -19.155 -21.082  0.00  0.00    +0.169 C 
ATOM     26  C   UNL     1      34.864 -17.770 -21.075  0.00  0.00    +0.044 C 
ATOM     27  C   UNL     1      33.463 -19.418 -22.387  0.00  0.00    +0.044 C 
ATOM     28  C   UNL     1      35.744 -17.542 -22.306  0.00  0.00    +0.004 C 
ATOM     29  C   UNL     1      34.343 -19.185 -23.615  0.00  0.00    +0.004 C 
ATOM     30  C   UNL     1      34.976 -17.797 -23.600  0.00  0.00    +0.000 C 
ENDBRANCH  24  25
ENDBRANCH   5  24
TORSDOF 6
ENDMDL
MODEL 7
REMARK VINA RESULT:     -10.1      3.336      6.750
REMARK  Name = 11574606
REMARK  6 active torsions:
REMARK  status: ('A' for Active; 'I' for Inactive)
REMARK    1  A    between atoms: C_5  and  O_24
REMARK    2  A    between atoms: C_7  and  N_10
REMARK    3  A    between atoms: N_10  and  C_12
REMARK    4  A    between atoms: C_15  and  S_18
REMARK    5  A    between atoms: S_18  and  N_21
REMARK    6  A    between atoms: O_24  and  C_25
REMARK                            x       y       z     vdW  Elec       q    Type
REMARK                         _______ _______ _______ _____ _____    ______ ____
ROOT
ATOM      1  N   UNL     1      30.962 -23.005 -17.003  0.00  0.00    -0.299 NA
ATOM      2  N   UNL     1      31.504 -24.442 -15.151  0.00  0.00    -0.106 N 
ATOM      3  N   UNL     1      30.865 -25.317 -14.331  0.00  0.00    -0.139 NA
ATOM      4  N   UNL     1      29.393 -24.437 -15.830  0.00  0.00    -0.145 NA
ATOM      5  C   UNL     1      32.215 -22.678 -16.986  0.00  0.00    +0.291 C 
ATOM      6  C   UNL     1      33.267 -23.173 -16.072  0.00  0.00    +0.105 C 
ATOM      7  C   UNL     1      32.856 -24.068 -15.157  0.00  0.00    +0.142 C 
ATOM      8  C   UNL     1      30.580 -23.915 -16.062  0.00  0.00    +0.178 C 
ATOM      9  C   UNL     1      29.616 -25.272 -14.783  0.00  0.00    +0.230 C 
ENDROOT
BRANCH   7  10
ATOM     10  N   UNL     1      33.675 -24.641 -14.226  0.00  0.00    -0.299 N 
ATOM     11  H   UNL     1      33.237 -24.941 -13.396  0.00  0.00    +0.153 HD
BRANCH  10  12
ATOM     12  C   UNL     1      35.055 -24.857 -14.299  0.00  0.00    +0.049 C 
ATOM     13  C   UNL     1      35.944 -23.984 -13.661  0.00  0.00    +0.016 C 
ATOM     14  C   UNL     1      35.565 -25.951 -15.011  0.00  0.00    +0.016 C 
ATOM     15  C   UNL     1      37.819 -25.290 -14.446  0.00  0.00    +0.122 C 
ATOM     16  C   UNL     1      37.321 -24.199 -13.733  0.00  0.00    +0.021 C 
ATOM     17  C   UNL     1      36.941 -26.165 -15.085  0.00  0.00    +0.021 C 
BRANCH  15  18
ATOM     18  S   UNL     1      39.541 -25.560 -14.538  0.00  0.00    +0.057 S 
ATOM     19  O   UNL     1      40.188 -24.753 -13.512  0.00  0.00    -0.153 OA
ATOM     20  O   UNL     1      39.784 -26.994 -14.589  0.00  0.00    -0.153 OA
BRANCH  18  21
ATOM     21  N   UNL     1      39.894 -24.889 -16.069  0.00  0.00    -0.203 NA
ATOM     22  H   UNL     1      39.023 -24.687 -16.561  0.00  0.00    +0.144 HD
ATOM     23  H   UNL     1      40.445 -25.554 -16.613  0.00  0.00    +0.144 HD
ENDBRANCH  18  21
ENDBRANCH  15  18
ENDBRANCH  10  12
ENDBRANCH   7  10
BRANCH   5  24
ATOM     24  O   UNL     1      32.692 -21.781 -17.882  0.00  0.00    -0.455 OA
BRANCH  24  25
ATOM     25  C   UNL     1      32.927 -22.380 -19.155  0.00  0.00    +0.169 C 
ATOM     26  C   UNL     1      32.598 -21.381 -20.266  0.00  0.00    +0.044 C 
ATOM     27  C   UNL     1      34.385 -22.836 -19.221  0.00  0.00    +0.044 C 
ATOM     28  C   UNL     1      33.573 -20.203 -20.287  0.00  0.00    +0.004 C 
ATOM     29  C   UNL     1      35.357 -21.656 -19.247  0.00  0.00    +0.004 C 
ATOM     30  C   UNL     1      35.022 -20.675 -20.366  0.00  0.00    +0.000 C 
ENDBRANCH  24  25
ENDBRANCH   5  24
TORSDOF 6
ENDMDL
MODEL 8
REMARK VINA RESULT:     -10.0      6.321      9.665
REMARK  Name = 11574606
REMARK  6 active torsions:
REMARK  status: ('A' for Active; 'I' for Inactive)
REMARK    1  A    between atoms: C_5  and  O_24
REMARK    2  A    between atoms: C_7  and  N_10
REMARK    3  A    between atoms: N_10  and  C_12
REMARK    4  A    between atoms: C_15  and  S_18
REMARK    5  A    between atoms: S_18  and  N_21
REMARK    6  A    between atoms: O_24  and  C_25
REMARK                            x       y       z     vdW  Elec       q    Type
REMARK                         _______ _______ _______ _____ _____    ______ ____
ROOT
ATOM      1  N   UNL     1      33.588 -19.079 -24.471  0.00  0.00    -0.299 NA
ATOM      2  N   UNL     1      33.633 -16.721 -24.944  0.00  0.00    -0.106 N 
ATOM      3  N   UNL     1      33.226 -15.881 -25.931  0.00  0.00    -0.139 NA
ATOM      4  N   UNL     1      32.684 -18.028 -26.463  0.00  0.00    -0.145 NA
ATOM      5  C   UNL     1      34.196 -18.769 -23.371  0.00  0.00    +0.291 C 
ATOM      6  C   UNL     1      34.602 -17.423 -22.910  0.00  0.00    +0.105 C 
ATOM      7  C   UNL     1      34.293 -16.416 -23.744  0.00  0.00    +0.142 C 
ATOM      8  C   UNL     1      33.290 -18.033 -25.293  0.00  0.00    +0.178 C 
ATOM      9  C   UNL     1      32.669 -16.715 -26.804  0.00  0.00    +0.230 C 
ENDROOT
BRANCH   7  10
ATOM     10  N   UNL     1      34.582 -15.103 -23.498  0.00  0.00    -0.299 N 
ATOM     11  H   UNL     1      35.458 -14.789 -23.820  0.00  0.00    +0.153 HD
BRANCH  10  12
ATOM     12  C   UNL     1      33.795 -14.148 -22.847  0.00  0.00    +0.049 C 
ATOM     13  C   UNL     1      33.613 -14.205 -21.459  0.00  0.00    +0.016 C 
ATOM     14  C   UNL     1      33.178 -13.122 -23.575  0.00  0.00    +0.016 C 
ATOM     15  C   UNL     1      32.217 -12.235 -21.543  0.00  0.00    +0.122 C 
ATOM     16  C   UNL     1      32.828 -13.252 -20.810  0.00  0.00    +0.021 C 
ATOM     17  C   UNL     1      32.392 -12.170 -22.926  0.00  0.00    +0.021 C 
BRANCH  15  18
ATOM     18  S   UNL     1      31.234 -11.043 -20.732  0.00  0.00    +0.057 S 
ATOM     19  O   UNL     1      29.878 -11.130 -21.259  0.00  0.00    -0.153 OA
ATOM     20  O   UNL     1      31.460 -11.153 -19.298  0.00  0.00    -0.153 OA
BRANCH  18  21
ATOM     21  N   UNL     1      31.949  -9.595 -21.290  0.00  0.00    -0.203 NA
ATOM     22  H   UNL     1      31.474  -9.286 -22.139  0.00  0.00    +0.144 HD
ATOM     23  H   UNL     1      32.935  -9.759 -21.494  0.00  0.00    +0.144 HD
ENDBRANCH  18  21
ENDBRANCH  15  18
ENDBRANCH  10  12
ENDBRANCH   7  10
BRANCH   5  24
ATOM     24  O   UNL     1      34.536 -19.739 -22.488  0.00  0.00    -0.455 OA
BRANCH  24  25
ATOM     25  C   UNL     1      34.513 -19.260 -21.145  0.00  0.00    +0.169 C 
ATOM     26  C   UNL     1      33.214 -19.694 -20.463  0.00  0.00    +0.044 C 
ATOM     27  C   UNL     1      35.741 -19.798 -20.411  0.00  0.00    +0.044 C 
ATOM     28  C   UNL     1      33.150 -21.209 -20.259  0.00  0.00    +0.004 C 
ATOM     29  C   UNL     1      35.673 -21.311 -20.205  0.00  0.00    +0.004 C 
ATOM     30  C   UNL     1      34.378 -21.728 -19.514  0.00  0.00    +0.000 C 
ENDBRANCH  24  25
ENDBRANCH   5  24
TORSDOF 6
ENDMDL
MODEL 9
REMARK VINA RESULT:     -10.0      7.793     11.435
REMARK  Name = 11574606
REMARK  6 active torsions:
REMARK  status: ('A' for Active; 'I' for Inactive)
REMARK    1  A    between atoms: C_5  and  O_24
REMARK    2  A    between atoms: C_7  and  N_10
REMARK    3  A    between atoms: N_10  and  C_12
REMARK    4  A    between atoms: C_15  and  S_18
REMARK    5  A    between atoms: S_18  and  N_21
REMARK    6  A    between atoms: O_24  and  C_25
REMARK                            x       y       z     vdW  Elec       q    Type
REMARK                         _______ _______ _______ _____ _____    ______ ____
ROOT
ATOM      1  N   UNL     1      33.775 -16.960 -25.008  0.00  0.00    -0.299 NA
ATOM      2  N   UNL     1      33.071 -14.832 -25.878  0.00  0.00    -0.106 N 
ATOM      3  N   UNL     1      32.517 -14.340 -27.018  0.00  0.00    -0.139 NA
ATOM      4  N   UNL     1      32.802 -16.592 -27.200  0.00  0.00    -0.145 NA
ATOM      5  C   UNL     1      34.112 -16.302 -23.945  0.00  0.00    +0.291 C 
ATOM      6  C   UNL     1      33.982 -14.848 -23.702  0.00  0.00    +0.105 C 
ATOM      7  C   UNL     1      33.446 -14.145 -24.714  0.00  0.00    +0.142 C 
ATOM      8  C   UNL     1      33.236 -16.215 -26.014  0.00  0.00    +0.178 C 
ATOM      9  C   UNL     1      32.380 -15.432 -27.763  0.00  0.00    +0.230 C 
ENDROOT
BRANCH   7  10
ATOM     10  N   UNL     1      33.242 -12.794 -24.683  0.00  0.00    -0.299 N 
ATOM     11  H   UNL     1      33.457 -12.309 -25.513  0.00  0.00    +0.153 HD
BRANCH  10  12
ATOM     12  C   UNL     1      32.769 -12.012 -23.625  0.00  0.00    +0.049 C 
ATOM     13  C   UNL     1      32.870 -10.616 -23.673  0.00  0.00    +0.016 C 
ATOM     14  C   UNL     1      32.187 -12.616 -22.502  0.00  0.00    +0.016 C 
ATOM     15  C   UNL     1      31.820 -10.446 -21.504  0.00  0.00    +0.122 C 
ATOM     16  C   UNL     1      32.397  -9.836 -22.618  0.00  0.00    +0.021 C 
ATOM     17  C   UNL     1      31.715 -11.836 -21.447  0.00  0.00    +0.021 C 
BRANCH  15  18
ATOM     18  S   UNL     1      31.230  -9.471 -20.182  0.00  0.00    +0.057 S 
ATOM     19  O   UNL     1      31.070  -8.103 -20.656  0.00  0.00    -0.153 OA
ATOM     20  O   UNL     1      30.104 -10.159 -19.565  0.00  0.00    -0.153 OA
BRANCH  18  21
ATOM     21  N   UNL     1      32.561  -9.531 -19.113  0.00  0.00    -0.203 NA
ATOM     22  H   UNL     1      32.228  -9.467 -18.150  0.00  0.00    +0.144 HD
ATOM     23  H   UNL     1      33.189  -8.751 -19.308  0.00  0.00    +0.144 HD
ENDBRANCH  18  21
ENDBRANCH  15  18
ENDBRANCH  10  12
ENDBRANCH   7  10
BRANCH   5  24
ATOM     24  O   UNL     1      34.658 -16.953 -22.890  0.00  0.00    -0.455 OA
BRANCH  24  25
ATOM     25  C   UNL     1      35.140 -18.243 -23.258  0.00  0.00    +0.169 C 
ATOM     26  C   UNL     1      36.353 -18.607 -22.399  0.00  0.00    +0.044 C 
ATOM     27  C   UNL     1      34.008 -19.256 -23.092  0.00  0.00    +0.044 C 
ATOM     28  C   UNL     1      35.975 -18.819 -20.932  0.00  0.00    +0.004 C 
ATOM     29  C   UNL     1      33.636 -19.469 -21.625  0.00  0.00    +0.004 C 
ATOM     30  C   UNL     1      34.852 -19.842 -20.783  0.00  0.00    +0.000 C 
ENDBRANCH  24  25
ENDBRANCH   5  24
TORSDOF 6
ENDMDL
