MODEL 1
REMARK VINA RESULT:     -12.2      0.000      0.000
REMARK  Name = 16363
REMARK  6 active torsions:
REMARK  status: ('A' for Active; 'I' for Inactive)
REMARK    1  A    between atoms: N_1  and  C_19
REMARK    2  A    between atoms: C_2  and  N_9
REMARK    3  A    between atoms: C_19  and  C_20
REMARK    4  A    between atoms: C_20  and  C_21
REMARK    5  A    between atoms: C_21  and  C_23
REMARK    6  A    between atoms: C_23  and  C_25
REMARK                            x       y       z     vdW  Elec       q    Type
REMARK                         _______ _______ _______ _____ _____    ______ ____
ROOT
ATOM      1  N   UNL     1      34.028 -22.808 -18.262  0.00  0.00    +0.387 N 
ATOM      2  C   UNL     1      34.497 -23.101 -15.389  0.00  0.00    +0.086 C 
ATOM      3  C   UNL     1      33.363 -23.830 -16.110  0.00  0.00    -0.000 C 
ATOM      4  C   UNL     1      35.622 -22.776 -16.371  0.00  0.00    -0.000 C 
ATOM      5  C   UNL     1      32.905 -23.057 -17.348  0.00  0.00    -0.075 C 
ATOM      6  C   UNL     1      35.091 -22.037 -17.601  0.00  0.00    -0.075 C 
ATOM      7  H   UNL     1      34.418 -23.710 -18.535  0.00  0.00    -0.080 HD
ENDROOT
BRANCH   2   9
ATOM      8  O   UNL     1      33.112 -23.877 -12.825  0.00  0.00    -0.247 OA
ATOM      9  N   UNL     1      34.992 -23.878 -14.281  0.00  0.00    -0.282 N 
ATOM     10  N   UNL     1      35.142 -24.971 -12.300  0.00  0.00    -0.305 N 
ATOM     11  C   UNL     1      36.271 -24.443 -14.191  0.00  0.00    +0.079 A 
ATOM     12  C   UNL     1      34.259 -24.195 -13.104  0.00  0.00    +0.328 A 
ATOM     13  C   UNL     1      36.356 -25.112 -12.972  0.00  0.00    +0.076 A 
ATOM     14  C   UNL     1      37.331 -24.413 -15.072  0.00  0.00    +0.019 C 
ATOM     15  C   UNL     1      37.493 -25.780 -12.573  0.00  0.00    +0.019 C 
ATOM     16  C   UNL     1      38.498 -25.084 -14.691  0.00  0.00    +0.002 C 
ATOM     17  C   UNL     1      38.578 -25.759 -13.455  0.00  0.00    +0.002 C 
ATOM     18  H   UNL     1      34.930 -25.346 -11.415  0.00  0.00    +0.170 HD
ENDBRANCH   2   9
BRANCH   1  19
ATOM     19  C   UNL     1      33.566 -22.114 -19.464  0.00  0.00    -0.077 C 
BRANCH  19  20
ATOM     20  C   UNL     1      34.602 -21.080 -19.909  0.00  0.00    -0.015 C 
BRANCH  20  21
ATOM     21  C   UNL     1      33.976 -19.938 -20.714  0.00  0.00    +0.067 C 
BRANCH  21  23
ATOM     22  O   UNL     1      35.997 -18.630 -20.540  0.00  0.00    -0.291 OA
ATOM     23  C   UNL     1      34.989 -18.906 -21.188  0.00  0.00    +0.173 C 
BRANCH  23  25
ATOM     24  F   UNL     1      34.118 -16.344 -26.071  0.00  0.00    -0.204 F 
ATOM     25  C   UNL     1      34.755 -18.222 -22.492  0.00  0.00    +0.035 C 
ATOM     26  C   UNL     1      34.944 -16.860 -22.566  0.00  0.00    +0.005 C 
ATOM     27  C   UNL     1      34.361 -18.977 -23.573  0.00  0.00    +0.005 C 
ATOM     28  C   UNL     1      34.727 -16.220 -23.786  0.00  0.00    +0.030 C 
ATOM     29  C   UNL     1      34.144 -18.337 -24.793  0.00  0.00    +0.030 C 
ATOM     30  C   UNL     1      34.327 -16.959 -24.900  0.00  0.00    +0.140 C 
ENDBRANCH  23  25
ENDBRANCH  21  23
ENDBRANCH  20  21
ENDBRANCH  19  20
ENDBRANCH   1  19
TORSDOF 6
ENDMDL
MODEL 2
REMARK VINA RESULT:     -12.1      3.871     10.071
REMARK  Name = 16363
REMARK  6 active torsions:
REMARK  status: ('A' for Active; 'I' for Inactive)
REMARK    1  A    between atoms: N_1  and  C_19
REMARK    2  A    between atoms: C_2  and  N_9
REMARK    3  A    between atoms: C_19  and  C_20
REMARK    4  A    between atoms: C_20  and  C_21
REMARK    5  A    between atoms: C_21  and  C_23
REMARK    6  A    between atoms: C_23  and  C_25
REMARK                            x       y       z     vdW  Elec       q    Type
REMARK                         _______ _______ _______ _____ _____    ______ ____
ROOT
ATOM      1  N   UNL     1      34.876 -21.184 -19.072  0.00  0.00    +0.387 N 
ATOM      2  C   UNL     1      34.718 -19.612 -21.535  0.00  0.00    +0.086 C 
ATOM      3  C   UNL     1      33.496 -19.877 -20.655  0.00  0.00    -0.000 C 
ATOM      4  C   UNL     1      35.996 -19.697 -20.701  0.00  0.00    -0.000 C 
ATOM      5  C   UNL     1      33.645 -21.185 -19.876  0.00  0.00    -0.075 C 
ATOM      6  C   UNL     1      36.064 -21.010 -19.919  0.00  0.00    -0.075 C 
ATOM      7  H   UNL     1      34.831 -20.395 -18.429  0.00  0.00    -0.080 HD
ENDROOT
BRANCH   2   9
ATOM      8  O   UNL     1      35.060 -16.841 -20.393  0.00  0.00    -0.247 OA
ATOM      9  N   UNL     1      34.618 -18.333 -22.191  0.00  0.00    -0.282 N 
ATOM     10  N   UNL     1      34.604 -16.103 -22.593  0.00  0.00    -0.305 N 
ATOM     11  C   UNL     1      34.329 -18.137 -23.549  0.00  0.00    +0.079 A 
ATOM     12  C   UNL     1      34.797 -17.069 -21.566  0.00  0.00    +0.328 A 
ATOM     13  C   UNL     1      34.322 -16.765 -23.788  0.00  0.00    +0.076 A 
ATOM     14  C   UNL     1      34.079 -19.046 -24.555  0.00  0.00    +0.019 C 
ATOM     15  C   UNL     1      34.069 -16.233 -25.033  0.00  0.00    +0.019 C 
ATOM     16  C   UNL     1      33.819 -18.531 -25.830  0.00  0.00    +0.002 C 
ATOM     17  C   UNL     1      33.814 -17.140 -26.066  0.00  0.00    +0.002 C 
ATOM     18  H   UNL     1      34.662 -15.126 -22.479  0.00  0.00    +0.170 HD
ENDBRANCH   2   9
BRANCH   1  19
ATOM     19  C   UNL     1      34.979 -22.419 -18.294  0.00  0.00    -0.077 C 
BRANCH  19  20
ATOM     20  C   UNL     1      35.961 -22.233 -17.136  0.00  0.00    -0.015 C 
BRANCH  20  21
ATOM     21  C   UNL     1      35.299 -22.446 -15.772  0.00  0.00    +0.067 C 
BRANCH  21  23
ATOM     22  O   UNL     1      34.812 -24.809 -15.844  0.00  0.00    -0.291 OA
ATOM     23  C   UNL     1      34.385 -23.662 -15.727  0.00  0.00    +0.173 C 
BRANCH  23  25
ATOM     24  F   UNL     1      28.916 -22.868 -14.931  0.00  0.00    -0.204 F 
ATOM     25  C   UNL     1      32.925 -23.451 -15.515  0.00  0.00    +0.035 C 
ATOM     26  C   UNL     1      32.433 -23.480 -14.229  0.00  0.00    +0.005 C 
ATOM     27  C   UNL     1      32.122 -23.233 -16.612  0.00  0.00    +0.005 C 
ATOM     28  C   UNL     1      31.068 -23.281 -14.030  0.00  0.00    +0.030 C 
ATOM     29  C   UNL     1      30.756 -23.035 -16.413  0.00  0.00    +0.030 C 
ATOM     30  C   UNL     1      30.228 -23.058 -15.123  0.00  0.00    +0.140 C 
ENDBRANCH  23  25
ENDBRANCH  21  23
ENDBRANCH  20  21
ENDBRANCH  19  20
ENDBRANCH   1  19
TORSDOF 6
ENDMDL
MODEL 3
REMARK VINA RESULT:     -12.0      6.170     12.462
REMARK  Name = 16363
REMARK  6 active torsions:
REMARK  status: ('A' for Active; 'I' for Inactive)
REMARK    1  A    between atoms: N_1  and  C_19
REMARK    2  A    between atoms: C_2  and  N_9
REMARK    3  A    between atoms: C_19  and  C_20
REMARK    4  A    between atoms: C_20  and  C_21
REMARK    5  A    between atoms: C_21  and  C_23
REMARK    6  A    between atoms: C_23  and  C_25
REMARK                            x       y       z     vdW  Elec       q    Type
REMARK                         _______ _______ _______ _____ _____    ______ ____
ROOT
ATOM      1  N   UNL     1      34.466 -15.740 -24.343  0.00  0.00    +0.387 N 
ATOM      2  C   UNL     1      32.964 -13.382 -23.481  0.00  0.00    +0.086 C 
ATOM      3  C   UNL     1      34.148 -13.933 -22.686  0.00  0.00    -0.000 C 
ATOM      4  C   UNL     1      33.087 -13.779 -24.952  0.00  0.00    -0.000 C 
ATOM      5  C   UNL     1      34.320 -15.436 -22.913  0.00  0.00    -0.075 C 
ATOM      6  C   UNL     1      33.294 -15.287 -25.106  0.00  0.00    -0.075 C 
ATOM      7  H   UNL     1      35.281 -15.237 -24.691  0.00  0.00    -0.080 HD
ENDROOT
BRANCH   2   9
ATOM      8  O   UNL     1      31.093 -11.751 -21.768  0.00  0.00    -0.247 OA
ATOM      9  N   UNL     1      32.864 -11.952 -23.341  0.00  0.00    -0.282 N 
ATOM     10  N   UNL     1      32.210  -9.882 -22.689  0.00  0.00    -0.305 N 
ATOM     11  C   UNL     1      33.660 -11.013 -24.011  0.00  0.00    +0.079 A 
ATOM     12  C   UNL     1      31.943 -11.268 -22.502  0.00  0.00    +0.328 A 
ATOM     13  C   UNL     1      33.253  -9.744 -23.606  0.00  0.00    +0.076 A 
ATOM     14  C   UNL     1      34.682 -11.186 -24.920  0.00  0.00    +0.019 C 
ATOM     15  C   UNL     1      33.839  -8.592 -24.082  0.00  0.00    +0.019 C 
ATOM     16  C   UNL     1      35.294 -10.031 -25.420  0.00  0.00    +0.002 C 
ATOM     17  C   UNL     1      34.877  -8.748 -25.005  0.00  0.00    +0.002 C 
ATOM     18  H   UNL     1      31.737  -9.142 -22.244  0.00  0.00    +0.170 HD
ENDBRANCH   2   9
BRANCH   1  19
ATOM     19  C   UNL     1      34.680 -17.174 -24.541  0.00  0.00    -0.077 C 
BRANCH  19  20
ATOM     20  C   UNL     1      34.113 -17.962 -23.358  0.00  0.00    -0.015 C 
BRANCH  20  21
ATOM     21  C   UNL     1      35.045 -19.092 -22.913  0.00  0.00    +0.067 C 
BRANCH  21  23
ATOM     22  O   UNL     1      36.013 -18.274 -20.859  0.00  0.00    -0.291 OA
ATOM     23  C   UNL     1      35.300 -19.109 -21.412  0.00  0.00    +0.173 C 
BRANCH  23  25
ATOM     24  F   UNL     1      32.852 -23.063 -18.323  0.00  0.00    -0.204 F 
ATOM     25  C   UNL     1      34.646 -20.165 -20.588  0.00  0.00    +0.035 C 
ATOM     26  C   UNL     1      35.442 -21.052 -19.899  0.00  0.00    +0.005 C 
ATOM     27  C   UNL     1      33.271 -20.213 -20.546  0.00  0.00    +0.005 C 
ATOM     28  C   UNL     1      34.831 -22.040 -19.127  0.00  0.00    +0.030 C 
ATOM     29  C   UNL     1      32.660 -21.201 -19.774  0.00  0.00    +0.030 C 
ATOM     30  C   UNL     1      33.439 -22.114 -19.064  0.00  0.00    +0.140 C 
ENDBRANCH  23  25
ENDBRANCH  21  23
ENDBRANCH  20  21
ENDBRANCH  19  20
ENDBRANCH   1  19
TORSDOF 6
ENDMDL
MODEL 4
REMARK VINA RESULT:     -12.0      6.128     12.097
REMARK  Name = 16363
REMARK  6 active torsions:
REMARK  status: ('A' for Active; 'I' for Inactive)
REMARK    1  A    between atoms: N_1  and  C_19
REMARK    2  A    between atoms: C_2  and  N_9
REMARK    3  A    between atoms: C_19  and  C_20
REMARK    4  A    between atoms: C_20  and  C_21
REMARK    5  A    between atoms: C_21  and  C_23
REMARK    6  A    between atoms: C_23  and  C_25
REMARK                            x       y       z     vdW  Elec       q    Type
REMARK                         _______ _______ _______ _____ _____    ______ ____
ROOT
ATOM      1  N   UNL     1      33.744 -16.106 -24.270  0.00  0.00    +0.387 N 
ATOM      2  C   UNL     1      33.719 -13.186 -24.076  0.00  0.00    +0.086 C 
ATOM      3  C   UNL     1      32.848 -13.947 -25.077  0.00  0.00    -0.000 C 
ATOM      4  C   UNL     1      34.053 -14.081 -22.883  0.00  0.00    -0.000 C 
ATOM      5  C   UNL     1      33.481 -15.285 -25.461  0.00  0.00    -0.075 C 
ATOM      6  C   UNL     1      34.647 -15.416 -23.338  0.00  0.00    -0.075 C 
ATOM      7  H   UNL     1      32.857 -16.261 -23.792  0.00  0.00    -0.080 HD
ENDROOT
BRANCH   2   9
ATOM      8  O   UNL     1      33.634 -10.483 -25.409  0.00  0.00    -0.247 OA
ATOM      9  N   UNL     1      33.074 -11.973 -23.643  0.00  0.00    -0.282 N 
ATOM     10  N   UNL     1      32.330  -9.834 -23.545  0.00  0.00    -0.305 N 
ATOM     11  C   UNL     1      32.332 -11.824 -22.463  0.00  0.00    +0.079 A 
ATOM     12  C   UNL     1      33.089 -10.736 -24.344  0.00  0.00    +0.328 A 
ATOM     13  C   UNL     1      31.878 -10.507 -22.411  0.00  0.00    +0.076 A 
ATOM     14  C   UNL     1      32.036 -12.729 -21.467  0.00  0.00    +0.019 C 
ATOM     15  C   UNL     1      31.112 -10.031 -21.369  0.00  0.00    +0.019 C 
ATOM     16  C   UNL     1      31.259 -12.270 -20.398  0.00  0.00    +0.002 C 
ATOM     17  C   UNL     1      30.803 -10.936 -20.350  0.00  0.00    +0.002 C 
ATOM     18  H   UNL     1      32.153  -8.890 -23.760  0.00  0.00    +0.170 HD
ENDBRANCH   2   9
BRANCH   1  19
ATOM     19  C   UNL     1      34.302 -17.402 -24.656  0.00  0.00    -0.077 C 
BRANCH  19  20
ATOM     20  C   UNL     1      33.913 -18.471 -23.633  0.00  0.00    -0.015 C 
BRANCH  20  21
ATOM     21  C   UNL     1      35.123 -19.005 -22.862  0.00  0.00    +0.067 C 
BRANCH  21  23
ATOM     22  O   UNL     1      35.225 -17.814 -20.765  0.00  0.00    -0.291 OA
ATOM     23  C   UNL     1      34.986 -18.867 -21.352  0.00  0.00    +0.173 C 
BRANCH  23  25
ATOM     24  F   UNL     1      33.270 -23.289 -18.406  0.00  0.00    -0.204 F 
ATOM     25  C   UNL     1      34.527 -20.048 -20.566  0.00  0.00    +0.035 C 
ATOM     26  C   UNL     1      35.473 -20.853 -19.971  0.00  0.00    +0.005 C 
ATOM     27  C   UNL     1      33.176 -20.290 -20.464  0.00  0.00    +0.005 C 
ATOM     28  C   UNL     1      35.045 -21.957 -19.235  0.00  0.00    +0.030 C 
ATOM     29  C   UNL     1      32.748 -21.394 -19.728  0.00  0.00    +0.030 C 
ATOM     30  C   UNL     1      33.681 -22.228 -19.113  0.00  0.00    +0.140 C 
ENDBRANCH  23  25
ENDBRANCH  21  23
ENDBRANCH  20  21
ENDBRANCH  19  20
ENDBRANCH   1  19
TORSDOF 6
ENDMDL
MODEL 5
REMARK VINA RESULT:     -11.9      3.793     10.573
REMARK  Name = 16363
REMARK  6 active torsions:
REMARK  status: ('A' for Active; 'I' for Inactive)
REMARK    1  A    between atoms: N_1  and  C_19
REMARK    2  A    between atoms: C_2  and  N_9
REMARK    3  A    between atoms: C_19  and  C_20
REMARK    4  A    between atoms: C_20  and  C_21
REMARK    5  A    between atoms: C_21  and  C_23
REMARK    6  A    between atoms: C_23  and  C_25
REMARK                            x       y       z     vdW  Elec       q    Type
REMARK                         _______ _______ _______ _____ _____    ______ ____
ROOT
ATOM      1  N   UNL     1      34.049 -21.553 -18.892  0.00  0.00    +0.387 N 
ATOM      2  C   UNL     1      34.370 -20.035 -21.373  0.00  0.00    +0.086 C 
ATOM      3  C   UNL     1      33.060 -20.045 -20.584  0.00  0.00    -0.000 C 
ATOM      4  C   UNL     1      35.545 -20.341 -20.445  0.00  0.00    -0.000 C 
ATOM      5  C   UNL     1      32.902 -21.339 -19.785  0.00  0.00    -0.075 C 
ATOM      6  C   UNL     1      35.306 -21.626 -19.650  0.00  0.00    -0.075 C 
ATOM      7  H   UNL     1      34.109 -20.755 -18.260  0.00  0.00    -0.080 HD
ENDROOT
BRANCH   2   9
ATOM      8  O   UNL     1      35.314 -17.395 -20.262  0.00  0.00    -0.247 OA
ATOM      9  N   UNL     1      34.562 -18.776 -22.046  0.00  0.00    -0.282 N 
ATOM     10  N   UNL     1      35.049 -16.604 -22.476  0.00  0.00    -0.305 N 
ATOM     11  C   UNL     1      34.332 -18.539 -23.408  0.00  0.00    +0.079 A 
ATOM     12  C   UNL     1      35.014 -17.575 -21.434  0.00  0.00    +0.328 A 
ATOM     13  C   UNL     1      34.634 -17.203 -23.665  0.00  0.00    +0.076 A 
ATOM     14  C   UNL     1      33.893 -19.383 -24.406  0.00  0.00    +0.019 C 
ATOM     15  C   UNL     1      34.514 -16.646 -24.919  0.00  0.00    +0.019 C 
ATOM     16  C   UNL     1      33.763 -18.842 -25.689  0.00  0.00    +0.002 C 
ATOM     17  C   UNL     1      34.070 -17.488 -25.942  0.00  0.00    +0.002 C 
ATOM     18  H   UNL     1      35.323 -15.664 -22.373  0.00  0.00    +0.170 HD
ENDBRANCH   2   9
BRANCH   1  19
ATOM     19  C   UNL     1      33.859 -22.767 -18.098  0.00  0.00    -0.077 C 
BRANCH  19  20
ATOM     20  C   UNL     1      34.928 -22.857 -17.007  0.00  0.00    -0.015 C 
BRANCH  20  21
ATOM     21  C   UNL     1      34.324 -22.856 -15.600  0.00  0.00    +0.067 C 
BRANCH  21  23
ATOM     22  O   UNL     1      33.410 -24.863 -14.619  0.00  0.00    -0.291 OA
ATOM     23  C   UNL     1      34.410 -24.207 -14.905  0.00  0.00    +0.173 C 
BRANCH  23  25
ATOM     24  F   UNL     1      39.452 -26.271 -13.685  0.00  0.00    -0.204 F 
ATOM     25  C   UNL     1      35.756 -24.758 -14.578  0.00  0.00    +0.035 C 
ATOM     26  C   UNL     1      36.101 -25.996 -15.074  0.00  0.00    +0.005 C 
ATOM     27  C   UNL     1      36.605 -24.010 -13.794  0.00  0.00    +0.005 C 
ATOM     28  C   UNL     1      37.360 -26.511 -14.770  0.00  0.00    +0.030 C 
ATOM     29  C   UNL     1      37.864 -24.525 -13.490  0.00  0.00    +0.030 C 
ATOM     30  C   UNL     1      38.243 -25.776 -13.977  0.00  0.00    +0.140 C 
ENDBRANCH  23  25
ENDBRANCH  21  23
ENDBRANCH  20  21
ENDBRANCH  19  20
ENDBRANCH   1  19
TORSDOF 6
ENDMDL
MODEL 6
REMARK VINA RESULT:     -11.7      5.009      8.569
REMARK  Name = 16363
REMARK  6 active torsions:
REMARK  status: ('A' for Active; 'I' for Inactive)
REMARK    1  A    between atoms: N_1  and  C_19
REMARK    2  A    between atoms: C_2  and  N_9
REMARK    3  A    between atoms: C_19  and  C_20
REMARK    4  A    between atoms: C_20  and  C_21
REMARK    5  A    between atoms: C_21  and  C_23
REMARK    6  A    between atoms: C_23  and  C_25
REMARK                            x       y       z     vdW  Elec       q    Type
REMARK                         _______ _______ _______ _____ _____    ______ ____
ROOT
ATOM      1  N   UNL     1      34.339 -16.608 -24.684  0.00  0.00    +0.387 N 
ATOM      2  C   UNL     1      34.241 -18.338 -22.327  0.00  0.00    +0.086 C 
ATOM      3  C   UNL     1      34.258 -18.896 -23.750  0.00  0.00    -0.000 C 
ATOM      4  C   UNL     1      34.886 -16.953 -22.297  0.00  0.00    -0.000 C 
ATOM      5  C   UNL     1      33.650 -17.905 -24.744  0.00  0.00    -0.075 C 
ATOM      6  C   UNL     1      34.258 -16.024 -23.338  0.00  0.00    -0.075 C 
ATOM      7  H   UNL     1      35.323 -16.764 -24.901  0.00  0.00    -0.080 HD
ENDROOT
BRANCH   2   9
ATOM      8  O   UNL     1      37.183 -18.656 -21.749  0.00  0.00    -0.247 OA
ATOM      9  N   UNL     1      34.901 -19.232 -21.410  0.00  0.00    -0.282 N 
ATOM     10  N   UNL     1      36.492 -20.323 -20.219  0.00  0.00    -0.305 N 
ATOM     11  C   UNL     1      34.262 -20.162 -20.579  0.00  0.00    +0.079 A 
ATOM     12  C   UNL     1      36.306 -19.311 -21.204  0.00  0.00    +0.328 A 
ATOM     13  C   UNL     1      35.245 -20.828 -19.851  0.00  0.00    +0.076 A 
ATOM     14  C   UNL     1      32.924 -20.456 -20.421  0.00  0.00    +0.019 C 
ATOM     15  C   UNL     1      34.947 -21.813 -18.935  0.00  0.00    +0.019 C 
ATOM     16  C   UNL     1      32.595 -21.453 -19.497  0.00  0.00    +0.002 C 
ATOM     17  C   UNL     1      33.595 -22.125 -18.763  0.00  0.00    +0.002 C 
ATOM     18  H   UNL     1      37.359 -20.616 -19.857  0.00  0.00    +0.170 HD
ENDBRANCH   2   9
BRANCH   1  19
ATOM     19  C   UNL     1      33.781 -15.687 -25.675  0.00  0.00    -0.077 C 
BRANCH  19  20
ATOM     20  C   UNL     1      33.368 -14.375 -25.004  0.00  0.00    -0.015 C 
BRANCH  20  21
ATOM     21  C   UNL     1      32.580 -13.463 -25.947  0.00  0.00    +0.067 C 
BRANCH  21  23
ATOM     22  O   UNL     1      33.718 -12.375 -27.776  0.00  0.00    -0.291 OA
ATOM     23  C   UNL     1      33.428 -12.370 -26.581  0.00  0.00    +0.173 C 
BRANCH  23  25
ATOM     24  F   UNL     1      35.213  -8.165 -23.372  0.00  0.00    -0.204 F 
ATOM     25  C   UNL     1      33.904 -11.248 -25.723  0.00  0.00    +0.035 C 
ATOM     26  C   UNL     1      35.137 -10.693 -25.987  0.00  0.00    +0.005 C 
ATOM     27  C   UNL     1      33.095 -10.807 -24.701  0.00  0.00    +0.005 C 
ATOM     28  C   UNL     1      35.583  -9.642 -25.186  0.00  0.00    +0.030 C 
ATOM     29  C   UNL     1      33.541  -9.757 -23.899  0.00  0.00    +0.030 C 
ATOM     30  C   UNL     1      34.784  -9.174 -24.141  0.00  0.00    +0.140 C 
ENDBRANCH  23  25
ENDBRANCH  21  23
ENDBRANCH  20  21
ENDBRANCH  19  20
ENDBRANCH   1  19
TORSDOF 6
ENDMDL
MODEL 7
REMARK VINA RESULT:     -11.7      4.830     10.659
REMARK  Name = 16363
REMARK  6 active torsions:
REMARK  status: ('A' for Active; 'I' for Inactive)
REMARK    1  A    between atoms: N_1  and  C_19
REMARK    2  A    between atoms: C_2  and  N_9
REMARK    3  A    between atoms: C_19  and  C_20
REMARK    4  A    between atoms: C_20  and  C_21
REMARK    5  A    between atoms: C_21  and  C_23
REMARK    6  A    between atoms: C_23  and  C_25
REMARK                            x       y       z     vdW  Elec       q    Type
REMARK                         _______ _______ _______ _____ _____    ______ ____
ROOT
ATOM      1  N   UNL     1      35.077 -21.024 -20.291  0.00  0.00    +0.387 N 
ATOM      2  C   UNL     1      34.665 -18.278 -21.214  0.00  0.00    +0.086 C 
ATOM      3  C   UNL     1      36.037 -18.952 -21.241  0.00  0.00    -0.000 C 
ATOM      4  C   UNL     1      33.560 -19.332 -21.268  0.00  0.00    -0.000 C 
ATOM      5  C   UNL     1      36.149 -20.028 -20.159  0.00  0.00    -0.075 C 
ATOM      6  C   UNL     1      33.752 -20.396 -20.186  0.00  0.00    -0.075 C 
ATOM      7  H   UNL     1      35.151 -21.446 -21.216  0.00  0.00    -0.080 HD
ENDROOT
BRANCH   2   9
ATOM      8  O   UNL     1      34.825 -15.267 -21.159  0.00  0.00    -0.247 OA
ATOM      9  N   UNL     1      34.528 -17.334 -22.295  0.00  0.00    -0.282 N 
ATOM     10  N   UNL     1      34.421 -15.409 -23.485  0.00  0.00    -0.305 N 
ATOM     11  C   UNL     1      34.285 -17.664 -23.635  0.00  0.00    +0.079 A 
ATOM     12  C   UNL     1      34.620 -15.921 -22.171  0.00  0.00    +0.328 A 
ATOM     13  C   UNL     1      34.220 -16.476 -24.360  0.00  0.00    +0.076 A 
ATOM     14  C   UNL     1      34.120 -18.890 -24.244  0.00  0.00    +0.019 C 
ATOM     15  C   UNL     1      33.991 -16.451 -25.718  0.00  0.00    +0.019 C 
ATOM     16  C   UNL     1      33.886 -18.891 -25.623  0.00  0.00    +0.002 C 
ATOM     17  C   UNL     1      33.822 -17.685 -26.352  0.00  0.00    +0.002 C 
ATOM     18  H   UNL     1      34.427 -14.456 -23.734  0.00  0.00    +0.170 HD
ENDBRANCH   2   9
BRANCH   1  19
ATOM     19  C   UNL     1      35.227 -22.073 -19.283  0.00  0.00    -0.077 C 
BRANCH  19  20
ATOM     20  C   UNL     1      33.919 -22.851 -19.132  0.00  0.00    -0.015 C 
BRANCH  20  21
ATOM     21  C   UNL     1      33.581 -23.142 -17.667  0.00  0.00    +0.067 C 
BRANCH  21  23
ATOM     22  O   UNL     1      31.400 -22.183 -18.049  0.00  0.00    -0.291 OA
ATOM     23  C   UNL     1      32.137 -22.826 -17.305  0.00  0.00    +0.173 C 
BRANCH  23  25
ATOM     24  F   UNL     1      30.119 -24.726 -12.458  0.00  0.00    -0.204 F 
ATOM     25  C   UNL     1      31.598 -23.334 -16.011  0.00  0.00    +0.035 C 
ATOM     26  C   UNL     1      32.485 -23.732 -15.037  0.00  0.00    +0.005 C 
ATOM     27  C   UNL     1      30.233 -23.386 -15.838  0.00  0.00    +0.005 C 
ATOM     28  C   UNL     1      31.982 -24.207 -13.826  0.00  0.00    +0.030 C 
ATOM     29  C   UNL     1      29.729 -23.860 -14.628  0.00  0.00    +0.030 C 
ATOM     30  C   UNL     1      30.602 -24.270 -13.621  0.00  0.00    +0.140 C 
ENDBRANCH  23  25
ENDBRANCH  21  23
ENDBRANCH  20  21
ENDBRANCH  19  20
ENDBRANCH   1  19
TORSDOF 6
ENDMDL
MODEL 8
REMARK VINA RESULT:     -11.7      1.366      1.683
REMARK  Name = 16363
REMARK  6 active torsions:
REMARK  status: ('A' for Active; 'I' for Inactive)
REMARK    1  A    between atoms: N_1  and  C_19
REMARK    2  A    between atoms: C_2  and  N_9
REMARK    3  A    between atoms: C_19  and  C_20
REMARK    4  A    between atoms: C_20  and  C_21
REMARK    5  A    between atoms: C_21  and  C_23
REMARK    6  A    between atoms: C_23  and  C_25
REMARK                            x       y       z     vdW  Elec       q    Type
REMARK                         _______ _______ _______ _____ _____    ______ ____
ROOT
ATOM      1  N   UNL     1      35.235 -22.297 -18.819  0.00  0.00    +0.387 N 
ATOM      2  C   UNL     1      34.878 -22.751 -15.951  0.00  0.00    +0.086 C 
ATOM      3  C   UNL     1      33.925 -23.332 -16.995  0.00  0.00    -0.000 C 
ATOM      4  C   UNL     1      36.252 -22.501 -16.573  0.00  0.00    -0.000 C 
ATOM      5  C   UNL     1      33.888 -22.467 -18.257  0.00  0.00    -0.075 C 
ATOM      6  C   UNL     1      36.140 -21.664 -17.849  0.00  0.00    -0.075 C 
ATOM      7  H   UNL     1      35.605 -23.221 -19.037  0.00  0.00    -0.080 HD
ENDROOT
BRANCH   2   9
ATOM      8  O   UNL     1      32.753 -23.590 -13.982  0.00  0.00    -0.247 OA
ATOM      9  N   UNL     1      34.984 -23.617 -14.805  0.00  0.00    -0.282 N 
ATOM     10  N   UNL     1      34.487 -24.828 -12.954  0.00  0.00    -0.305 N 
ATOM     11  C   UNL     1      36.154 -24.259 -14.377  0.00  0.00    +0.079 A 
ATOM     12  C   UNL     1      33.918 -23.958 -13.928  0.00  0.00    +0.328 A 
ATOM     13  C   UNL     1      35.841 -25.001 -13.240  0.00  0.00    +0.076 A 
ATOM     14  C   UNL     1      37.431 -24.240 -14.896  0.00  0.00    +0.019 C 
ATOM     15  C   UNL     1      36.777 -25.755 -12.568  0.00  0.00    +0.019 C 
ATOM     16  C   UNL     1      38.401 -24.999 -14.232  0.00  0.00    +0.002 C 
ATOM     17  C   UNL     1      38.078 -25.748 -13.080  0.00  0.00    +0.002 C 
ATOM     18  H   UNL     1      34.002 -25.240 -12.203  0.00  0.00    +0.170 HD
ENDBRANCH   2   9
BRANCH   1  19
ATOM     19  C   UNL     1      35.178 -21.512 -20.052  0.00  0.00    -0.077 C 
BRANCH  19  20
ATOM     20  C   UNL     1      33.962 -20.583 -20.032  0.00  0.00    -0.015 C 
BRANCH  20  21
ATOM     21  C   UNL     1      33.995 -19.559 -21.170  0.00  0.00    +0.067 C 
BRANCH  21  23
ATOM     22  O   UNL     1      36.187 -18.791 -20.517  0.00  0.00    -0.291 OA
ATOM     23  C   UNL     1      35.099 -18.522 -21.020  0.00  0.00    +0.173 C 
BRANCH  23  25
ATOM     24  F   UNL     1      34.179 -13.341 -22.886  0.00  0.00    -0.204 F 
ATOM     25  C   UNL     1      34.852 -17.139 -21.519  0.00  0.00    +0.035 C 
ATOM     26  C   UNL     1      34.637 -16.135 -20.601  0.00  0.00    +0.005 C 
ATOM     27  C   UNL     1      34.851 -16.917 -22.877  0.00  0.00    +0.005 C 
ATOM     28  C   UNL     1      34.407 -14.841 -21.067  0.00  0.00    +0.030 C 
ATOM     29  C   UNL     1      34.621 -15.622 -23.343  0.00  0.00    +0.030 C 
ATOM     30  C   UNL     1      34.399 -14.584 -22.439  0.00  0.00    +0.140 C 
ENDBRANCH  23  25
ENDBRANCH  21  23
ENDBRANCH  20  21
ENDBRANCH  19  20
ENDBRANCH   1  19
TORSDOF 6
ENDMDL
MODEL 9
REMARK VINA RESULT:     -11.7      4.249     10.956
REMARK  Name = 16363
REMARK  6 active torsions:
REMARK  status: ('A' for Active; 'I' for Inactive)
REMARK    1  A    between atoms: N_1  and  C_19
REMARK    2  A    between atoms: C_2  and  N_9
REMARK    3  A    between atoms: C_19  and  C_20
REMARK    4  A    between atoms: C_20  and  C_21
REMARK    5  A    between atoms: C_21  and  C_23
REMARK    6  A    between atoms: C_23  and  C_25
REMARK                            x       y       z     vdW  Elec       q    Type
REMARK                         _______ _______ _______ _____ _____    ______ ____
ROOT
ATOM      1  N   UNL     1      34.555 -21.115 -19.186  0.00  0.00    +0.387 N 
ATOM      2  C   UNL     1      34.559 -19.527 -21.643  0.00  0.00    +0.086 C 
ATOM      3  C   UNL     1      33.290 -19.763 -20.824  0.00  0.00    -0.000 C 
ATOM      4  C   UNL     1      35.793 -19.652 -20.749  0.00  0.00    -0.000 C 
ATOM      5  C   UNL     1      33.365 -21.078 -20.048  0.00  0.00    -0.075 C 
ATOM      6  C   UNL     1      35.787 -20.970 -19.974  0.00  0.00    -0.075 C 
ATOM      7  H   UNL     1      34.501 -20.328 -18.540  0.00  0.00    -0.080 HD
ENDROOT
BRANCH   2   9
ATOM      8  O   UNL     1      35.042 -16.782 -20.492  0.00  0.00    -0.247 OA
ATOM      9  N   UNL     1      34.526 -18.243 -22.296  0.00  0.00    -0.282 N 
ATOM     10  N   UNL     1      34.628 -16.013 -22.690  0.00  0.00    -0.305 N 
ATOM     11  C   UNL     1      34.249 -18.028 -23.652  0.00  0.00    +0.079 A 
ATOM     12  C   UNL     1      34.769 -16.992 -21.665  0.00  0.00    +0.328 A 
ATOM     13  C   UNL     1      34.313 -16.656 -23.887  0.00  0.00    +0.076 A 
ATOM     14  C   UNL     1      33.954 -18.919 -24.662  0.00  0.00    +0.019 C 
ATOM     15  C   UNL     1      34.089 -16.108 -25.131  0.00  0.00    +0.019 C 
ATOM     16  C   UNL     1      33.722 -18.387 -25.935  0.00  0.00    +0.002 C 
ATOM     17  C   UNL     1      33.789 -16.997 -26.167  0.00  0.00    +0.002 C 
ATOM     18  H   UNL     1      34.736 -15.041 -22.573  0.00  0.00    +0.170 HD
ENDBRANCH   2   9
BRANCH   1  19
ATOM     19  C   UNL     1      34.587 -22.357 -18.412  0.00  0.00    -0.077 C 
BRANCH  19  20
ATOM     20  C   UNL     1      35.614 -22.249 -17.283  0.00  0.00    -0.015 C 
BRANCH  20  21
ATOM     21  C   UNL     1      35.447 -23.356 -16.238  0.00  0.00    +0.067 C 
BRANCH  21  23
ATOM     22  O   UNL     1      37.759 -23.233 -15.557  0.00  0.00    -0.291 OA
ATOM     23  C   UNL     1      36.588 -23.414 -15.232  0.00  0.00    +0.173 C 
BRANCH  23  25
ATOM     24  F   UNL     1      35.381 -24.415  -9.873  0.00  0.00    -0.204 F 
ATOM     25  C   UNL     1      36.265 -23.682 -13.802  0.00  0.00    +0.035 C 
ATOM     26  C   UNL     1      37.289 -23.671 -12.881  0.00  0.00    +0.005 C 
ATOM     27  C   UNL     1      34.956 -23.930 -13.454  0.00  0.00    +0.005 C 
ATOM     28  C   UNL     1      36.988 -23.920 -11.542  0.00  0.00    +0.030 C 
ATOM     29  C   UNL     1      34.655 -24.180 -12.115  0.00  0.00    +0.030 C 
ATOM     30  C   UNL     1      35.670 -24.175 -11.159  0.00  0.00    +0.140 C 
ENDBRANCH  23  25
ENDBRANCH  21  23
ENDBRANCH  20  21
ENDBRANCH  19  20
ENDBRANCH   1  19
TORSDOF 6
ENDMDL
