MODEL 1
REMARK VINA RESULT:     -12.0      0.000      0.000
REMARK  Name = 56832738
REMARK  10 active torsions:
REMARK  status: ('A' for Active; 'I' for Inactive)
REMARK    1  A    between atoms: C_2  and  C_11
REMARK    2  A    between atoms: C_5  and  C_25
REMARK    3  A    between atoms: C_10  and  C_22
REMARK    4  A    between atoms: C_12  and  O_16
REMARK    5  A    between atoms: C_13  and  O_18
REMARK    6  A    between atoms: C_14  and  O_20
REMARK    7  A    between atoms: C_22  and  O_23
REMARK    8  A    between atoms: C_25  and  C_27
REMARK    9  A    between atoms: C_32  and  O_33
REMARK   10  A    between atoms: O_33  and  C_34
REMARK                            x       y       z     vdW  Elec       q    Type
REMARK                         _______ _______ _______ _____ _____    ______ ____
ROOT
ATOM      1 CL   UNL     1      30.446 -22.646 -17.239  0.00  0.00    -0.083 Cl
ATOM      2  C   UNL     1      34.144 -23.757 -14.899  0.00  0.00    +0.031 C 
ATOM      3  C   UNL     1      34.165 -23.829 -16.291  0.00  0.00    -0.003 C 
ATOM      4  C   UNL     1      32.987 -23.343 -14.239  0.00  0.00    +0.001 C 
ATOM      5  C   UNL     1      33.028 -23.487 -17.024  0.00  0.00    -0.007 C 
ATOM      6  C   UNL     1      31.850 -23.001 -14.972  0.00  0.00    +0.011 C 
ATOM      7  C   UNL     1      31.871 -23.073 -16.365  0.00  0.00    +0.054 C 
ENDROOT
BRANCH   2  11
ATOM      8  O   UNL     1      35.055 -24.530 -12.757  0.00  0.00    -0.326 OA
ATOM      9  O   UNL     1      36.256 -22.984 -14.005  0.00  0.00    -0.326 OA
ATOM     10  C   UNL     1      36.276 -24.274 -12.053  0.00  0.00    +0.176 C 
ATOM     11  C   UNL     1      35.379 -24.128 -14.102  0.00  0.00    +0.235 C 
ATOM     12  C   UNL     1      37.277 -25.398 -12.425  0.00  0.00    +0.169 C 
ATOM     13  C   UNL     1      36.181 -25.288 -14.737  0.00  0.00    +0.196 C 
ATOM     14  C   UNL     1      37.475 -25.568 -13.947  0.00  0.00    +0.172 C 
ATOM     15  C   UNL     1      36.642 -22.913 -12.625  0.00  0.00    +0.177 C 
BRANCH  12  16
ATOM     16  O   UNL     1      36.779 -26.632 -11.901  0.00  0.00    -0.379 OA
ATOM     17  H   UNL     1      37.080 -27.366 -12.459  0.00  0.00    +0.211 HD
ENDBRANCH  12  16
BRANCH  13  18
ATOM     18  O   UNL     1      35.385 -26.472 -14.751  0.00  0.00    -0.377 OA
ATOM     19  H   UNL     1      35.954 -27.242 -14.905  0.00  0.00    +0.211 HD
ENDBRANCH  13  18
BRANCH  14  20
ATOM     20  O   UNL     1      38.480 -24.657 -14.395  0.00  0.00    -0.379 OA
ATOM     21  H   UNL     1      38.062 -23.919 -14.864  0.00  0.00    +0.211 HD
ENDBRANCH  14  20
BRANCH  10  22
ATOM     22  C   UNL     1      35.998 -24.213 -10.556  0.00  0.00    +0.169 C 
BRANCH  22  23
ATOM     23  O   UNL     1      34.960 -25.128 -10.253  0.00  0.00    -0.379 OA
ATOM     24  H   UNL     1      34.973 -25.856 -10.895  0.00  0.00    +0.211 HD
ENDBRANCH  22  23
ENDBRANCH  10  22
ENDBRANCH   2  11
BRANCH   5  25
ATOM     25  C   UNL     1      33.090 -23.579 -18.515  0.00  0.00    +0.054 C 
BRANCH  25  27
ATOM     26  F   UNL     1      36.699 -20.668 -20.054  0.00  0.00    -0.201 F 
ATOM     27  C   UNL     1      33.573 -22.310 -19.186  0.00  0.00    -0.015 C 
ATOM     28  C   UNL     1      34.940 -22.065 -19.315  0.00  0.00    +0.029 C 
ATOM     29  C   UNL     1      32.650 -21.386 -19.674  0.00  0.00    -0.001 C 
ATOM     30  C   UNL     1      35.384 -20.897 -19.933  0.00  0.00    +0.174 C 
ATOM     31  C   UNL     1      33.093 -20.217 -20.292  0.00  0.00    +0.039 C 
ATOM     32  C   UNL     1      34.461 -19.973 -20.421  0.00  0.00    +0.166 C 
BRANCH  32  33
ATOM     33  O   UNL     1      34.893 -18.831 -21.024  0.00  0.00    -0.473 OA
BRANCH  33  34
ATOM     34  C   UNL     1      34.264 -18.469 -22.254  0.00  0.00    +0.206 C 
ATOM     35  C   UNL     1      34.930 -19.222 -23.386  0.00  0.00    +0.051 C 
ENDBRANCH  33  34
ENDBRANCH  32  33
ENDBRANCH  25  27
ENDBRANCH   5  25
TORSDOF 10
ENDMDL
MODEL 2
REMARK VINA RESULT:     -11.3      0.938      2.343
REMARK  Name = 56832738
REMARK  10 active torsions:
REMARK  status: ('A' for Active; 'I' for Inactive)
REMARK    1  A    between atoms: C_2  and  C_11
REMARK    2  A    between atoms: C_5  and  C_25
REMARK    3  A    between atoms: C_10  and  C_22
REMARK    4  A    between atoms: C_12  and  O_16
REMARK    5  A    between atoms: C_13  and  O_18
REMARK    6  A    between atoms: C_14  and  O_20
REMARK    7  A    between atoms: C_22  and  O_23
REMARK    8  A    between atoms: C_25  and  C_27
REMARK    9  A    between atoms: C_32  and  O_33
REMARK   10  A    between atoms: O_33  and  C_34
REMARK                            x       y       z     vdW  Elec       q    Type
REMARK                         _______ _______ _______ _____ _____    ______ ____
ROOT
ATOM      1 CL   UNL     1      30.654 -22.554 -16.942  0.00  0.00    -0.083 Cl
ATOM      2  C   UNL     1      34.343 -24.155 -14.889  0.00  0.00    +0.031 C 
ATOM      3  C   UNL     1      34.272 -24.167 -16.282  0.00  0.00    -0.003 C 
ATOM      4  C   UNL     1      33.280 -23.649 -14.141  0.00  0.00    +0.001 C 
ATOM      5  C   UNL     1      33.137 -23.675 -16.926  0.00  0.00    -0.007 C 
ATOM      6  C   UNL     1      32.145 -23.157 -14.786  0.00  0.00    +0.011 C 
ATOM      7  C   UNL     1      32.074 -23.169 -16.179  0.00  0.00    +0.054 C 
ENDROOT
BRANCH   2  11
ATOM      8  O   UNL     1      36.772 -23.994 -14.590  0.00  0.00    -0.326 OA
ATOM      9  O   UNL     1      35.761 -26.084 -14.526  0.00  0.00    -0.326 OA
ATOM     10  C   UNL     1      37.799 -24.954 -14.312  0.00  0.00    +0.176 C 
ATOM     11  C   UNL     1      35.576 -24.690 -14.188  0.00  0.00    +0.235 C 
ATOM     12  C   UNL     1      38.016 -24.978 -12.777  0.00  0.00    +0.169 C 
ATOM     13  C   UNL     1      35.489 -24.584 -12.648  0.00  0.00    +0.196 C 
ATOM     14  C   UNL     1      36.720 -25.223 -11.975  0.00  0.00    +0.172 C 
ATOM     15  C   UNL     1      37.149 -26.216 -14.859  0.00  0.00    +0.177 C 
BRANCH  12  16
ATOM     16  O   UNL     1      38.551 -23.712 -12.380  0.00  0.00    -0.379 OA
ATOM     17  H   UNL     1      39.219 -23.844 -11.690  0.00  0.00    +0.211 HD
ENDBRANCH  12  16
BRANCH  13  18
ATOM     18  O   UNL     1      35.416 -23.211 -12.265  0.00  0.00    -0.377 OA
ATOM     19  H   UNL     1      36.313 -22.859 -12.152  0.00  0.00    +0.211 HD
ENDBRANCH  13  18
BRANCH  14  20
ATOM     20  O   UNL     1      36.492 -26.629 -11.867  0.00  0.00    -0.379 OA
ATOM     21  H   UNL     1      35.732 -26.877 -12.417  0.00  0.00    +0.211 HD
ENDBRANCH  14  20
BRANCH  10  22
ATOM     22  C   UNL     1      39.064 -24.580 -15.074  0.00  0.00    +0.169 C 
BRANCH  22  23
ATOM     23  O   UNL     1      40.187 -24.973 -14.303  0.00  0.00    -0.379 OA
ATOM     24  H   UNL     1      40.899 -25.262 -14.895  0.00  0.00    +0.211 HD
ENDBRANCH  22  23
ENDBRANCH  10  22
ENDBRANCH   2  11
BRANCH   5  25
ATOM     25  C   UNL     1      33.099 -23.707 -18.421  0.00  0.00    +0.054 C 
BRANCH  25  27
ATOM     26  F   UNL     1      36.780 -20.773 -19.727  0.00  0.00    -0.201 F 
ATOM     27  C   UNL     1      33.617 -22.442 -19.073  0.00  0.00    -0.015 C 
ATOM     28  C   UNL     1      34.987 -22.182 -19.102  0.00  0.00    +0.029 C 
ATOM     29  C   UNL     1      32.723 -21.536 -19.643  0.00  0.00    -0.001 C 
ATOM     30  C   UNL     1      35.463 -21.017 -19.702  0.00  0.00    +0.174 C 
ATOM     31  C   UNL     1      33.198 -20.371 -20.243  0.00  0.00    +0.039 C 
ATOM     32  C   UNL     1      34.568 -20.111 -20.272  0.00  0.00    +0.166 C 
BRANCH  32  33
ATOM     33  O   UNL     1      35.032 -18.972 -20.859  0.00  0.00    -0.473 OA
BRANCH  33  34
ATOM     34  C   UNL     1      34.348 -18.520 -22.027  0.00  0.00    +0.206 C 
ATOM     35  C   UNL     1      35.074 -19.033 -23.252  0.00  0.00    +0.051 C 
ENDBRANCH  33  34
ENDBRANCH  32  33
ENDBRANCH  25  27
ENDBRANCH   5  25
TORSDOF 10
ENDMDL
MODEL 3
REMARK VINA RESULT:     -10.1      3.188      4.987
REMARK  Name = 56832738
REMARK  10 active torsions:
REMARK  status: ('A' for Active; 'I' for Inactive)
REMARK    1  A    between atoms: C_2  and  C_11
REMARK    2  A    between atoms: C_5  and  C_25
REMARK    3  A    between atoms: C_10  and  C_22
REMARK    4  A    between atoms: C_12  and  O_16
REMARK    5  A    between atoms: C_13  and  O_18
REMARK    6  A    between atoms: C_14  and  O_20
REMARK    7  A    between atoms: C_22  and  O_23
REMARK    8  A    between atoms: C_25  and  C_27
REMARK    9  A    between atoms: C_32  and  O_33
REMARK   10  A    between atoms: O_33  and  C_34
REMARK                            x       y       z     vdW  Elec       q    Type
REMARK                         _______ _______ _______ _____ _____    ______ ____
ROOT
ATOM      1 CL   UNL     1      36.835 -22.007 -17.855  0.00  0.00    -0.083 Cl
ATOM      2  C   UNL     1      32.953 -23.173 -15.866  0.00  0.00    +0.031 C 
ATOM      3  C   UNL     1      33.033 -23.153 -17.258  0.00  0.00    -0.003 C 
ATOM      4  C   UNL     1      34.068 -22.835 -15.099  0.00  0.00    +0.001 C 
ATOM      5  C   UNL     1      34.227 -22.795 -17.883  0.00  0.00    -0.007 C 
ATOM      6  C   UNL     1      35.263 -22.477 -15.724  0.00  0.00    +0.011 C 
ATOM      7  C   UNL     1      35.343 -22.457 -17.116  0.00  0.00    +0.054 C 
ENDROOT
BRANCH   2  11
ATOM      8  O   UNL     1      30.727 -24.173 -16.103  0.00  0.00    -0.326 OA
ATOM      9  O   UNL     1      31.013 -22.383 -14.652  0.00  0.00    -0.326 OA
ATOM     10  C   UNL     1      29.463 -23.931 -15.472  0.00  0.00    +0.176 C 
ATOM     11  C   UNL     1      31.656 -23.562 -15.186  0.00  0.00    +0.235 C 
ATOM     12  C   UNL     1      29.337 -24.916 -14.281  0.00  0.00    +0.169 C 
ATOM     13  C   UNL     1      31.860 -24.559 -14.022  0.00  0.00    +0.196 C 
ATOM     14  C   UNL     1      30.529 -24.854 -13.302  0.00  0.00    +0.172 C 
ATOM     15  C   UNL     1      29.639 -22.480 -15.052  0.00  0.00    +0.177 C 
BRANCH  12  16
ATOM     16  O   UNL     1      29.261 -26.245 -14.805  0.00  0.00    -0.379 OA
ATOM     17  H   UNL     1      28.347 -26.439 -15.064  0.00  0.00    +0.211 HD
ENDBRANCH  12  16
BRANCH  13  18
ATOM     18  O   UNL     1      32.392 -25.784 -14.526  0.00  0.00    -0.377 OA
ATOM     19  H   UNL     1      32.487 -25.723 -15.489  0.00  0.00    +0.211 HD
ENDBRANCH  13  18
BRANCH  14  20
ATOM     20  O   UNL     1      30.298 -23.819 -12.345  0.00  0.00    -0.379 OA
ATOM     21  H   UNL     1      29.493 -23.333 -12.582  0.00  0.00    +0.211 HD
ENDBRANCH  14  20
BRANCH  10  22
ATOM     22  C   UNL     1      28.344 -24.104 -16.491  0.00  0.00    +0.169 C 
BRANCH  22  23
ATOM     23  O   UNL     1      28.284 -22.940 -17.297  0.00  0.00    -0.379 OA
ATOM     24  H   UNL     1      28.135 -22.164 -16.734  0.00  0.00    +0.211 HD
ENDBRANCH  22  23
ENDBRANCH  10  22
ENDBRANCH   2  11
BRANCH   5  25
ATOM     25  C   UNL     1      34.272 -22.785 -19.377  0.00  0.00    +0.054 C 
BRANCH  25  27
ATOM     26  F   UNL     1      36.884 -19.051 -21.138  0.00  0.00    -0.201 F 
ATOM     27  C   UNL     1      34.360 -21.397 -19.977  0.00  0.00    -0.015 C 
ATOM     28  C   UNL     1      35.605 -20.849 -20.289  0.00  0.00    +0.029 C 
ATOM     29  C   UNL     1      33.197 -20.666 -20.217  0.00  0.00    -0.001 C 
ATOM     30  C   UNL     1      35.685 -19.572 -20.841  0.00  0.00    +0.174 C 
ATOM     31  C   UNL     1      33.278 -19.388 -20.769  0.00  0.00    +0.039 C 
ATOM     32  C   UNL     1      34.522 -18.841 -21.080  0.00  0.00    +0.166 C 
BRANCH  32  33
ATOM     33  O   UNL     1      34.600 -17.593 -21.619  0.00  0.00    -0.473 OA
BRANCH  33  34
ATOM     34  C   UNL     1      34.621 -17.501 -23.043  0.00  0.00    +0.206 C 
ATOM     35  C   UNL     1      34.613 -16.041 -23.442  0.00  0.00    +0.051 C 
ENDBRANCH  33  34
ENDBRANCH  32  33
ENDBRANCH  25  27
ENDBRANCH   5  25
TORSDOF 10
ENDMDL
MODEL 4
REMARK VINA RESULT:      -9.8      3.159      5.108
REMARK  Name = 56832738
REMARK  10 active torsions:
REMARK  status: ('A' for Active; 'I' for Inactive)
REMARK    1  A    between atoms: C_2  and  C_11
REMARK    2  A    between atoms: C_5  and  C_25
REMARK    3  A    between atoms: C_10  and  C_22
REMARK    4  A    between atoms: C_12  and  O_16
REMARK    5  A    between atoms: C_13  and  O_18
REMARK    6  A    between atoms: C_14  and  O_20
REMARK    7  A    between atoms: C_22  and  O_23
REMARK    8  A    between atoms: C_25  and  C_27
REMARK    9  A    between atoms: C_32  and  O_33
REMARK   10  A    between atoms: O_33  and  C_34
REMARK                            x       y       z     vdW  Elec       q    Type
REMARK                         _______ _______ _______ _____ _____    ______ ____
ROOT
ATOM      1 CL   UNL     1      35.324 -20.846 -19.733  0.00  0.00    -0.083 Cl
ATOM      2  C   UNL     1      36.417 -23.001 -15.919  0.00  0.00    +0.031 C 
ATOM      3  C   UNL     1      35.146 -23.173 -16.465  0.00  0.00    -0.003 C 
ATOM      4  C   UNL     1      37.341 -22.170 -16.552  0.00  0.00    +0.001 C 
ATOM      5  C   UNL     1      34.797 -22.512 -17.643  0.00  0.00    -0.007 C 
ATOM      6  C   UNL     1      36.993 -21.510 -17.730  0.00  0.00    +0.011 C 
ATOM      7  C   UNL     1      35.721 -21.681 -18.276  0.00  0.00    +0.054 C 
ENDROOT
BRANCH   2  11
ATOM      8  O   UNL     1      35.651 -24.297 -13.983  0.00  0.00    -0.326 OA
ATOM      9  O   UNL     1      37.389 -22.781 -13.713  0.00  0.00    -0.326 OA
ATOM     10  C   UNL     1      36.086 -24.388 -12.620  0.00  0.00    +0.176 C 
ATOM     11  C   UNL     1      36.796 -23.719 -14.639  0.00  0.00    +0.235 C 
ATOM     12  C   UNL     1      37.071 -25.582 -12.522  0.00  0.00    +0.169 C 
ATOM     13  C   UNL     1      37.809 -24.864 -14.866  0.00  0.00    +0.196 C 
ATOM     14  C   UNL     1      38.237 -25.504 -13.530  0.00  0.00    +0.172 C 
ATOM     15  C   UNL     1      36.750 -23.030 -12.453  0.00  0.00    +0.177 C 
BRANCH  12  16
ATOM     16  O   UNL     1      36.341 -26.786 -12.778  0.00  0.00    -0.379 OA
ATOM     17  H   UNL     1      36.935 -27.549 -12.690  0.00  0.00    +0.211 HD
ENDBRANCH  12  16
BRANCH  13  18
ATOM     18  O   UNL     1      37.221 -25.870 -15.690  0.00  0.00    -0.377 OA
ATOM     19  H   UNL     1      36.491 -26.294 -15.211  0.00  0.00    +0.211 HD
ENDBRANCH  13  18
BRANCH  14  20
ATOM     20  O   UNL     1      39.289 -24.715 -12.972  0.00  0.00    -0.379 OA
ATOM     21  H   UNL     1      39.526 -25.063 -12.099  0.00  0.00    +0.211 HD
ENDBRANCH  14  20
BRANCH  10  22
ATOM     22  C   UNL     1      34.876 -24.554 -11.710  0.00  0.00    +0.169 C 
BRANCH  22  23
ATOM     23  O   UNL     1      35.321 -25.029 -10.451  0.00  0.00    -0.379 OA
ATOM     24  H   UNL     1      36.214 -24.693 -10.276  0.00  0.00    +0.211 HD
ENDBRANCH  22  23
ENDBRANCH  10  22
ENDBRANCH   2  11
BRANCH   5  25
ATOM     25  C   UNL     1      33.424 -22.721 -18.195  0.00  0.00    +0.054 C 
BRANCH  25  27
ATOM     26  F   UNL     1      28.825 -22.482 -16.564  0.00  0.00    -0.201 F 
ATOM     27  C   UNL     1      32.377 -23.006 -17.138  0.00  0.00    -0.015 C 
ATOM     28  C   UNL     1      31.056 -22.606 -17.339  0.00  0.00    +0.029 C 
ATOM     29  C   UNL     1      32.735 -23.668 -15.963  0.00  0.00    -0.001 C 
ATOM     30  C   UNL     1      30.093 -22.869 -16.365  0.00  0.00    +0.174 C 
ATOM     31  C   UNL     1      31.772 -23.930 -14.990  0.00  0.00    +0.039 C 
ATOM     32  C   UNL     1      30.451 -23.530 -15.191  0.00  0.00    +0.166 C 
BRANCH  32  33
ATOM     33  O   UNL     1      29.511 -23.786 -14.239  0.00  0.00    -0.473 OA
BRANCH  33  34
ATOM     34  C   UNL     1      29.314 -25.152 -13.874  0.00  0.00    +0.206 C 
ATOM     35  C   UNL     1      28.673 -25.884 -15.035  0.00  0.00    +0.051 C 
ENDBRANCH  33  34
ENDBRANCH  32  33
ENDBRANCH  25  27
ENDBRANCH   5  25
TORSDOF 10
ENDMDL
MODEL 5
REMARK VINA RESULT:      -9.5      1.283      2.198
REMARK  Name = 56832738
REMARK  10 active torsions:
REMARK  status: ('A' for Active; 'I' for Inactive)
REMARK    1  A    between atoms: C_2  and  C_11
REMARK    2  A    between atoms: C_5  and  C_25
REMARK    3  A    between atoms: C_10  and  C_22
REMARK    4  A    between atoms: C_12  and  O_16
REMARK    5  A    between atoms: C_13  and  O_18
REMARK    6  A    between atoms: C_14  and  O_20
REMARK    7  A    between atoms: C_22  and  O_23
REMARK    8  A    between atoms: C_25  and  C_27
REMARK    9  A    between atoms: C_32  and  O_33
REMARK   10  A    between atoms: O_33  and  C_34
REMARK                            x       y       z     vdW  Elec       q    Type
REMARK                         _______ _______ _______ _____ _____    ______ ____
ROOT
ATOM      1 CL   UNL     1      30.330 -22.985 -16.893  0.00  0.00    -0.083 Cl
ATOM      2  C   UNL     1      34.080 -23.580 -14.449  0.00  0.00    +0.031 C 
ATOM      3  C   UNL     1      34.126 -23.754 -15.832  0.00  0.00    -0.003 C 
ATOM      4  C   UNL     1      32.882 -23.223 -13.831  0.00  0.00    +0.001 C 
ATOM      5  C   UNL     1      32.974 -23.572 -16.597  0.00  0.00    -0.007 C 
ATOM      6  C   UNL     1      31.730 -23.041 -14.596  0.00  0.00    +0.011 C 
ATOM      7  C   UNL     1      31.775 -23.215 -15.979  0.00  0.00    +0.054 C 
ENDROOT
BRANCH   2  11
ATOM      8  O   UNL     1      35.996 -25.019 -13.925  0.00  0.00    -0.326 OA
ATOM      9  O   UNL     1      34.984 -23.816 -12.216  0.00  0.00    -0.326 OA
ATOM     10  C   UNL     1      36.735 -25.281 -12.726  0.00  0.00    +0.176 C 
ATOM     11  C   UNL     1      35.332 -23.777 -13.618  0.00  0.00    +0.235 C 
ATOM     12  C   UNL     1      37.960 -24.330 -12.712  0.00  0.00    +0.169 C 
ATOM     13  C   UNL     1      36.372 -22.651 -13.817  0.00  0.00    +0.196 C 
ATOM     14  C   UNL     1      37.586 -22.842 -12.885  0.00  0.00    +0.172 C 
ATOM     15  C   UNL     1      35.686 -24.944 -11.677  0.00  0.00    +0.177 C 
BRANCH  12  16
ATOM     16  O   UNL     1      38.825 -24.699 -13.790  0.00  0.00    -0.379 OA
ATOM     17  H   UNL     1      39.668 -24.227 -13.705  0.00  0.00    +0.211 HD
ENDBRANCH  12  16
BRANCH  13  18
ATOM     18  O   UNL     1      36.827 -22.650 -15.170  0.00  0.00    -0.377 OA
ATOM     19  H   UNL     1      36.448 -21.889 -15.638  0.00  0.00    +0.211 HD
ENDBRANCH  13  18
BRANCH  14  20
ATOM     20  O   UNL     1      37.263 -22.287 -11.609  0.00  0.00    -0.379 OA
ATOM     21  H   UNL     1      36.304 -22.329 -11.472  0.00  0.00    +0.211 HD
ENDBRANCH  14  20
BRANCH  10  22
ATOM     22  C   UNL     1      37.138 -26.750 -12.686  0.00  0.00    +0.169 C 
BRANCH  22  23
ATOM     23  O   UNL     1      36.743 -27.293 -11.439  0.00  0.00    -0.379 OA
ATOM     24  H   UNL     1      36.613 -26.574 -10.800  0.00  0.00    +0.211 HD
ENDBRANCH  22  23
ENDBRANCH  10  22
ENDBRANCH   2  11
BRANCH   5  25
ATOM     25  C   UNL     1      33.065 -23.770 -18.076  0.00  0.00    +0.054 C 
BRANCH  25  27
ATOM     26  F   UNL     1      32.009 -19.734 -20.618  0.00  0.00    -0.201 F 
ATOM     27  C   UNL     1      33.496 -22.531 -18.833  0.00  0.00    -0.015 C 
ATOM     28  C   UNL     1      32.537 -21.684 -19.389  0.00  0.00    +0.029 C 
ATOM     29  C   UNL     1      34.852 -22.238 -18.976  0.00  0.00    -0.001 C 
ATOM     30  C   UNL     1      32.935 -20.544 -20.086  0.00  0.00    +0.174 C 
ATOM     31  C   UNL     1      35.250 -21.099 -19.673  0.00  0.00    +0.039 C 
ATOM     32  C   UNL     1      34.291 -20.251 -20.229  0.00  0.00    +0.166 C 
BRANCH  32  33
ATOM     33  O   UNL     1      34.680 -19.138 -20.910  0.00  0.00    -0.473 OA
BRANCH  33  34
ATOM     34  C   UNL     1      34.488 -19.144 -22.324  0.00  0.00    +0.206 C 
ATOM     35  C   UNL     1      35.745 -18.629 -22.993  0.00  0.00    +0.051 C 
ENDBRANCH  33  34
ENDBRANCH  32  33
ENDBRANCH  25  27
ENDBRANCH   5  25
TORSDOF 10
ENDMDL
MODEL 6
REMARK VINA RESULT:      -9.1      5.676     13.432
REMARK  Name = 56832738
REMARK  10 active torsions:
REMARK  status: ('A' for Active; 'I' for Inactive)
REMARK    1  A    between atoms: C_2  and  C_11
REMARK    2  A    between atoms: C_5  and  C_25
REMARK    3  A    between atoms: C_10  and  C_22
REMARK    4  A    between atoms: C_12  and  O_16
REMARK    5  A    between atoms: C_13  and  O_18
REMARK    6  A    between atoms: C_14  and  O_20
REMARK    7  A    between atoms: C_22  and  O_23
REMARK    8  A    between atoms: C_25  and  C_27
REMARK    9  A    between atoms: C_32  and  O_33
REMARK   10  A    between atoms: O_33  and  C_34
REMARK                            x       y       z     vdW  Elec       q    Type
REMARK                         _______ _______ _______ _____ _____    ______ ____
ROOT
ATOM      1 CL   UNL     1      34.936 -16.197 -20.313  0.00  0.00    -0.083 Cl
ATOM      2  C   UNL     1      33.794 -14.789 -24.448  0.00  0.00    +0.031 C 
ATOM      3  C   UNL     1      34.494 -15.986 -24.299  0.00  0.00    -0.003 C 
ATOM      4  C   UNL     1      33.450 -14.037 -23.324  0.00  0.00    +0.001 C 
ATOM      5  C   UNL     1      34.852 -16.430 -23.026  0.00  0.00    -0.007 C 
ATOM      6  C   UNL     1      33.807 -14.482 -22.052  0.00  0.00    +0.011 C 
ATOM      7  C   UNL     1      34.508 -15.679 -21.902  0.00  0.00    +0.054 C 
ENDROOT
BRANCH   2  11
ATOM      8  O   UNL     1      31.992 -14.040 -25.934  0.00  0.00    -0.326 OA
ATOM      9  O   UNL     1      33.719 -15.323 -26.808  0.00  0.00    -0.326 OA
ATOM     10  C   UNL     1      31.753 -14.173 -27.341  0.00  0.00    +0.176 C 
ATOM     11  C   UNL     1      33.405 -14.306 -25.831  0.00  0.00    +0.235 C 
ATOM     12  C   UNL     1      32.307 -12.900 -28.033  0.00  0.00    +0.169 C 
ATOM     13  C   UNL     1      34.137 -13.009 -26.245  0.00  0.00    +0.196 C 
ATOM     14  C   UNL     1      33.783 -12.606 -27.691  0.00  0.00    +0.172 C 
ATOM     15  C   UNL     1      32.555 -15.431 -27.638  0.00  0.00    +0.177 C 
BRANCH  12  16
ATOM     16  O   UNL     1      31.521 -11.782 -27.609  0.00  0.00    -0.379 OA
ATOM     17  H   UNL     1      30.595 -11.924 -27.859  0.00  0.00    +0.211 HD
ENDBRANCH  12  16
BRANCH  13  18
ATOM     18  O   UNL     1      33.767 -11.946 -25.368  0.00  0.00    -0.377 OA
ATOM     19  H   UNL     1      33.452 -11.191 -25.890  0.00  0.00    +0.211 HD
ENDBRANCH  13  18
BRANCH  14  20
ATOM     20  O   UNL     1      34.627 -13.340 -28.580  0.00  0.00    -0.379 OA
ATOM     21  H   UNL     1      35.161 -13.970 -28.073  0.00  0.00    +0.211 HD
ENDBRANCH  14  20
BRANCH  10  22
ATOM     22  C   UNL     1      30.262 -14.368 -27.587  0.00  0.00    +0.169 C 
BRANCH  22  23
ATOM     23  O   UNL     1      30.000 -15.756 -27.691  0.00  0.00    -0.379 OA
ATOM     24  H   UNL     1      29.700 -16.094 -26.832  0.00  0.00    +0.211 HD
ENDBRANCH  22  23
ENDBRANCH  10  22
ENDBRANCH   2  11
BRANCH   5  25
ATOM     25  C   UNL     1      35.603 -17.717 -22.908  0.00  0.00    +0.054 C 
BRANCH  25  27
ATOM     26  F   UNL     1      31.642 -20.117 -21.354  0.00  0.00    -0.201 F 
ATOM     27  C   UNL     1      34.941 -18.731 -21.999  0.00  0.00    -0.015 C 
ATOM     28  C   UNL     1      33.569 -18.964 -22.094  0.00  0.00    +0.029 C 
ATOM     29  C   UNL     1      35.704 -19.431 -21.064  0.00  0.00    -0.001 C 
ATOM     30  C   UNL     1      32.961 -19.897 -21.257  0.00  0.00    +0.174 C 
ATOM     31  C   UNL     1      35.095 -20.364 -20.226  0.00  0.00    +0.039 C 
ATOM     32  C   UNL     1      33.723 -20.597 -20.322  0.00  0.00    +0.166 C 
BRANCH  32  33
ATOM     33  O   UNL     1      33.130 -21.509 -19.502  0.00  0.00    -0.473 OA
BRANCH  33  34
ATOM     34  C   UNL     1      33.992 -22.334 -18.719  0.00  0.00    +0.206 C 
ATOM     35  C   UNL     1      33.160 -23.089 -17.704  0.00  0.00    +0.051 C 
ENDBRANCH  33  34
ENDBRANCH  32  33
ENDBRANCH  25  27
ENDBRANCH   5  25
TORSDOF 10
ENDMDL
