MODEL 1
REMARK VINA RESULT:     -11.6      0.000      0.000
REMARK  Name = 445018
REMARK  7 active torsions:
REMARK  status: ('A' for Active; 'I' for Inactive)
REMARK    1  A    between atoms: N_2  and  S_14
REMARK    2  A    between atoms: N_3  and  C_25
REMARK    3  A    between atoms: C_4  and  C_10
REMARK    4  A    between atoms: N_9  and  O_12
REMARK    5  A    between atoms: S_14  and  C_17
REMARK    6  A    between atoms: C_22  and  O_23
REMARK    7  A    between atoms: C_25  and  C_26
REMARK                            x       y       z     vdW  Elec       q    Type
REMARK                         _______ _______ _______ _____ _____    ______ ____
ROOT
ATOM      1  O   UNL     1      35.994 -22.660 -17.270  0.00  0.00    -0.275 OA
ATOM      2  N   UNL     1      32.887 -23.910 -14.923  0.00  0.00    -0.128 NA
ATOM      3  N   UNL     1      33.726 -23.162 -17.082  0.00  0.00    -0.260 N 
ATOM      4  C   UNL     1      34.174 -23.527 -14.288  0.00  0.00    +0.168 C 
ATOM      5  C   UNL     1      32.582 -23.192 -16.184  0.00  0.00    +0.192 C 
ATOM      6  C   UNL     1      34.984 -22.524 -15.101  0.00  0.00    +0.112 C 
ATOM      7  C   UNL     1      34.977 -22.799 -16.594  0.00  0.00    +0.229 C 
ENDROOT
BRANCH   4  10
ATOM      8  O   UNL     1      35.092 -25.577 -15.074  0.00  0.00    -0.272 OA
ATOM      9  N   UNL     1      35.368 -25.016 -12.849  0.00  0.00    -0.196 N 
ATOM     10  C   UNL     1      34.918 -24.813 -14.127  0.00  0.00    +0.261 C 
ATOM     11  H   UNL     1      35.200 -24.370 -12.126  0.00  0.00    +0.182 HD
BRANCH   9  12
ATOM     12  O   UNL     1      36.085 -26.202 -12.636  0.00  0.00    -0.295 OA
ATOM     13  H   UNL     1      35.469 -26.948 -12.586  0.00  0.00    +0.241 HD
ENDBRANCH   9  12
ENDBRANCH   4  10
BRANCH   2  14
ATOM     14  S   UNL     1      31.564 -24.201 -13.881  0.00  0.00    +0.065 S 
ATOM     15  O   UNL     1      31.512 -23.161 -12.875  0.00  0.00    -0.153 OA
ATOM     16  O   UNL     1      31.555 -25.600 -13.505  0.00  0.00    -0.153 OA
BRANCH  14  17
ATOM     17  C   UNL     1      30.222 -23.935 -14.999  0.00  0.00    +0.122 C 
ATOM     18  C   UNL     1      29.682 -25.013 -15.680  0.00  0.00    +0.023 C 
ATOM     19  C   UNL     1      29.733 -22.651 -15.176  0.00  0.00    +0.023 C 
ATOM     20  C   UNL     1      28.623 -24.803 -16.563  0.00  0.00    +0.038 C 
ATOM     21  C   UNL     1      28.673 -22.440 -16.059  0.00  0.00    +0.038 C 
ATOM     22  C   UNL     1      28.119 -23.516 -16.752  0.00  0.00    +0.139 C 
BRANCH  22  23
ATOM     23  O   UNL     1      27.084 -23.311 -17.613  0.00  0.00    -0.471 OA
ATOM     24  C   UNL     1      26.406 -22.059 -17.526  0.00  0.00    +0.252 C 
ENDBRANCH  22  23
ENDBRANCH  14  17
ENDBRANCH   2  14
BRANCH   3  25
ATOM     25  C   UNL     1      33.495 -23.382 -18.500  0.00  0.00    +0.121 C 
BRANCH  25  26
ATOM     26  C   UNL     1      33.581 -22.107 -19.288  0.00  0.00    -0.002 C 
ATOM     27  C   UNL     1      32.430 -21.364 -19.523  0.00  0.00    -0.003 C 
ATOM     28  C   UNL     1      34.812 -21.682 -19.776  0.00  0.00    -0.003 C 
ATOM     29  C   UNL     1      32.511 -20.180 -20.255  0.00  0.00    -0.000 C 
ATOM     30  C   UNL     1      34.892 -20.497 -20.508  0.00  0.00    -0.000 C 
ATOM     31  C   UNL     1      33.741 -19.747 -20.748  0.00  0.00    -0.000 C 
ENDBRANCH  25  26
ENDBRANCH   3  25
TORSDOF 7
ENDMDL
MODEL 2
REMARK VINA RESULT:      -9.5     12.510     16.016
REMARK  Name = 445018
REMARK  7 active torsions:
REMARK  status: ('A' for Active; 'I' for Inactive)
REMARK    1  A    between atoms: N_2  and  S_14
REMARK    2  A    between atoms: N_3  and  C_25
REMARK    3  A    between atoms: C_4  and  C_10
REMARK    4  A    between atoms: N_9  and  O_12
REMARK    5  A    between atoms: S_14  and  C_17
REMARK    6  A    between atoms: C_22  and  O_23
REMARK    7  A    between atoms: C_25  and  C_26
REMARK                            x       y       z     vdW  Elec       q    Type
REMARK                         _______ _______ _______ _____ _____    ______ ____
ROOT
ATOM      1  O   UNL     1      30.544 -10.046 -19.716  0.00  0.00    -0.275 OA
ATOM      2  N   UNL     1      32.752  -8.760 -22.909  0.00  0.00    -0.128 NA
ATOM      3  N   UNL     1      31.818 -10.582 -21.592  0.00  0.00    -0.260 N 
ATOM      4  C   UNL     1      32.381  -7.796 -21.842  0.00  0.00    +0.168 C 
ATOM      5  C   UNL     1      32.916 -10.159 -22.449  0.00  0.00    +0.192 C 
ATOM      6  C   UNL     1      32.155  -8.445 -20.481  0.00  0.00    +0.112 C 
ATOM      7  C   UNL     1      31.401  -9.760 -20.550  0.00  0.00    +0.229 C 
ENDROOT
BRANCH   4  10
ATOM      8  O   UNL     1      30.433  -7.661 -23.202  0.00  0.00    -0.272 OA
ATOM      9  N   UNL     1      30.879  -5.939 -21.726  0.00  0.00    -0.196 N 
ATOM     10  C   UNL     1      31.134  -7.138 -22.338  0.00  0.00    +0.261 C 
ATOM     11  H   UNL     1      31.476  -5.566 -21.038  0.00  0.00    +0.182 HD
BRANCH   9  12
ATOM     12  O   UNL     1      29.715  -5.278 -22.140  0.00  0.00    -0.295 OA
ATOM     13  H   UNL     1      28.973  -5.545 -21.576  0.00  0.00    +0.241 HD
ENDBRANCH   9  12
ENDBRANCH   4  10
BRANCH   2  14
ATOM     14  S   UNL     1      33.860  -8.220 -24.093  0.00  0.00    +0.065 S 
ATOM     15  O   UNL     1      35.196  -8.232 -23.534  0.00  0.00    -0.153 OA
ATOM     16  O   UNL     1      33.333  -7.031 -24.730  0.00  0.00    -0.153 OA
BRANCH  14  17
ATOM     17  C   UNL     1      33.751  -9.548 -25.252  0.00  0.00    +0.122 C 
ATOM     18  C   UNL     1      34.885 -10.288 -25.543  0.00  0.00    +0.023 C 
ATOM     19  C   UNL     1      32.534  -9.827 -25.850  0.00  0.00    +0.023 C 
ATOM     20  C   UNL     1      34.800 -11.337 -26.458  0.00  0.00    +0.038 C 
ATOM     21  C   UNL     1      32.447 -10.877 -26.766  0.00  0.00    +0.038 C 
ATOM     22  C   UNL     1      33.581 -11.631 -27.070  0.00  0.00    +0.139 C 
BRANCH  22  23
ATOM     23  O   UNL     1      33.497 -12.655 -27.962  0.00  0.00    -0.471 OA
ATOM     24  C   UNL     1      32.908 -13.870 -27.502  0.00  0.00    +0.252 C 
ENDBRANCH  22  23
ENDBRANCH  14  17
ENDBRANCH   2  14
BRANCH   3  25
ATOM     25  C   UNL     1      31.279 -11.919 -21.773  0.00  0.00    +0.121 C 
BRANCH  25  26
ATOM     26  C   UNL     1      32.344 -12.907 -22.153  0.00  0.00    -0.002 C 
ATOM     27  C   UNL     1      32.599 -13.160 -23.496  0.00  0.00    -0.003 C 
ATOM     28  C   UNL     1      33.064 -13.560 -21.160  0.00  0.00    -0.003 C 
ATOM     29  C   UNL     1      33.589 -14.078 -23.850  0.00  0.00    -0.000 C 
ATOM     30  C   UNL     1      34.053 -14.477 -21.513  0.00  0.00    -0.000 C 
ATOM     31  C   UNL     1      34.315 -14.737 -22.858  0.00  0.00    -0.000 C 
ENDBRANCH  25  26
ENDBRANCH   3  25
TORSDOF 7
ENDMDL
MODEL 3
REMARK VINA RESULT:      -9.4     13.839     17.104
REMARK  Name = 445018
REMARK  7 active torsions:
REMARK  status: ('A' for Active; 'I' for Inactive)
REMARK    1  A    between atoms: N_2  and  S_14
REMARK    2  A    between atoms: N_3  and  C_25
REMARK    3  A    between atoms: C_4  and  C_10
REMARK    4  A    between atoms: N_9  and  O_12
REMARK    5  A    between atoms: S_14  and  C_17
REMARK    6  A    between atoms: C_22  and  O_23
REMARK    7  A    between atoms: C_25  and  C_26
REMARK                            x       y       z     vdW  Elec       q    Type
REMARK                         _______ _______ _______ _____ _____    ______ ____
ROOT
ATOM      1  O   UNL     1      30.392  -5.670 -21.279  0.00  0.00    -0.275 OA
ATOM      2  N   UNL     1      33.173  -7.581 -23.590  0.00  0.00    -0.128 NA
ATOM      3  N   UNL     1      32.112  -7.235 -21.426  0.00  0.00    -0.260 N 
ATOM      4  C   UNL     1      32.481  -6.380 -24.123  0.00  0.00    +0.168 C 
ATOM      5  C   UNL     1      33.341  -7.595 -22.117  0.00  0.00    +0.192 C 
ATOM      6  C   UNL     1      31.997  -5.421 -23.042  0.00  0.00    +0.112 C 
ATOM      7  C   UNL     1      31.394  -6.116 -21.835  0.00  0.00    +0.229 C 
ENDROOT
BRANCH   4  10
ATOM      8  O   UNL     1      30.358  -7.425 -24.368  0.00  0.00    -0.272 OA
ATOM      9  N   UNL     1      31.502  -6.774 -26.268  0.00  0.00    -0.196 N 
ATOM     10  C   UNL     1      31.335  -6.919 -24.916  0.00  0.00    +0.261 C 
ATOM     11  H   UNL     1      32.307  -6.360 -26.655  0.00  0.00    +0.182 HD
BRANCH   9  12
ATOM     12  O   UNL     1      30.453  -7.250 -27.067  0.00  0.00    -0.295 OA
ATOM     13  H   UNL     1      30.044  -8.018 -26.639  0.00  0.00    +0.241 HD
ENDBRANCH   9  12
ENDBRANCH   4  10
BRANCH   2  14
ATOM     14  S   UNL     1      34.479  -8.196 -24.505  0.00  0.00    +0.065 S 
ATOM     15  O   UNL     1      35.612  -8.413 -23.630  0.00  0.00    -0.153 OA
ATOM     16  O   UNL     1      34.617  -7.418 -25.718  0.00  0.00    -0.153 OA
BRANCH  14  17
ATOM     17  C   UNL     1      33.832  -9.779 -24.949  0.00  0.00    +0.122 C 
ATOM     18  C   UNL     1      33.172  -9.926 -26.157  0.00  0.00    +0.023 C 
ATOM     19  C   UNL     1      33.996 -10.845 -24.080  0.00  0.00    +0.023 C 
ATOM     20  C   UNL     1      32.660 -11.176 -26.507  0.00  0.00    +0.038 C 
ATOM     21  C   UNL     1      33.484 -12.096 -24.430  0.00  0.00    +0.038 C 
ATOM     22  C   UNL     1      32.817 -12.260 -25.644  0.00  0.00    +0.139 C 
BRANCH  22  23
ATOM     23  O   UNL     1      32.319 -13.480 -25.987  0.00  0.00    -0.471 OA
ATOM     24  C   UNL     1      31.996 -13.686 -27.360  0.00  0.00    +0.252 C 
ENDBRANCH  22  23
ENDBRANCH  14  17
ENDBRANCH   2  14
BRANCH   3  25
ATOM     25  C   UNL     1      31.745  -7.985 -20.238  0.00  0.00    +0.121 C 
BRANCH  25  26
ATOM     26  C   UNL     1      31.551  -9.445 -20.533  0.00  0.00    -0.002 C 
ATOM     27  C   UNL     1      31.037  -9.835 -21.764  0.00  0.00    -0.003 C 
ATOM     28  C   UNL     1      31.885 -10.392 -19.572  0.00  0.00    -0.003 C 
ATOM     29  C   UNL     1      30.857 -11.190 -22.039  0.00  0.00    -0.000 C 
ATOM     30  C   UNL     1      31.704 -11.748 -19.847  0.00  0.00    -0.000 C 
ATOM     31  C   UNL     1      31.189 -12.147 -21.080  0.00  0.00    -0.000 C 
ENDBRANCH  25  26
ENDBRANCH   3  25
TORSDOF 7
ENDMDL
MODEL 4
REMARK VINA RESULT:      -9.3     13.713     17.062
REMARK  Name = 445018
REMARK  7 active torsions:
REMARK  status: ('A' for Active; 'I' for Inactive)
REMARK    1  A    between atoms: N_2  and  S_14
REMARK    2  A    between atoms: N_3  and  C_25
REMARK    3  A    between atoms: C_4  and  C_10
REMARK    4  A    between atoms: N_9  and  O_12
REMARK    5  A    between atoms: S_14  and  C_17
REMARK    6  A    between atoms: C_22  and  O_23
REMARK    7  A    between atoms: C_25  and  C_26
REMARK                            x       y       z     vdW  Elec       q    Type
REMARK                         _______ _______ _______ _____ _____    ______ ____
ROOT
ATOM      1  O   UNL     1      30.330  -6.168 -23.364  0.00  0.00    -0.275 OA
ATOM      2  N   UNL     1      33.382  -8.499 -24.770  0.00  0.00    -0.128 NA
ATOM      3  N   UNL     1      31.472  -8.197 -23.291  0.00  0.00    -0.260 N 
ATOM      4  C   UNL     1      33.357  -7.051 -25.100  0.00  0.00    +0.168 C 
ATOM      5  C   UNL     1      32.762  -8.847 -23.470  0.00  0.00    +0.192 C 
ATOM      6  C   UNL     1      32.619  -6.201 -24.073  0.00  0.00    +0.112 C 
ATOM      7  C   UNL     1      31.343  -6.838 -23.555  0.00  0.00    +0.229 C 
ENDROOT
BRANCH   4  10
ATOM      8  O   UNL     1      31.909  -7.844 -26.814  0.00  0.00    -0.272 OA
ATOM      9  N   UNL     1      33.045  -5.858 -27.149  0.00  0.00    -0.196 N 
ATOM     10  C   UNL     1      32.692  -6.975 -26.437  0.00  0.00    +0.261 C 
ATOM     11  H   UNL     1      33.679  -5.193 -26.798  0.00  0.00    +0.182 HD
BRANCH   9  12
ATOM     12  O   UNL     1      32.445  -5.724 -28.408  0.00  0.00    -0.295 OA
ATOM     13  H   UNL     1      32.241  -4.790 -28.572  0.00  0.00    +0.241 HD
ENDBRANCH   9  12
ENDBRANCH   4  10
BRANCH   2  14
ATOM     14  S   UNL     1      34.792  -9.367 -25.191  0.00  0.00    +0.065 S 
ATOM     15  O   UNL     1      35.638  -9.496 -24.023  0.00  0.00    -0.153 OA
ATOM     16  O   UNL     1      35.319  -8.843 -26.435  0.00  0.00    -0.153 OA
BRANCH  14  17
ATOM     17  C   UNL     1      34.094 -10.954 -25.527  0.00  0.00    +0.122 C 
ATOM     18  C   UNL     1      33.845 -11.821 -24.475  0.00  0.00    +0.023 C 
ATOM     19  C   UNL     1      33.806 -11.305 -26.835  0.00  0.00    +0.023 C 
ATOM     20  C   UNL     1      33.294 -13.075 -24.740  0.00  0.00    +0.038 C 
ATOM     21  C   UNL     1      33.254 -12.559 -27.101  0.00  0.00    +0.038 C 
ATOM     22  C   UNL     1      32.998 -13.444 -26.052  0.00  0.00    +0.139 C 
BRANCH  22  23
ATOM     23  O   UNL     1      32.459 -14.666 -26.310  0.00  0.00    -0.471 OA
ATOM     24  C   UNL     1      32.663 -15.203 -27.616  0.00  0.00    +0.252 C 
ENDBRANCH  22  23
ENDBRANCH  14  17
ENDBRANCH   2  14
BRANCH   3  25
ATOM     25  C   UNL     1      30.388  -8.969 -22.708  0.00  0.00    +0.121 C 
BRANCH  25  26
ATOM     26  C   UNL     1      30.853  -9.806 -21.551  0.00  0.00    -0.002 C 
ATOM     27  C   UNL     1      31.010 -11.178 -21.714  0.00  0.00    -0.003 C 
ATOM     28  C   UNL     1      31.121  -9.202 -20.328  0.00  0.00    -0.003 C 
ATOM     29  C   UNL     1      31.442 -11.955 -20.640  0.00  0.00    -0.000 C 
ATOM     30  C   UNL     1      31.553  -9.980 -19.254  0.00  0.00    -0.000 C 
ATOM     31  C   UNL     1      31.713 -11.357 -19.410  0.00  0.00    -0.000 C 
ENDBRANCH  25  26
ENDBRANCH   3  25
TORSDOF 7
ENDMDL
MODEL 5
REMARK VINA RESULT:      -8.8     13.758     17.272
REMARK  Name = 445018
REMARK  7 active torsions:
REMARK  status: ('A' for Active; 'I' for Inactive)
REMARK    1  A    between atoms: N_2  and  S_14
REMARK    2  A    between atoms: N_3  and  C_25
REMARK    3  A    between atoms: C_4  and  C_10
REMARK    4  A    between atoms: N_9  and  O_12
REMARK    5  A    between atoms: S_14  and  C_17
REMARK    6  A    between atoms: C_22  and  O_23
REMARK    7  A    between atoms: C_25  and  C_26
REMARK                            x       y       z     vdW  Elec       q    Type
REMARK                         _______ _______ _______ _____ _____    ______ ____
ROOT
ATOM      1  O   UNL     1      31.782  -8.413 -19.172  0.00  0.00    -0.275 OA
ATOM      2  N   UNL     1      31.799  -7.115 -23.050  0.00  0.00    -0.128 NA
ATOM      3  N   UNL     1      31.488  -8.906 -21.430  0.00  0.00    -0.260 N 
ATOM      4  C   UNL     1      32.381  -6.254 -21.989  0.00  0.00    +0.168 C 
ATOM      5  C   UNL     1      31.895  -8.571 -22.787  0.00  0.00    +0.192 C 
ATOM      6  C   UNL     1      32.895  -7.031 -20.782  0.00  0.00    +0.112 C 
ATOM      7  C   UNL     1      31.989  -8.172 -20.359  0.00  0.00    +0.229 C 
ENDROOT
BRANCH   4  10
ATOM      8  O   UNL     1      30.405  -5.666 -20.801  0.00  0.00    -0.272 OA
ATOM      9  N   UNL     1      31.358  -4.104 -22.213  0.00  0.00    -0.196 N 
ATOM     10  C   UNL     1      31.275  -5.327 -21.600  0.00  0.00    +0.261 C 
ATOM     11  H   UNL     1      32.078  -3.885 -22.847  0.00  0.00    +0.182 HD
BRANCH   9  12
ATOM     12  O   UNL     1      30.354  -3.185 -21.880  0.00  0.00    -0.295 OA
ATOM     13  H   UNL     1      29.736  -3.097 -22.621  0.00  0.00    +0.241 HD
ENDBRANCH   9  12
ENDBRANCH   4  10
BRANCH   2  14
ATOM     14  S   UNL     1      32.041  -6.623 -24.669  0.00  0.00    +0.065 S 
ATOM     15  O   UNL     1      32.952  -5.498 -24.693  0.00  0.00    -0.153 OA
ATOM     16  O   UNL     1      30.760  -6.556 -25.341  0.00  0.00    -0.153 OA
BRANCH  14  17
ATOM     17  C   UNL     1      32.906  -8.029 -25.296  0.00  0.00    +0.122 C 
ATOM     18  C   UNL     1      34.291  -8.010 -25.338  0.00  0.00    +0.023 C 
ATOM     19  C   UNL     1      32.186  -9.127 -25.736  0.00  0.00    +0.023 C 
ATOM     20  C   UNL     1      34.975  -9.119 -25.834  0.00  0.00    +0.038 C 
ATOM     21  C   UNL     1      32.870 -10.238 -26.233  0.00  0.00    +0.038 C 
ATOM     22  C   UNL     1      34.264 -10.234 -26.281  0.00  0.00    +0.139 C 
BRANCH  22  23
ATOM     23  O   UNL     1      34.932 -11.317 -26.764  0.00  0.00    -0.471 OA
ATOM     24  C   UNL     1      34.238 -12.145 -27.695  0.00  0.00    +0.252 C 
ENDBRANCH  22  23
ENDBRANCH  14  17
ENDBRANCH   2  14
BRANCH   3  25
ATOM     25  C   UNL     1      30.672 -10.091 -21.229  0.00  0.00    +0.121 C 
BRANCH  25  26
ATOM     26  C   UNL     1      31.466 -11.355 -21.396  0.00  0.00    -0.002 C 
ATOM     27  C   UNL     1      32.023 -11.659 -22.632  0.00  0.00    -0.003 C 
ATOM     28  C   UNL     1      31.636 -12.208 -20.312  0.00  0.00    -0.003 C 
ATOM     29  C   UNL     1      32.760 -12.833 -22.787  0.00  0.00    -0.000 C 
ATOM     30  C   UNL     1      32.373 -13.382 -20.466  0.00  0.00    -0.000 C 
ATOM     31  C   UNL     1      32.935 -13.695 -21.704  0.00  0.00    -0.000 C 
ENDBRANCH  25  26
ENDBRANCH   3  25
TORSDOF 7
ENDMDL
MODEL 6
REMARK VINA RESULT:      -8.7      2.181      3.270
REMARK  Name = 445018
REMARK  7 active torsions:
REMARK  status: ('A' for Active; 'I' for Inactive)
REMARK    1  A    between atoms: N_2  and  S_14
REMARK    2  A    between atoms: N_3  and  C_25
REMARK    3  A    between atoms: C_4  and  C_10
REMARK    4  A    between atoms: N_9  and  O_12
REMARK    5  A    between atoms: S_14  and  C_17
REMARK    6  A    between atoms: C_22  and  O_23
REMARK    7  A    between atoms: C_25  and  C_26
REMARK                            x       y       z     vdW  Elec       q    Type
REMARK                         _______ _______ _______ _____ _____    ______ ____
ROOT
ATOM      1  O   UNL     1      38.846 -23.825 -16.301  0.00  0.00    -0.275 OA
ATOM      2  N   UNL     1      35.545 -24.123 -13.904  0.00  0.00    -0.128 NA
ATOM      3  N   UNL     1      37.044 -22.771 -15.266  0.00  0.00    -0.260 N 
ATOM      4  C   UNL     1      36.502 -25.257 -13.974  0.00  0.00    +0.168 C 
ATOM      5  C   UNL     1      36.152 -22.787 -14.115  0.00  0.00    +0.192 C 
ATOM      6  C   UNL     1      37.923 -24.839 -14.335  0.00  0.00    +0.112 C 
ATOM      7  C   UNL     1      37.991 -23.778 -15.419  0.00  0.00    +0.229 C 
ENDROOT
BRANCH   4  10
ATOM      8  O   UNL     1      34.719 -26.293 -15.160  0.00  0.00    -0.272 OA
ATOM      9  N   UNL     1      36.894 -26.827 -15.734  0.00  0.00    -0.196 N 
ATOM     10  C   UNL     1      35.933 -26.174 -15.007  0.00  0.00    +0.261 C 
ATOM     11  H   UNL     1      37.855 -26.694 -15.569  0.00  0.00    +0.182 HD
BRANCH   9  12
ATOM     12  O   UNL     1      36.422 -27.694 -16.729  0.00  0.00    -0.295 OA
ATOM     13  H   UNL     1      36.742 -27.399 -17.595  0.00  0.00    +0.241 HD
ENDBRANCH   9  12
ENDBRANCH   4  10
BRANCH   2  14
ATOM     14  S   UNL     1      34.317 -24.215 -12.719  0.00  0.00    +0.065 S 
ATOM     15  O   UNL     1      34.314 -22.993 -11.942  0.00  0.00    -0.153 OA
ATOM     16  O   UNL     1      34.379 -25.508 -12.070  0.00  0.00    -0.153 OA
BRANCH  14  17
ATOM     17  C   UNL     1      32.885 -24.197 -13.753  0.00  0.00    +0.122 C 
ATOM     18  C   UNL     1      31.859 -25.094 -13.504  0.00  0.00    +0.023 C 
ATOM     19  C   UNL     1      32.812 -23.287 -14.794  0.00  0.00    +0.023 C 
ATOM     20  C   UNL     1      30.728 -25.080 -14.320  0.00  0.00    +0.038 C 
ATOM     21  C   UNL     1      31.680 -23.273 -15.611  0.00  0.00    +0.038 C 
ATOM     22  C   UNL     1      30.639 -24.170 -15.374  0.00  0.00    +0.139 C 
BRANCH  22  23
ATOM     23  O   UNL     1      29.534 -24.156 -16.169  0.00  0.00    -0.471 OA
ATOM     24  C   UNL     1      28.964 -22.883 -16.465  0.00  0.00    +0.252 C 
ENDBRANCH  22  23
ENDBRANCH  14  17
ENDBRANCH   2  14
BRANCH   3  25
ATOM     25  C   UNL     1      37.003 -21.620 -16.152  0.00  0.00    +0.121 C 
BRANCH  25  26
ATOM     26  C   UNL     1      36.088 -21.845 -17.322  0.00  0.00    -0.002 C 
ATOM     27  C   UNL     1      36.429 -21.335 -18.569  0.00  0.00    -0.003 C 
ATOM     28  C   UNL     1      34.908 -22.559 -17.146  0.00  0.00    -0.003 C 
ATOM     29  C   UNL     1      35.580 -21.543 -19.655  0.00  0.00    -0.000 C 
ATOM     30  C   UNL     1      34.059 -22.767 -18.232  0.00  0.00    -0.000 C 
ATOM     31  C   UNL     1      34.394 -22.258 -19.487  0.00  0.00    -0.000 C 
ENDBRANCH  25  26
ENDBRANCH   3  25
TORSDOF 7
ENDMDL
MODEL 7
REMARK VINA RESULT:      -8.6     12.055     15.785
REMARK  Name = 445018
REMARK  7 active torsions:
REMARK  status: ('A' for Active; 'I' for Inactive)
REMARK    1  A    between atoms: N_2  and  S_14
REMARK    2  A    between atoms: N_3  and  C_25
REMARK    3  A    between atoms: C_4  and  C_10
REMARK    4  A    between atoms: N_9  and  O_12
REMARK    5  A    between atoms: S_14  and  C_17
REMARK    6  A    between atoms: C_22  and  O_23
REMARK    7  A    between atoms: C_25  and  C_26
REMARK                            x       y       z     vdW  Elec       q    Type
REMARK                         _______ _______ _______ _____ _____    ______ ____
ROOT
ATOM      1  O   UNL     1      33.796  -7.761 -22.740  0.00  0.00    -0.275 OA
ATOM      2  N   UNL     1      33.210 -10.544 -25.680  0.00  0.00    -0.128 NA
ATOM      3  N   UNL     1      32.528  -9.529 -23.574  0.00  0.00    -0.260 N 
ATOM      4  C   UNL     1      34.493  -9.797 -25.626  0.00  0.00    +0.168 C 
ATOM      5  C   UNL     1      32.559 -10.751 -24.364  0.00  0.00    +0.192 C 
ATOM      6  C   UNL     1      34.860  -9.309 -24.229  0.00  0.00    +0.112 C 
ATOM      7  C   UNL     1      33.682  -8.763 -23.444  0.00  0.00    +0.229 C 
ENDROOT
BRANCH   4  10
ATOM      8  O   UNL     1      33.215  -8.102 -26.700  0.00  0.00    -0.272 OA
ATOM      9  N   UNL     1      35.460  -8.298 -27.217  0.00  0.00    -0.196 N 
ATOM     10  C   UNL     1      34.307  -8.650 -26.565  0.00  0.00    +0.261 C 
ATOM     11  H   UNL     1      36.309  -8.772 -27.071  0.00  0.00    +0.182 HD
BRANCH   9  12
ATOM     12  O   UNL     1      35.353  -7.218 -28.104  0.00  0.00    -0.295 OA
ATOM     13  H   UNL     1      36.155  -7.163 -28.646  0.00  0.00    +0.241 HD
ENDBRANCH   9  12
ENDBRANCH   4  10
BRANCH   2  14
ATOM     14  S   UNL     1      33.114 -11.845 -26.783  0.00  0.00    +0.065 S 
ATOM     15  O   UNL     1      34.236 -11.779 -27.696  0.00  0.00    -0.153 OA
ATOM     16  O   UNL     1      31.758 -11.948 -27.280  0.00  0.00    -0.153 OA
BRANCH  14  17
ATOM     17  C   UNL     1      33.392 -13.203 -25.688  0.00  0.00    +0.122 C 
ATOM     18  C   UNL     1      33.837 -12.955 -24.400  0.00  0.00    +0.023 C 
ATOM     19  C   UNL     1      33.162 -14.493 -26.136  0.00  0.00    +0.023 C 
ATOM     20  C   UNL     1      34.057 -14.027 -23.535  0.00  0.00    +0.038 C 
ATOM     21  C   UNL     1      33.382 -15.567 -25.271  0.00  0.00    +0.038 C 
ATOM     22  C   UNL     1      33.830 -15.333 -23.971  0.00  0.00    +0.139 C 
BRANCH  22  23
ATOM     23  O   UNL     1      34.044 -16.379 -23.127  0.00  0.00    -0.471 OA
ATOM     24  C   UNL     1      34.607 -17.562 -23.690  0.00  0.00    +0.252 C 
ENDBRANCH  22  23
ENDBRANCH  14  17
ENDBRANCH   2  14
BRANCH   3  25
ATOM     25  C   UNL     1      31.318  -9.220 -22.832  0.00  0.00    +0.121 C 
BRANCH  25  26
ATOM     26  C   UNL     1      31.366  -9.757 -21.430  0.00  0.00    -0.002 C 
ATOM     27  C   UNL     1      31.405 -11.131 -21.221  0.00  0.00    -0.003 C 
ATOM     28  C   UNL     1      31.370  -8.876 -20.355  0.00  0.00    -0.003 C 
ATOM     29  C   UNL     1      31.450 -11.629 -19.919  0.00  0.00    -0.000 C 
ATOM     30  C   UNL     1      31.415  -9.374 -19.054  0.00  0.00    -0.000 C 
ATOM     31  C   UNL     1      31.454 -10.752 -18.836  0.00  0.00    -0.000 C 
ENDBRANCH  25  26
ENDBRANCH   3  25
TORSDOF 7
ENDMDL
