MODEL 1
REMARK VINA RESULT:     -11.3      0.000      0.000
REMARK  Name = 449087
REMARK  3 active torsions:
REMARK  status: ('A' for Active; 'I' for Inactive)
REMARK    1  A    between atoms: C_5  and  C_11
REMARK    2  A    between atoms: C_8  and  C_14
REMARK    3  A    between atoms: C_14  and  C_15
REMARK                            x       y       z     vdW  Elec       q    Type
REMARK                         _______ _______ _______ _____ _____    ______ ____
ROOT
ATOM      1  O   UNL     1      34.878 -16.361 -22.462  0.00  0.00    -0.274 OA
ATOM      2  N   UNL     1      33.236 -15.697 -27.012  0.00  0.00    -0.239 N 
ATOM      3  N   UNL     1      33.839 -16.830 -26.612  0.00  0.00    -0.166 NA
ATOM      4  N   UNL     1      34.752 -17.503 -24.511  0.00  0.00    -0.268 N 
ATOM      5  C   UNL     1      33.128 -14.755 -26.032  0.00  0.00    +0.045 C 
ATOM      6  C   UNL     1      33.698 -15.309 -24.912  0.00  0.00    +0.048 C 
ATOM      7  C   UNL     1      34.110 -16.574 -25.339  0.00  0.00    +0.152 C 
ATOM      8  C   UNL     1      35.084 -17.342 -23.168  0.00  0.00    +0.232 C 
ATOM      9  H   UNL     1      32.904 -15.560 -27.928  0.00  0.00    +0.174 HD
ATOM     10  H   UNL     1      34.994 -18.364 -24.923  0.00  0.00    +0.156 HD
ENDROOT
BRANCH   5  11
ATOM     11  C   UNL     1      32.500 -13.374 -26.161  0.00  0.00    +0.037 C 
ATOM     12  C   UNL     1      33.342 -12.226 -26.662  0.00  0.00    +0.006 C 
ATOM     13  C   UNL     1      32.264 -12.799 -27.535  0.00  0.00    +0.006 C 
ENDBRANCH   5  11
BRANCH   8  14
ATOM     14  C   UNL     1      35.774 -18.592 -22.627  0.00  0.00    +0.112 C 
BRANCH  14  15
ATOM     15  C   UNL     1      34.925 -19.402 -21.706  0.00  0.00    -0.013 C 
ATOM     16  C   UNL     1      34.734 -20.979 -19.864  0.00  0.00    -0.000 C 
ATOM     17  C   UNL     1      35.521 -20.210 -20.738  0.00  0.00    -0.004 C 
ATOM     18  C   UNL     1      33.325 -20.924 -19.971  0.00  0.00    -0.000 C 
ATOM     19  C   UNL     1      33.538 -19.348 -21.812  0.00  0.00    -0.004 C 
ATOM     20  C   UNL     1      32.742 -20.104 -20.951  0.00  0.00    -0.000 C 
ATOM     21  C   UNL     1      35.318 -21.800 -18.884  0.00  0.00    -0.000 C 
ATOM     22  C   UNL     1      32.539 -21.692 -19.096  0.00  0.00    -0.000 C 
ATOM     23  C   UNL     1      34.521 -22.556 -18.024  0.00  0.00    -0.000 C 
ATOM     24  C   UNL     1      33.135 -22.503 -18.129  0.00  0.00    -0.000 C 
ENDBRANCH  14  15
ENDBRANCH   8  14
TORSDOF 3
ENDMDL
MODEL 2
REMARK VINA RESULT:     -11.1      5.909     10.902
REMARK  Name = 449087
REMARK  3 active torsions:
REMARK  status: ('A' for Active; 'I' for Inactive)
REMARK    1  A    between atoms: C_5  and  C_11
REMARK    2  A    between atoms: C_8  and  C_14
REMARK    3  A    between atoms: C_14  and  C_15
REMARK                            x       y       z     vdW  Elec       q    Type
REMARK                         _______ _______ _______ _____ _____    ______ ____
ROOT
ATOM      1  O   UNL     1      35.183 -22.773 -17.436  0.00  0.00    -0.274 OA
ATOM      2  N   UNL     1      34.372 -24.514 -12.947  0.00  0.00    -0.239 N 
ATOM      3  N   UNL     1      33.386 -24.296 -13.834  0.00  0.00    -0.166 NA
ATOM      4  N   UNL     1      33.400 -23.471 -16.074  0.00  0.00    -0.268 N 
ATOM      5  C   UNL     1      35.614 -24.204 -13.416  0.00  0.00    +0.045 C 
ATOM      6  C   UNL     1      35.429 -23.753 -14.700  0.00  0.00    +0.048 C 
ATOM      7  C   UNL     1      34.047 -23.835 -14.887  0.00  0.00    +0.152 C 
ATOM      8  C   UNL     1      33.991 -22.979 -17.235  0.00  0.00    +0.232 C 
ATOM      9  H   UNL     1      34.212 -24.865 -12.041  0.00  0.00    +0.174 HD
ATOM     10  H   UNL     1      32.421 -23.574 -16.090  0.00  0.00    +0.156 HD
ENDROOT
BRANCH   5  11
ATOM     11  C   UNL     1      36.932 -24.336 -12.664  0.00  0.00    +0.037 C 
ATOM     12  C   UNL     1      37.438 -25.711 -12.304  0.00  0.00    +0.006 C 
ATOM     13  C   UNL     1      38.129 -24.917 -13.374  0.00  0.00    +0.006 C 
ENDBRANCH   5  11
BRANCH   8  14
ATOM     14  C   UNL     1      32.937 -22.705 -18.305  0.00  0.00    +0.112 C 
BRANCH  14  15
ATOM     15  C   UNL     1      33.321 -21.637 -19.274  0.00  0.00    -0.013 C 
ATOM     16  C   UNL     1      35.045 -20.336 -20.393  0.00  0.00    -0.000 C 
ATOM     17  C   UNL     1      34.668 -21.339 -19.485  0.00  0.00    -0.004 C 
ATOM     18  C   UNL     1      34.044 -19.628 -21.098  0.00  0.00    -0.000 C 
ATOM     19  C   UNL     1      32.336 -20.940 -19.967  0.00  0.00    -0.004 C 
ATOM     20  C   UNL     1      32.694 -19.942 -20.873  0.00  0.00    -0.000 C 
ATOM     21  C   UNL     1      36.396 -20.023 -20.618  0.00  0.00    -0.000 C 
ATOM     22  C   UNL     1      34.422 -18.626 -22.007  0.00  0.00    -0.000 C 
ATOM     23  C   UNL     1      36.754 -19.024 -21.524  0.00  0.00    -0.000 C 
ATOM     24  C   UNL     1      35.769 -18.327 -22.217  0.00  0.00    -0.000 C 
ENDBRANCH  14  15
ENDBRANCH   8  14
TORSDOF 3
ENDMDL
MODEL 3
REMARK VINA RESULT:     -11.0      4.009      9.024
REMARK  Name = 449087
REMARK  3 active torsions:
REMARK  status: ('A' for Active; 'I' for Inactive)
REMARK    1  A    between atoms: C_5  and  C_11
REMARK    2  A    between atoms: C_8  and  C_14
REMARK    3  A    between atoms: C_14  and  C_15
REMARK                            x       y       z     vdW  Elec       q    Type
REMARK                         _______ _______ _______ _____ _____    ______ ____
ROOT
ATOM      1  O   UNL     1      33.243 -20.752 -20.269  0.00  0.00    -0.274 OA
ATOM      2  N   UNL     1      33.580 -23.665 -16.365  0.00  0.00    -0.239 N 
ATOM      3  N   UNL     1      34.656 -23.183 -17.011  0.00  0.00    -0.166 NA
ATOM      4  N   UNL     1      34.877 -21.762 -18.916  0.00  0.00    -0.268 N 
ATOM      5  C   UNL     1      32.391 -23.266 -16.901  0.00  0.00    +0.045 C 
ATOM      6  C   UNL     1      32.710 -22.466 -17.971  0.00  0.00    +0.048 C 
ATOM      7  C   UNL     1      34.107 -22.462 -17.978  0.00  0.00    +0.152 C 
ATOM      8  C   UNL     1      34.410 -20.977 -19.967  0.00  0.00    +0.232 C 
ATOM      9  H   UNL     1      33.644 -24.252 -15.578  0.00  0.00    +0.174 HD
ATOM     10  H   UNL     1      35.855 -21.831 -18.821  0.00  0.00    +0.156 HD
ENDROOT
BRANCH   5  11
ATOM     11  C   UNL     1      30.999 -23.634 -16.405  0.00  0.00    +0.037 C 
ATOM     12  C   UNL     1      30.470 -22.987 -15.149  0.00  0.00    +0.006 C 
ATOM     13  C   UNL     1      29.895 -22.609 -16.482  0.00  0.00    +0.006 C 
ENDBRANCH   5  11
BRANCH   8  14
ATOM     14  C   UNL     1      35.573 -20.383 -20.758  0.00  0.00    +0.112 C 
BRANCH  14  15
ATOM     15  C   UNL     1      35.218 -19.152 -21.524  0.00  0.00    -0.013 C 
ATOM     16  C   UNL     1      34.763 -16.763 -21.570  0.00  0.00    -0.000 C 
ATOM     17  C   UNL     1      35.097 -17.930 -20.863  0.00  0.00    -0.004 C 
ATOM     18  C   UNL     1      34.553 -16.837 -22.967  0.00  0.00    -0.000 C 
ATOM     19  C   UNL     1      35.011 -19.225 -22.899  0.00  0.00    -0.004 C 
ATOM     20  C   UNL     1      34.680 -18.076 -23.617  0.00  0.00    -0.000 C 
ATOM     21  C   UNL     1      34.635 -15.525 -20.920  0.00  0.00    -0.000 C 
ATOM     22  C   UNL     1      34.220 -15.670 -23.675  0.00  0.00    -0.000 C 
ATOM     23  C   UNL     1      34.304 -14.375 -21.639  0.00  0.00    -0.000 C 
ATOM     24  C   UNL     1      34.097 -14.448 -23.013  0.00  0.00    -0.000 C 
ENDBRANCH  14  15
ENDBRANCH   8  14
TORSDOF 3
ENDMDL
MODEL 4
REMARK VINA RESULT:     -10.9      3.969      9.118
REMARK  Name = 449087
REMARK  3 active torsions:
REMARK  status: ('A' for Active; 'I' for Inactive)
REMARK    1  A    between atoms: C_5  and  C_11
REMARK    2  A    between atoms: C_8  and  C_14
REMARK    3  A    between atoms: C_14  and  C_15
REMARK                            x       y       z     vdW  Elec       q    Type
REMARK                         _______ _______ _______ _____ _____    ______ ____
ROOT
ATOM      1  O   UNL     1      33.193 -20.862 -20.174  0.00  0.00    -0.274 OA
ATOM      2  N   UNL     1      33.486 -23.733 -16.235  0.00  0.00    -0.239 N 
ATOM      3  N   UNL     1      34.568 -23.268 -16.881  0.00  0.00    -0.166 NA
ATOM      4  N   UNL     1      34.811 -21.869 -18.800  0.00  0.00    -0.268 N 
ATOM      5  C   UNL     1      32.302 -23.331 -16.782  0.00  0.00    +0.045 C 
ATOM      6  C   UNL     1      32.634 -22.546 -17.859  0.00  0.00    +0.048 C 
ATOM      7  C   UNL     1      34.031 -22.553 -17.860  0.00  0.00    +0.152 C 
ATOM      8  C   UNL     1      34.356 -21.093 -19.863  0.00  0.00    +0.232 C 
ATOM      9  H   UNL     1      33.541 -24.312 -15.441  0.00  0.00    +0.174 HD
ATOM     10  H   UNL     1      35.788 -21.945 -18.699  0.00  0.00    +0.156 HD
ENDROOT
BRANCH   5  11
ATOM     11  C   UNL     1      30.905 -23.682 -16.290  0.00  0.00    +0.037 C 
ATOM     12  C   UNL     1      30.344 -22.958 -15.091  0.00  0.00    +0.006 C 
ATOM     13  C   UNL     1      29.792 -22.679 -16.458  0.00  0.00    +0.006 C 
ENDBRANCH   5  11
BRANCH   8  14
ATOM     14  C   UNL     1      35.528 -20.517 -20.655  0.00  0.00    +0.112 C 
BRANCH  14  15
ATOM     15  C   UNL     1      35.159 -19.369 -21.534  0.00  0.00    -0.013 C 
ATOM     16  C   UNL     1      34.354 -18.533 -23.671  0.00  0.00    -0.000 C 
ATOM     17  C   UNL     1      34.705 -19.603 -22.832  0.00  0.00    -0.004 C 
ATOM     18  C   UNL     1      34.464 -17.208 -23.187  0.00  0.00    -0.000 C 
ATOM     19  C   UNL     1      35.267 -18.066 -21.057  0.00  0.00    -0.004 C 
ATOM     20  C   UNL     1      34.922 -16.992 -21.877  0.00  0.00    -0.000 C 
ATOM     21  C   UNL     1      33.896 -18.750 -24.981  0.00  0.00    -0.000 C 
ATOM     22  C   UNL     1      34.112 -16.138 -24.027  0.00  0.00    -0.000 C 
ATOM     23  C   UNL     1      33.552 -17.675 -25.802  0.00  0.00    -0.000 C 
ATOM     24  C   UNL     1      33.659 -16.372 -25.325  0.00  0.00    -0.000 C 
ENDBRANCH  14  15
ENDBRANCH   8  14
TORSDOF 3
ENDMDL
MODEL 5
REMARK VINA RESULT:     -10.9      6.141     11.381
REMARK  Name = 449087
REMARK  3 active torsions:
REMARK  status: ('A' for Active; 'I' for Inactive)
REMARK    1  A    between atoms: C_5  and  C_11
REMARK    2  A    between atoms: C_8  and  C_14
REMARK    3  A    between atoms: C_14  and  C_15
REMARK                            x       y       z     vdW  Elec       q    Type
REMARK                         _______ _______ _______ _____ _____    ______ ____
ROOT
ATOM      1  O   UNL     1      33.576 -22.668 -15.384  0.00  0.00    -0.274 OA
ATOM      2  N   UNL     1      36.421 -26.493 -14.325  0.00  0.00    -0.239 N 
ATOM      3  N   UNL     1      35.844 -26.323 -15.527  0.00  0.00    -0.166 NA
ATOM      4  N   UNL     1      34.421 -24.614 -16.394  0.00  0.00    -0.268 N 
ATOM      5  C   UNL     1      36.136 -25.501 -13.432  0.00  0.00    +0.045 C 
ATOM      6  C   UNL     1      35.319 -24.620 -14.096  0.00  0.00    +0.048 C 
ATOM      7  C   UNL     1      35.182 -25.185 -15.367  0.00  0.00    +0.152 C 
ATOM      8  C   UNL     1      33.690 -23.430 -16.338  0.00  0.00    +0.232 C 
ATOM      9  H   UNL     1      36.994 -27.262 -14.108  0.00  0.00    +0.174 HD
ATOM     10  H   UNL     1      34.400 -25.102 -17.249  0.00  0.00    +0.156 HD
ENDROOT
BRANCH   5  11
ATOM     11  C   UNL     1      36.631 -25.398 -11.996  0.00  0.00    +0.037 C 
ATOM     12  C   UNL     1      37.601 -24.302 -11.628  0.00  0.00    +0.006 C 
ATOM     13  C   UNL     1      36.182 -24.238 -11.143  0.00  0.00    +0.006 C 
ENDBRANCH   5  11
BRANCH   8  14
ATOM     14  C   UNL     1      33.000 -23.155 -17.672  0.00  0.00    +0.112 C 
BRANCH  14  15
ATOM     15  C   UNL     1      33.759 -22.233 -18.567  0.00  0.00    -0.013 C 
ATOM     16  C   UNL     1      33.777 -20.579 -20.350  0.00  0.00    -0.000 C 
ATOM     17  C   UNL     1      33.078 -21.452 -19.501  0.00  0.00    -0.004 C 
ATOM     18  C   UNL     1      35.186 -20.495 -20.250  0.00  0.00    -0.000 C 
ATOM     19  C   UNL     1      35.144 -22.151 -18.468  0.00  0.00    -0.004 C 
ATOM     20  C   UNL     1      35.855 -21.289 -19.303  0.00  0.00    -0.000 C 
ATOM     21  C   UNL     1      33.108 -19.786 -21.297  0.00  0.00    -0.000 C 
ATOM     22  C   UNL     1      35.885 -19.621 -21.099  0.00  0.00    -0.000 C 
ATOM     23  C   UNL     1      33.819 -18.923 -22.133  0.00  0.00    -0.000 C 
ATOM     24  C   UNL     1      35.204 -18.842 -22.034  0.00  0.00    -0.000 C 
ENDBRANCH  14  15
ENDBRANCH   8  14
TORSDOF 3
ENDMDL
MODEL 6
REMARK VINA RESULT:     -10.5      2.708      8.409
REMARK  Name = 449087
REMARK  3 active torsions:
REMARK  status: ('A' for Active; 'I' for Inactive)
REMARK    1  A    between atoms: C_5  and  C_11
REMARK    2  A    between atoms: C_8  and  C_14
REMARK    3  A    between atoms: C_14  and  C_15
REMARK                            x       y       z     vdW  Elec       q    Type
REMARK                         _______ _______ _______ _____ _____    ______ ____
ROOT
ATOM      1  O   UNL     1      36.546 -19.904 -20.665  0.00  0.00    -0.274 OA
ATOM      2  N   UNL     1      32.127 -21.542 -19.388  0.00  0.00    -0.239 N 
ATOM      3  N   UNL     1      32.308 -20.503 -20.220  0.00  0.00    -0.166 NA
ATOM      4  N   UNL     1      34.276 -19.442 -21.057  0.00  0.00    -0.268 N 
ATOM      5  C   UNL     1      33.290 -22.093 -18.934  0.00  0.00    +0.045 C 
ATOM      6  C   UNL     1      34.301 -21.365 -19.511  0.00  0.00    +0.048 C 
ATOM      7  C   UNL     1      33.629 -20.412 -20.281  0.00  0.00    +0.152 C 
ATOM      8  C   UNL     1      35.649 -19.257 -21.194  0.00  0.00    +0.232 C 
ATOM      9  H   UNL     1      31.238 -21.875 -19.128  0.00  0.00    +0.174 HD
ATOM     10  H   UNL     1      33.697 -18.825 -21.560  0.00  0.00    +0.156 HD
ENDROOT
BRANCH   5  11
ATOM     11  C   UNL     1      33.428 -23.275 -17.984  0.00  0.00    +0.037 C 
ATOM     12  C   UNL     1      33.959 -23.041 -16.591  0.00  0.00    +0.006 C 
ATOM     13  C   UNL     1      32.509 -23.374 -16.793  0.00  0.00    +0.006 C 
ENDBRANCH   5  11
BRANCH   8  14
ATOM     14  C   UNL     1      35.947 -18.090 -22.133  0.00  0.00    +0.112 C 
BRANCH  14  15
ATOM     15  C   UNL     1      35.048 -18.025 -23.322  0.00  0.00    -0.013 C 
ATOM     16  C   UNL     1      33.753 -16.713 -24.909  0.00  0.00    -0.000 C 
ATOM     17  C   UNL     1      34.600 -16.790 -23.791  0.00  0.00    -0.004 C 
ATOM     18  C   UNL     1      33.357 -17.904 -25.561  0.00  0.00    -0.000 C 
ATOM     19  C   UNL     1      34.658 -19.197 -23.964  0.00  0.00    -0.004 C 
ATOM     20  C   UNL     1      33.818 -19.138 -25.076  0.00  0.00    -0.000 C 
ATOM     21  C   UNL     1      33.292 -15.477 -25.394  0.00  0.00    -0.000 C 
ATOM     22  C   UNL     1      32.510 -17.826 -26.680  0.00  0.00    -0.000 C 
ATOM     23  C   UNL     1      32.451 -15.419 -26.506  0.00  0.00    -0.000 C 
ATOM     24  C   UNL     1      32.061 -16.591 -27.147  0.00  0.00    -0.000 C 
ENDBRANCH  14  15
ENDBRANCH   8  14
TORSDOF 3
ENDMDL
MODEL 7
REMARK VINA RESULT:     -10.5      4.420      7.469
REMARK  Name = 449087
REMARK  3 active torsions:
REMARK  status: ('A' for Active; 'I' for Inactive)
REMARK    1  A    between atoms: C_5  and  C_11
REMARK    2  A    between atoms: C_8  and  C_14
REMARK    3  A    between atoms: C_14  and  C_15
REMARK                            x       y       z     vdW  Elec       q    Type
REMARK                         _______ _______ _______ _____ _____    ______ ____
ROOT
ATOM      1  O   UNL     1      34.909 -22.533 -17.878  0.00  0.00    -0.274 OA
ATOM      2  N   UNL     1      32.788 -19.824 -21.343  0.00  0.00    -0.239 N 
ATOM      3  N   UNL     1      32.096 -20.638 -20.527  0.00  0.00    -0.166 NA
ATOM      4  N   UNL     1      32.775 -22.083 -18.753  0.00  0.00    -0.268 N 
ATOM      5  C   UNL     1      34.133 -19.828 -21.113  0.00  0.00    +0.045 C 
ATOM      6  C   UNL     1      34.335 -20.703 -20.074  0.00  0.00    +0.048 C 
ATOM      7  C   UNL     1      33.050 -21.159 -19.768  0.00  0.00    +0.152 C 
ATOM      8  C   UNL     1      33.693 -22.692 -17.900  0.00  0.00    +0.232 C 
ATOM      9  H   UNL     1      32.364 -19.277 -22.042  0.00  0.00    +0.174 HD
ATOM     10  H   UNL     1      31.830 -22.330 -18.628  0.00  0.00    +0.156 HD
ENDROOT
BRANCH   5  11
ATOM     11  C   UNL     1      35.187 -19.021 -21.860  0.00  0.00    +0.037 C 
ATOM     12  C   UNL     1      35.128 -18.948 -23.365  0.00  0.00    +0.006 C 
ATOM     13  C   UNL     1      34.784 -17.739 -22.545  0.00  0.00    +0.006 C 
ENDBRANCH   5  11
BRANCH   8  14
ATOM     14  C   UNL     1      32.988 -23.636 -16.930  0.00  0.00    +0.112 C 
BRANCH  14  15
ATOM     15  C   UNL     1      33.784 -23.954 -15.708  0.00  0.00    -0.013 C 
ATOM     16  C   UNL     1      35.804 -24.846 -14.690  0.00  0.00    -0.000 C 
ATOM     17  C   UNL     1      35.043 -24.541 -15.830  0.00  0.00    -0.004 C 
ATOM     18  C   UNL     1      35.281 -24.550 -13.409  0.00  0.00    -0.000 C 
ATOM     19  C   UNL     1      33.269 -23.663 -14.448  0.00  0.00    -0.004 C 
ATOM     20  C   UNL     1      34.012 -23.959 -13.306  0.00  0.00    -0.000 C 
ATOM     21  C   UNL     1      37.074 -25.439 -14.794  0.00  0.00    -0.000 C 
ATOM     22  C   UNL     1      36.043 -24.855 -12.269  0.00  0.00    -0.000 C 
ATOM     23  C   UNL     1      37.817 -25.735 -13.650  0.00  0.00    -0.000 C 
ATOM     24  C   UNL     1      37.302 -25.444 -12.390  0.00  0.00    -0.000 C 
ENDBRANCH  14  15
ENDBRANCH   8  14
TORSDOF 3
ENDMDL
MODEL 8
REMARK VINA RESULT:     -10.4      5.629      9.740
REMARK  Name = 449087
REMARK  3 active torsions:
REMARK  status: ('A' for Active; 'I' for Inactive)
REMARK    1  A    between atoms: C_5  and  C_11
REMARK    2  A    between atoms: C_8  and  C_14
REMARK    3  A    between atoms: C_14  and  C_15
REMARK                            x       y       z     vdW  Elec       q    Type
REMARK                         _______ _______ _______ _____ _____    ______ ____
ROOT
ATOM      1  O   UNL     1      32.259 -22.484 -18.650  0.00  0.00    -0.274 OA
ATOM      2  N   UNL     1      29.941 -23.982 -14.622  0.00  0.00    -0.239 N 
ATOM      3  N   UNL     1      31.280 -23.929 -14.716  0.00  0.00    -0.166 NA
ATOM      4  N   UNL     1      32.738 -23.263 -16.486  0.00  0.00    -0.268 N 
ATOM      5  C   UNL     1      29.293 -23.582 -15.754  0.00  0.00    +0.045 C 
ATOM      6  C   UNL     1      30.277 -23.241 -16.650  0.00  0.00    +0.048 C 
ATOM      7  C   UNL     1      31.462 -23.478 -15.949  0.00  0.00    +0.152 C 
ATOM      8  C   UNL     1      33.045 -22.795 -17.761  0.00  0.00    +0.232 C 
ATOM      9  H   UNL     1      29.470 -24.284 -13.812  0.00  0.00    +0.174 HD
ATOM     10  H   UNL     1      33.501 -23.464 -15.897  0.00  0.00    +0.156 HD
ENDROOT
BRANCH   5  11
ATOM     11  C   UNL     1      27.787 -23.525 -15.970  0.00  0.00    +0.037 C 
ATOM     12  C   UNL     1      27.050 -22.240 -15.680  0.00  0.00    +0.006 C 
ATOM     13  C   UNL     1      27.236 -22.691 -17.100  0.00  0.00    +0.006 C 
ENDBRANCH   5  11
BRANCH   8  14
ATOM     14  C   UNL     1      34.556 -22.699 -17.954  0.00  0.00    +0.112 C 
BRANCH  14  15
ATOM     15  C   UNL     1      34.975 -21.674 -18.955  0.00  0.00    -0.013 C 
ATOM     16  C   UNL     1      34.415 -20.173 -20.785  0.00  0.00    -0.000 C 
ATOM     17  C   UNL     1      34.037 -21.138 -19.837  0.00  0.00    -0.004 C 
ATOM     18  C   UNL     1      35.762 -19.745 -20.837  0.00  0.00    -0.000 C 
ATOM     19  C   UNL     1      36.300 -21.253 -19.006  0.00  0.00    -0.004 C 
ATOM     20  C   UNL     1      36.693 -20.295 -19.940  0.00  0.00    -0.000 C 
ATOM     21  C   UNL     1      33.484 -19.624 -21.683  0.00  0.00    -0.000 C 
ATOM     22  C   UNL     1      36.140 -18.779 -21.785  0.00  0.00    -0.000 C 
ATOM     23  C   UNL     1      33.877 -18.666 -22.618  0.00  0.00    -0.000 C 
ATOM     24  C   UNL     1      35.202 -18.245 -22.669  0.00  0.00    -0.000 C 
ENDBRANCH  14  15
ENDBRANCH   8  14
TORSDOF 3
ENDMDL
MODEL 9
REMARK VINA RESULT:     -10.4      1.948      2.735
REMARK  Name = 449087
REMARK  3 active torsions:
REMARK  status: ('A' for Active; 'I' for Inactive)
REMARK    1  A    between atoms: C_5  and  C_11
REMARK    2  A    between atoms: C_8  and  C_14
REMARK    3  A    between atoms: C_14  and  C_15
REMARK                            x       y       z     vdW  Elec       q    Type
REMARK                         _______ _______ _______ _____ _____    ______ ____
ROOT
ATOM      1  O   UNL     1      34.538 -15.887 -22.454  0.00  0.00    -0.274 OA
ATOM      2  N   UNL     1      32.838 -12.471 -25.501  0.00  0.00    -0.239 N 
ATOM      3  N   UNL     1      32.936 -13.768 -25.841  0.00  0.00    -0.166 NA
ATOM      4  N   UNL     1      33.702 -15.684 -24.641  0.00  0.00    -0.268 N 
ATOM      5  C   UNL     1      33.258 -12.200 -24.232  0.00  0.00    +0.045 C 
ATOM      6  C   UNL     1      33.656 -13.403 -23.703  0.00  0.00    +0.048 C 
ATOM      7  C   UNL     1      33.433 -14.314 -24.739  0.00  0.00    +0.152 C 
ATOM      8  C   UNL     1      34.220 -16.361 -23.540  0.00  0.00    +0.232 C 
ATOM      9  H   UNL     1      32.496 -11.780 -26.113  0.00  0.00    +0.174 HD
ATOM     10  H   UNL     1      33.502 -16.229 -25.436  0.00  0.00    +0.156 HD
ENDROOT
BRANCH   5  11
ATOM     11  C   UNL     1      33.275 -10.840 -23.549  0.00  0.00    +0.037 C 
ATOM     12  C   UNL     1      34.266  -9.798 -24.007  0.00  0.00    +0.006 C 
ATOM     13  C   UNL     1      32.807  -9.626 -24.313  0.00  0.00    +0.006 C 
ENDBRANCH   5  11
BRANCH   8  14
ATOM     14  C   UNL     1      34.362 -17.852 -23.837  0.00  0.00    +0.112 C 
BRANCH  14  15
ATOM     15  C   UNL     1      34.778 -18.668 -22.659  0.00  0.00    -0.013 C 
ATOM     16  C   UNL     1      34.221 -20.247 -20.895  0.00  0.00    -0.000 C 
ATOM     17  C   UNL     1      33.845 -19.473 -22.005  0.00  0.00    -0.004 C 
ATOM     18  C   UNL     1      35.560 -20.204 -20.442  0.00  0.00    -0.000 C 
ATOM     19  C   UNL     1      36.096 -18.626 -22.214  0.00  0.00    -0.004 C 
ATOM     20  C   UNL     1      36.486 -19.388 -21.113  0.00  0.00    -0.000 C 
ATOM     21  C   UNL     1      33.294 -21.063 -20.224  0.00  0.00    -0.000 C 
ATOM     22  C   UNL     1      35.936 -20.979 -19.332  0.00  0.00    -0.000 C 
ATOM     23  C   UNL     1      33.685 -21.825 -19.122  0.00  0.00    -0.000 C 
ATOM     24  C   UNL     1      35.003 -21.783 -18.677  0.00  0.00    -0.000 C 
ENDBRANCH  14  15
ENDBRANCH   8  14
TORSDOF 3
ENDMDL
