MODEL 1
REMARK VINA RESULT:     -12.4      0.000      0.000
REMARK  Name = 56842109
REMARK  7 active torsions:
REMARK  status: ('A' for Active; 'I' for Inactive)
REMARK    1  A    between atoms: C_1  and  C_24
REMARK    2  A    between atoms: C_3  and  C_9
REMARK    3  A    between atoms: C_5  and  O_22
REMARK    4  A    between atoms: N_8  and  C_11
REMARK    5  A    between atoms: C_11  and  C_12
REMARK    6  A    between atoms: C_15  and  C_21
REMARK    7  A    between atoms: C_24  and  C_29
REMARK                            x       y       z     vdW  Elec       q    Type
REMARK                         _______ _______ _______ _____ _____    ______ ____
ROOT
ATOM      1  C   UNL     1      35.188 -23.691 -14.230  0.00  0.00    -0.018 C 
ATOM      2  C   UNL     1      34.483 -23.340 -15.382  0.00  0.00    +0.003 C 
ATOM      3  C   UNL     1      33.092 -23.451 -15.409  0.00  0.00    +0.087 C 
ATOM      4  C   UNL     1      34.503 -24.152 -13.107  0.00  0.00    -0.001 C 
ATOM      5  C   UNL     1      32.407 -23.911 -14.285  0.00  0.00    +0.143 C 
ATOM      6  C   UNL     1      33.112 -24.262 -13.134  0.00  0.00    +0.037 C 
ENDROOT
BRANCH   3   9
ATOM      7  O   UNL     1      31.134 -23.036 -16.629  0.00  0.00    -0.270 OA
ATOM      8  N   UNL     1      33.149 -22.752 -17.740  0.00  0.00    -0.297 N 
ATOM      9  C   UNL     1      32.376 -23.077 -16.621  0.00  0.00    +0.249 C 
ATOM     10  H   UNL     1      34.129 -22.807 -17.662  0.00  0.00    +0.150 HD
BRANCH   8  11
ATOM     11  C   UNL     1      32.586 -22.340 -19.006  0.00  0.00    +0.117 C 
BRANCH  11  12
ATOM     12  C   UNL     1      33.487 -21.389 -19.739  0.00  0.00    -0.003 C 
ATOM     13  C   UNL     1      32.939 -20.408 -20.565  0.00  0.00    -0.003 C 
ATOM     14  C   UNL     1      34.871 -21.486 -19.594  0.00  0.00    -0.003 C 
ATOM     15  C   UNL     1      35.158 -19.620 -21.101  0.00  0.00    +0.071 C 
ATOM     16  C   UNL     1      33.774 -19.523 -21.247  0.00  0.00    +0.004 C 
ATOM     17  C   UNL     1      35.706 -20.602 -20.276  0.00  0.00    +0.004 C 
BRANCH  15  21
ATOM     18  F   UNL     1      37.373 -18.884 -21.556  0.00  0.00    -0.166 F 
ATOM     19  F   UNL     1      35.941 -18.748 -23.187  0.00  0.00    -0.166 F 
ATOM     20  F   UNL     1      35.821 -17.360 -21.524  0.00  0.00    -0.166 F 
ATOM     21  C   UNL     1      36.052 -18.672 -21.827  0.00  0.00    +0.419 C 
ENDBRANCH  15  21
ENDBRANCH  11  12
ENDBRANCH   8  11
ENDBRANCH   3   9
BRANCH   5  22
ATOM     22  O   UNL     1      31.049 -24.023 -14.292  0.00  0.00    -0.471 OA
ATOM     23  C   UNL     1      30.448 -24.677 -13.175  0.00  0.00    +0.252 C 
ENDBRANCH   5  22
BRANCH   1  24
ATOM     24  C   UNL     1      36.691 -23.571 -14.201  0.00  0.00    +0.080 C 
BRANCH  24  29
ATOM     25  O   UNL     1      38.769 -24.670 -13.646  0.00  0.00    -0.428 OA
ATOM     26  O   UNL     1      36.291 -26.326 -15.465  0.00  0.00    -0.271 OA
ATOM     27  O   UNL     1      40.692 -25.467 -14.593  0.00  0.00    -0.226 OA
ATOM     28  N   UNL     1      38.599 -26.151 -15.293  0.00  0.00    -0.218 N 
ATOM     29  C   UNL     1      37.360 -24.880 -13.835  0.00  0.00    +0.250 C 
ATOM     30  C   UNL     1      37.307 -25.875 -14.960  0.00  0.00    +0.271 C 
ATOM     31  C   UNL     1      39.471 -25.443 -14.529  0.00  0.00    +0.408 C 
ATOM     32  H   UNL     1      38.868 -26.784 -15.997  0.00  0.00    +0.161 HD
ENDBRANCH  24  29
ENDBRANCH   1  24
TORSDOF 7
ENDMDL
MODEL 2
REMARK VINA RESULT:     -12.1      2.992      4.626
REMARK  Name = 56842109
REMARK  7 active torsions:
REMARK  status: ('A' for Active; 'I' for Inactive)
REMARK    1  A    between atoms: C_1  and  C_24
REMARK    2  A    between atoms: C_3  and  C_9
REMARK    3  A    between atoms: C_5  and  O_22
REMARK    4  A    between atoms: N_8  and  C_11
REMARK    5  A    between atoms: C_11  and  C_12
REMARK    6  A    between atoms: C_15  and  C_21
REMARK    7  A    between atoms: C_24  and  C_29
REMARK                            x       y       z     vdW  Elec       q    Type
REMARK                         _______ _______ _______ _____ _____    ______ ____
ROOT
ATOM      1  C   UNL     1      35.079 -22.769 -16.474  0.00  0.00    -0.018 C 
ATOM      2  C   UNL     1      35.838 -22.132 -17.456  0.00  0.00    +0.003 C 
ATOM      3  C   UNL     1      35.258 -21.806 -18.683  0.00  0.00    +0.087 C 
ATOM      4  C   UNL     1      33.741 -23.078 -16.718  0.00  0.00    -0.001 C 
ATOM      5  C   UNL     1      33.921 -22.116 -18.927  0.00  0.00    +0.143 C 
ATOM      6  C   UNL     1      33.162 -22.752 -17.945  0.00  0.00    +0.037 C 
ENDROOT
BRANCH   3   9
ATOM      7  O   UNL     1      37.002 -21.743 -20.249  0.00  0.00    -0.270 OA
ATOM      8  N   UNL     1      35.726 -19.821 -20.013  0.00  0.00    -0.297 N 
ATOM      9  C   UNL     1      36.068 -21.140 -19.694  0.00  0.00    +0.249 C 
ATOM     10  H   UNL     1      34.974 -19.406 -19.532  0.00  0.00    +0.150 HD
BRANCH   8  11
ATOM     11  C   UNL     1      36.418 -19.037 -21.010  0.00  0.00    +0.117 C 
BRANCH  11  12
ATOM     12  C   UNL     1      35.522 -18.665 -22.154  0.00  0.00    -0.003 C 
ATOM     13  C   UNL     1      35.151 -17.334 -22.345  0.00  0.00    -0.003 C 
ATOM     14  C   UNL     1      35.059 -19.649 -23.028  0.00  0.00    -0.003 C 
ATOM     15  C   UNL     1      33.857 -17.971 -24.282  0.00  0.00    +0.071 C 
ATOM     16  C   UNL     1      34.318 -16.986 -23.409  0.00  0.00    +0.004 C 
ATOM     17  C   UNL     1      34.226 -19.302 -24.091  0.00  0.00    +0.004 C 
BRANCH  15  21
ATOM     18  F   UNL     1      32.471 -16.334 -25.308  0.00  0.00    -0.166 F 
ATOM     19  F   UNL     1      33.591 -17.641 -26.637  0.00  0.00    -0.166 F 
ATOM     20  F   UNL     1      31.878 -18.412 -25.552  0.00  0.00    -0.166 F 
ATOM     21  C   UNL     1      32.968 -17.600 -25.421  0.00  0.00    +0.419 C 
ENDBRANCH  15  21
ENDBRANCH  11  12
ENDBRANCH   8  11
ENDBRANCH   3   9
BRANCH   5  22
ATOM     22  O   UNL     1      33.336 -21.802 -20.118  0.00  0.00    -0.471 OA
ATOM     23  C   UNL     1      32.478 -20.663 -20.137  0.00  0.00    +0.252 C 
ENDBRANCH   5  22
BRANCH   1  24
ATOM     24  C   UNL     1      35.706 -23.120 -15.148  0.00  0.00    +0.080 C 
BRANCH  24  29
ATOM     25  O   UNL     1      35.006 -24.089 -13.049  0.00  0.00    -0.428 OA
ATOM     26  O   UNL     1      35.986 -26.110 -15.722  0.00  0.00    -0.271 OA
ATOM     27  O   UNL     1      35.807 -25.238 -11.242  0.00  0.00    -0.226 OA
ATOM     28  N   UNL     1      36.074 -26.004 -13.405  0.00  0.00    -0.218 N 
ATOM     29  C   UNL     1      34.999 -24.278 -14.474  0.00  0.00    +0.250 C 
ATOM     30  C   UNL     1      35.738 -25.573 -14.654  0.00  0.00    +0.271 C 
ATOM     31  C   UNL     1      35.652 -25.135 -12.450  0.00  0.00    +0.408 C 
ATOM     32  H   UNL     1      36.559 -26.840 -13.217  0.00  0.00    +0.161 HD
ENDBRANCH  24  29
ENDBRANCH   1  24
TORSDOF 7
ENDMDL
MODEL 3
REMARK VINA RESULT:     -12.1      5.515      9.536
REMARK  Name = 56842109
REMARK  7 active torsions:
REMARK  status: ('A' for Active; 'I' for Inactive)
REMARK    1  A    between atoms: C_1  and  C_24
REMARK    2  A    between atoms: C_3  and  C_9
REMARK    3  A    between atoms: C_5  and  O_22
REMARK    4  A    between atoms: N_8  and  C_11
REMARK    5  A    between atoms: C_11  and  C_12
REMARK    6  A    between atoms: C_15  and  C_21
REMARK    7  A    between atoms: C_24  and  C_29
REMARK                            x       y       z     vdW  Elec       q    Type
REMARK                         _______ _______ _______ _____ _____    ______ ____
ROOT
ATOM      1  C   UNL     1      34.556 -19.824 -21.111  0.00  0.00    -0.018 C 
ATOM      2  C   UNL     1      33.876 -20.849 -20.453  0.00  0.00    +0.003 C 
ATOM      3  C   UNL     1      34.536 -21.625 -19.500  0.00  0.00    +0.087 C 
ATOM      4  C   UNL     1      35.896 -19.575 -20.816  0.00  0.00    -0.001 C 
ATOM      5  C   UNL     1      35.876 -21.376 -19.204  0.00  0.00    +0.143 C 
ATOM      6  C   UNL     1      36.557 -20.351 -19.863  0.00  0.00    +0.037 C 
ENDROOT
BRANCH   3   9
ATOM      7  O   UNL     1      33.418 -23.685 -19.455  0.00  0.00    -0.270 OA
ATOM      8  N   UNL     1      33.594 -22.536 -17.448  0.00  0.00    -0.297 N 
ATOM      9  C   UNL     1      33.807 -22.688 -18.823  0.00  0.00    +0.249 C 
ATOM     10  H   UNL     1      33.929 -21.720 -17.012  0.00  0.00    +0.150 HD
BRANCH   8  11
ATOM     11  C   UNL     1      32.909 -23.514 -16.635  0.00  0.00    +0.117 C 
BRANCH  11  12
ATOM     12  C   UNL     1      33.696 -23.878 -15.410  0.00  0.00    -0.003 C 
ATOM     13  C   UNL     1      35.046 -24.211 -15.523  0.00  0.00    -0.003 C 
ATOM     14  C   UNL     1      33.080 -23.885 -14.159  0.00  0.00    -0.003 C 
ATOM     15  C   UNL     1      35.163 -24.555 -13.136  0.00  0.00    +0.071 C 
ATOM     16  C   UNL     1      35.780 -24.550 -14.387  0.00  0.00    +0.004 C 
ATOM     17  C   UNL     1      33.812 -24.223 -13.023  0.00  0.00    +0.004 C 
BRANCH  15  21
ATOM     18  F   UNL     1      35.179 -24.950 -10.791  0.00  0.00    -0.166 F 
ATOM     19  F   UNL     1      36.544 -26.141 -11.995  0.00  0.00    -0.166 F 
ATOM     20  F   UNL     1      36.962 -24.042 -11.645  0.00  0.00    -0.166 F 
ATOM     21  C   UNL     1      35.947 -24.914 -11.919  0.00  0.00    +0.419 C 
ENDBRANCH  15  21
ENDBRANCH  11  12
ENDBRANCH   8  11
ENDBRANCH   3   9
BRANCH   5  22
ATOM     22  O   UNL     1      36.538 -22.121 -18.274  0.00  0.00    -0.471 OA
ATOM     23  C   UNL     1      36.858 -21.480 -17.041  0.00  0.00    +0.252 C 
ENDBRANCH   5  22
BRANCH   1  24
ATOM     24  C   UNL     1      33.841 -18.985 -22.141  0.00  0.00    +0.080 C 
BRANCH  24  29
ATOM     25  O   UNL     1      35.011 -16.890 -22.419  0.00  0.00    -0.428 OA
ATOM     26  O   UNL     1      33.890 -18.704 -25.185  0.00  0.00    -0.271 OA
ATOM     27  O   UNL     1      34.693 -14.727 -23.086  0.00  0.00    -0.226 OA
ATOM     28  N   UNL     1      34.178 -16.522 -24.445  0.00  0.00    -0.218 N 
ATOM     29  C   UNL     1      34.806 -18.191 -22.996  0.00  0.00    +0.250 C 
ATOM     30  C   UNL     1      34.236 -17.881 -24.352  0.00  0.00    +0.271 C 
ATOM     31  C   UNL     1      34.627 -15.927 -23.311  0.00  0.00    +0.408 C 
ATOM     32  H   UNL     1      33.853 -16.034 -25.236  0.00  0.00    +0.161 HD
ENDBRANCH  24  29
ENDBRANCH   1  24
TORSDOF 7
ENDMDL
MODEL 4
REMARK VINA RESULT:     -11.9      2.286      5.752
REMARK  Name = 56842109
REMARK  7 active torsions:
REMARK  status: ('A' for Active; 'I' for Inactive)
REMARK    1  A    between atoms: C_1  and  C_24
REMARK    2  A    between atoms: C_3  and  C_9
REMARK    3  A    between atoms: C_5  and  O_22
REMARK    4  A    between atoms: N_8  and  C_11
REMARK    5  A    between atoms: C_11  and  C_12
REMARK    6  A    between atoms: C_15  and  C_21
REMARK    7  A    between atoms: C_24  and  C_29
REMARK                            x       y       z     vdW  Elec       q    Type
REMARK                         _______ _______ _______ _____ _____    ______ ____
ROOT
ATOM      1  C   UNL     1      31.882 -23.252 -14.662  0.00  0.00    -0.018 C 
ATOM      2  C   UNL     1      32.999 -23.042 -15.471  0.00  0.00    +0.003 C 
ATOM      3  C   UNL     1      34.253 -23.494 -15.059  0.00  0.00    +0.087 C 
ATOM      4  C   UNL     1      32.019 -23.914 -13.442  0.00  0.00    -0.001 C 
ATOM      5  C   UNL     1      34.390 -24.155 -13.839  0.00  0.00    +0.143 C 
ATOM      6  C   UNL     1      33.273 -24.366 -13.030  0.00  0.00    +0.037 C 
ENDROOT
BRANCH   3   9
ATOM      7  O   UNL     1      36.462 -23.894 -15.735  0.00  0.00    -0.270 OA
ATOM      8  N   UNL     1      35.251 -22.337 -16.955  0.00  0.00    -0.297 N 
ATOM      9  C   UNL     1      35.406 -23.265 -15.919  0.00  0.00    +0.249 C 
ATOM     10  H   UNL     1      34.385 -21.876 -17.041  0.00  0.00    +0.150 HD
BRANCH   8  11
ATOM     11  C   UNL     1      36.293 -22.020 -17.904  0.00  0.00    +0.117 C 
BRANCH  11  12
ATOM     12  C   UNL     1      35.771 -21.230 -19.068  0.00  0.00    -0.003 C 
ATOM     13  C   UNL     1      34.424 -21.315 -19.421  0.00  0.00    -0.003 C 
ATOM     14  C   UNL     1      36.632 -20.412 -19.799  0.00  0.00    -0.003 C 
ATOM     15  C   UNL     1      34.799 -19.764 -21.233  0.00  0.00    +0.071 C 
ATOM     16  C   UNL     1      33.937 -20.582 -20.503  0.00  0.00    +0.004 C 
ATOM     17  C   UNL     1      36.146 -19.679 -20.881  0.00  0.00    +0.004 C 
BRANCH  15  21
ATOM     18  F   UNL     1      32.978 -19.271 -22.681  0.00  0.00    -0.166 F 
ATOM     19  F   UNL     1      34.312 -17.625 -22.190  0.00  0.00    -0.166 F 
ATOM     20  F   UNL     1      34.971 -19.184 -23.547  0.00  0.00    -0.166 F 
ATOM     21  C   UNL     1      34.279 -18.977 -22.388  0.00  0.00    +0.419 C 
ENDBRANCH  15  21
ENDBRANCH  11  12
ENDBRANCH   8  11
ENDBRANCH   3   9
BRANCH   5  22
ATOM     22  O   UNL     1      35.607 -24.607 -13.421  0.00  0.00    -0.471 OA
ATOM     23  C   UNL     1      35.758 -24.861 -12.026  0.00  0.00    +0.252 C 
ENDBRANCH   5  22
BRANCH   1  24
ATOM     24  C   UNL     1      30.526 -22.765 -15.108  0.00  0.00    +0.080 C 
BRANCH  24  29
ATOM     25  O   UNL     1      29.222 -22.683 -17.139  0.00  0.00    -0.428 OA
ATOM     26  O   UNL     1      29.259 -25.547 -15.142  0.00  0.00    -0.271 OA
ATOM     27  O   UNL     1      27.063 -22.632 -17.891  0.00  0.00    -0.226 OA
ATOM     28  N   UNL     1      27.843 -24.302 -16.498  0.00  0.00    -0.218 N 
ATOM     29  C   UNL     1      30.003 -23.545 -16.296  0.00  0.00    +0.250 C 
ATOM     30  C   UNL     1      29.023 -24.608 -15.886  0.00  0.00    +0.271 C 
ATOM     31  C   UNL     1      27.947 -23.166 -17.235  0.00  0.00    +0.408 C 
ATOM     32  H   UNL     1      27.021 -24.836 -16.416  0.00  0.00    +0.161 HD
ENDBRANCH  24  29
ENDBRANCH   1  24
TORSDOF 7
ENDMDL
MODEL 5
REMARK VINA RESULT:     -11.5      7.417     12.263
REMARK  Name = 56842109
REMARK  7 active torsions:
REMARK  status: ('A' for Active; 'I' for Inactive)
REMARK    1  A    between atoms: C_1  and  C_24
REMARK    2  A    between atoms: C_3  and  C_9
REMARK    3  A    between atoms: C_5  and  O_22
REMARK    4  A    between atoms: N_8  and  C_11
REMARK    5  A    between atoms: C_11  and  C_12
REMARK    6  A    between atoms: C_15  and  C_21
REMARK    7  A    between atoms: C_24  and  C_29
REMARK                            x       y       z     vdW  Elec       q    Type
REMARK                         _______ _______ _______ _____ _____    ______ ____
ROOT
ATOM      1  C   UNL     1      33.246 -14.525 -25.179  0.00  0.00    -0.018 C 
ATOM      2  C   UNL     1      33.974 -14.968 -24.075  0.00  0.00    +0.003 C 
ATOM      3  C   UNL     1      34.164 -16.335 -23.869  0.00  0.00    +0.087 C 
ATOM      4  C   UNL     1      32.709 -15.447 -26.077  0.00  0.00    -0.001 C 
ATOM      5  C   UNL     1      33.627 -17.258 -24.766  0.00  0.00    +0.143 C 
ATOM      6  C   UNL     1      32.899 -16.814 -25.870  0.00  0.00    +0.037 C 
ENDROOT
BRANCH   3   9
ATOM      7  O   UNL     1      34.878 -16.141 -21.644  0.00  0.00    -0.270 OA
ATOM      8  N   UNL     1      35.686 -17.944 -22.858  0.00  0.00    -0.297 N 
ATOM      9  C   UNL     1      34.929 -16.777 -22.710  0.00  0.00    +0.249 C 
ATOM     10  H   UNL     1      35.679 -18.396 -23.732  0.00  0.00    +0.150 HD
BRANCH   8  11
ATOM     11  C   UNL     1      36.478 -18.520 -21.795  0.00  0.00    +0.117 C 
BRANCH  11  12
ATOM     12  C   UNL     1      35.703 -19.532 -21.003  0.00  0.00    -0.003 C 
ATOM     13  C   UNL     1      34.312 -19.573 -21.094  0.00  0.00    -0.003 C 
ATOM     14  C   UNL     1      36.374 -20.432 -20.174  0.00  0.00    -0.003 C 
ATOM     15  C   UNL     1      34.262 -21.413 -19.531  0.00  0.00    +0.071 C 
ATOM     16  C   UNL     1      33.590 -20.513 -20.359  0.00  0.00    +0.004 C 
ATOM     17  C   UNL     1      35.653 -21.372 -19.438  0.00  0.00    +0.004 C 
BRANCH  15  21
ATOM     18  F   UNL     1      33.341 -23.602 -19.412  0.00  0.00    -0.166 F 
ATOM     19  F   UNL     1      34.072 -22.744 -17.552  0.00  0.00    -0.166 F 
ATOM     20  F   UNL     1      32.226 -22.015 -18.427  0.00  0.00    -0.166 F 
ATOM     21  C   UNL     1      33.491 -22.420 -18.746  0.00  0.00    +0.419 C 
ENDBRANCH  15  21
ENDBRANCH  11  12
ENDBRANCH   8  11
ENDBRANCH   3   9
BRANCH   5  22
ATOM     22  O   UNL     1      33.805 -18.596 -24.583  0.00  0.00    -0.471 OA
ATOM     23  C   UNL     1      33.844 -19.410 -25.754  0.00  0.00    +0.252 C 
ENDBRANCH   5  22
BRANCH   1  24
ATOM     24  C   UNL     1      33.041 -13.047 -25.403  0.00  0.00    +0.080 C 
BRANCH  24  29
ATOM     25  O   UNL     1      32.635 -11.790 -23.381  0.00  0.00    -0.428 OA
ATOM     26  O   UNL     1      35.109 -10.807 -25.641  0.00  0.00    -0.271 OA
ATOM     27  O   UNL     1      31.817  -9.787 -22.642  0.00  0.00    -0.226 OA
ATOM     28  N   UNL     1      33.534  -9.923 -24.182  0.00  0.00    -0.218 N 
ATOM     29  C   UNL     1      33.657 -12.214 -24.298  0.00  0.00    +0.250 C 
ATOM     30  C   UNL     1      34.219 -10.919 -24.813  0.00  0.00    +0.271 C 
ATOM     31  C   UNL     1      32.593 -10.424 -23.340  0.00  0.00    +0.408 C 
ATOM     32  H   UNL     1      33.699  -8.962 -24.320  0.00  0.00    +0.161 HD
ENDBRANCH  24  29
ENDBRANCH   1  24
TORSDOF 7
ENDMDL
MODEL 6
REMARK VINA RESULT:     -11.5      7.476     11.337
REMARK  Name = 56842109
REMARK  7 active torsions:
REMARK  status: ('A' for Active; 'I' for Inactive)
REMARK    1  A    between atoms: C_1  and  C_24
REMARK    2  A    between atoms: C_3  and  C_9
REMARK    3  A    between atoms: C_5  and  O_22
REMARK    4  A    between atoms: N_8  and  C_11
REMARK    5  A    between atoms: C_11  and  C_12
REMARK    6  A    between atoms: C_15  and  C_21
REMARK    7  A    between atoms: C_24  and  C_29
REMARK                            x       y       z     vdW  Elec       q    Type
REMARK                         _______ _______ _______ _____ _____    ______ ____
ROOT
ATOM      1  C   UNL     1      34.450 -17.560 -23.594  0.00  0.00    -0.018 C 
ATOM      2  C   UNL     1      34.169 -16.223 -23.876  0.00  0.00    +0.003 C 
ATOM      3  C   UNL     1      33.618 -15.872 -25.109  0.00  0.00    +0.087 C 
ATOM      4  C   UNL     1      34.180 -18.545 -24.543  0.00  0.00    -0.001 C 
ATOM      5  C   UNL     1      33.348 -16.857 -26.058  0.00  0.00    +0.143 C 
ATOM      6  C   UNL     1      33.629 -18.194 -25.776  0.00  0.00    +0.037 C 
ENDROOT
BRANCH   3   9
ATOM      7  O   UNL     1      33.347 -14.041 -26.548  0.00  0.00    -0.270 OA
ATOM      8  N   UNL     1      33.018 -13.661 -24.284  0.00  0.00    -0.297 N 
ATOM      9  C   UNL     1      33.330 -14.470 -25.382  0.00  0.00    +0.249 C 
ATOM     10  H   UNL     1      33.025 -14.069 -23.388  0.00  0.00    +0.150 HD
BRANCH   8  11
ATOM     11  C   UNL     1      32.688 -12.259 -24.396  0.00  0.00    +0.117 C 
BRANCH  11  12
ATOM     12  C   UNL     1      32.267 -11.674 -23.080  0.00  0.00    -0.003 C 
ATOM     13  C   UNL     1      31.931 -12.515 -22.019  0.00  0.00    -0.003 C 
ATOM     14  C   UNL     1      32.212 -10.290 -22.916  0.00  0.00    -0.003 C 
ATOM     15  C   UNL     1      31.486 -10.589 -20.631  0.00  0.00    +0.071 C 
ATOM     16  C   UNL     1      31.540 -11.973 -20.794  0.00  0.00    +0.004 C 
ATOM     17  C   UNL     1      31.821  -9.748 -21.692  0.00  0.00    +0.004 C 
BRANCH  15  21
ATOM     18  F   UNL     1      31.624 -10.662 -18.259  0.00  0.00    -0.166 F 
ATOM     19  F   UNL     1      31.422  -8.697 -19.168  0.00  0.00    -0.166 F 
ATOM     20  F   UNL     1      29.722 -10.043 -19.111  0.00  0.00    -0.166 F 
ATOM     21  C   UNL     1      31.070 -10.009 -19.322  0.00  0.00    +0.419 C 
ENDBRANCH  15  21
ENDBRANCH  11  12
ENDBRANCH   8  11
ENDBRANCH   3   9
BRANCH   5  22
ATOM     22  O   UNL     1      32.806 -16.533 -27.267  0.00  0.00    -0.471 OA
ATOM     23  C   UNL     1      31.425 -16.834 -27.458  0.00  0.00    +0.252 C 
ENDBRANCH   5  22
BRANCH   1  24
ATOM     24  C   UNL     1      35.046 -17.940 -22.261  0.00  0.00    +0.080 C 
BRANCH  24  29
ATOM     25  O   UNL     1      33.509 -19.748 -21.812  0.00  0.00    -0.428 OA
ATOM     26  O   UNL     1      36.672 -19.670 -20.334  0.00  0.00    -0.271 OA
ATOM     27  O   UNL     1      32.210 -20.635 -20.152  0.00  0.00    -0.226 OA
ATOM     28  N   UNL     1      34.481 -20.297 -19.891  0.00  0.00    -0.218 N 
ATOM     29  C   UNL     1      34.899 -19.419 -21.973  0.00  0.00    +0.250 C 
ATOM     30  C   UNL     1      35.499 -19.800 -20.649  0.00  0.00    +0.271 C 
ATOM     31  C   UNL     1      33.301 -20.267 -20.564  0.00  0.00    +0.408 C 
ATOM     32  H   UNL     1      34.586 -20.636 -18.973  0.00  0.00    +0.161 HD
ENDBRANCH  24  29
ENDBRANCH   1  24
TORSDOF 7
ENDMDL
MODEL 7
REMARK VINA RESULT:     -11.3      7.905     11.852
REMARK  Name = 56842109
REMARK  7 active torsions:
REMARK  status: ('A' for Active; 'I' for Inactive)
REMARK    1  A    between atoms: C_1  and  C_24
REMARK    2  A    between atoms: C_3  and  C_9
REMARK    3  A    between atoms: C_5  and  O_22
REMARK    4  A    between atoms: N_8  and  C_11
REMARK    5  A    between atoms: C_11  and  C_12
REMARK    6  A    between atoms: C_15  and  C_21
REMARK    7  A    between atoms: C_24  and  C_29
REMARK                            x       y       z     vdW  Elec       q    Type
REMARK                         _______ _______ _______ _____ _____    ______ ____
ROOT
ATOM      1  C   UNL     1      33.308 -18.070 -25.239  0.00  0.00    -0.018 C 
ATOM      2  C   UNL     1      33.590 -16.704 -25.248  0.00  0.00    +0.003 C 
ATOM      3  C   UNL     1      32.910 -15.857 -26.124  0.00  0.00    +0.087 C 
ATOM      4  C   UNL     1      32.346 -18.588 -26.105  0.00  0.00    -0.001 C 
ATOM      5  C   UNL     1      31.947 -16.375 -26.989  0.00  0.00    +0.143 C 
ATOM      6  C   UNL     1      31.665 -17.742 -26.980  0.00  0.00    +0.037 C 
ENDROOT
BRANCH   3   9
ATOM      7  O   UNL     1      33.680 -13.884 -27.130  0.00  0.00    -0.270 OA
ATOM      8  N   UNL     1      32.949 -13.733 -24.934  0.00  0.00    -0.297 N 
ATOM      9  C   UNL     1      33.218 -14.433 -26.115  0.00  0.00    +0.249 C 
ATOM     10  H   UNL     1      32.584 -14.233 -24.169  0.00  0.00    +0.150 HD
BRANCH   8  11
ATOM     11  C   UNL     1      33.179 -12.315 -24.779  0.00  0.00    +0.117 C 
BRANCH  11  12
ATOM     12  C   UNL     1      32.632 -11.796 -23.481  0.00  0.00    -0.003 C 
ATOM     13  C   UNL     1      32.284 -12.687 -22.465  0.00  0.00    -0.003 C 
ATOM     14  C   UNL     1      32.472 -10.424 -23.289  0.00  0.00    -0.003 C 
ATOM     15  C   UNL     1      31.616 -10.834 -21.068  0.00  0.00    +0.071 C 
ATOM     16  C   UNL     1      31.776 -12.207 -21.258  0.00  0.00    +0.004 C 
ATOM     17  C   UNL     1      31.963  -9.943 -22.083  0.00  0.00    +0.004 C 
BRANCH  15  21
ATOM     18  F   UNL     1      31.486 -11.057 -18.704  0.00  0.00    -0.166 F 
ATOM     19  F   UNL     1      31.447  -9.034 -19.501  0.00  0.00    -0.166 F 
ATOM     20  F   UNL     1      29.711 -10.315 -19.717  0.00  0.00    -0.166 F 
ATOM     21  C   UNL     1      31.075 -10.319 -19.777  0.00  0.00    +0.419 C 
ENDBRANCH  15  21
ENDBRANCH  11  12
ENDBRANCH   8  11
ENDBRANCH   3   9
BRANCH   5  22
ATOM     22  O   UNL     1      31.270 -15.564 -27.850  0.00  0.00    -0.471 OA
ATOM     23  C   UNL     1      29.850 -15.530 -27.724  0.00  0.00    +0.252 C 
ENDBRANCH   5  22
BRANCH   1  24
ATOM     24  C   UNL     1      34.043 -18.985 -24.292  0.00  0.00    +0.080 C 
BRANCH  24  29
ATOM     25  O   UNL     1      35.604 -18.242 -22.605  0.00  0.00    -0.428 OA
ATOM     26  O   UNL     1      32.538 -19.659 -21.717  0.00  0.00    -0.271 OA
ATOM     27  O   UNL     1      37.002 -19.029 -20.976  0.00  0.00    -0.226 OA
ATOM     28  N   UNL     1      34.752 -19.552 -21.026  0.00  0.00    -0.218 N 
ATOM     29  C   UNL     1      34.207 -18.369 -22.918  0.00  0.00    +0.250 C 
ATOM     30  C   UNL     1      33.689 -19.267 -21.830  0.00  0.00    +0.271 C 
ATOM     31  C   UNL     1      35.888 -18.958 -21.475  0.00  0.00    +0.408 C 
ATOM     32  H   UNL     1      34.703 -20.116 -20.221  0.00  0.00    +0.161 HD
ENDBRANCH  24  29
ENDBRANCH   1  24
TORSDOF 7
ENDMDL
MODEL 8
REMARK VINA RESULT:     -11.2      1.815      2.425
REMARK  Name = 56842109
REMARK  7 active torsions:
REMARK  status: ('A' for Active; 'I' for Inactive)
REMARK    1  A    between atoms: C_1  and  C_24
REMARK    2  A    between atoms: C_3  and  C_9
REMARK    3  A    between atoms: C_5  and  O_22
REMARK    4  A    between atoms: N_8  and  C_11
REMARK    5  A    between atoms: C_11  and  C_12
REMARK    6  A    between atoms: C_15  and  C_21
REMARK    7  A    between atoms: C_24  and  C_29
REMARK                            x       y       z     vdW  Elec       q    Type
REMARK                         _______ _______ _______ _____ _____    ______ ____
ROOT
ATOM      1  C   UNL     1      35.038 -23.641 -14.729  0.00  0.00    -0.018 C 
ATOM      2  C   UNL     1      34.726 -23.431 -16.073  0.00  0.00    +0.003 C 
ATOM      3  C   UNL     1      33.395 -23.452 -16.491  0.00  0.00    +0.087 C 
ATOM      4  C   UNL     1      34.020 -23.873 -13.805  0.00  0.00    -0.001 C 
ATOM      5  C   UNL     1      32.377 -23.683 -15.567  0.00  0.00    +0.143 C 
ATOM      6  C   UNL     1      32.689 -23.894 -14.224  0.00  0.00    +0.037 C 
ENDROOT
BRANCH   3   9
ATOM      7  O   UNL     1      33.382 -24.086 -18.748  0.00  0.00    -0.270 OA
ATOM      8  N   UNL     1      32.448 -22.029 -18.225  0.00  0.00    -0.297 N 
ATOM      9  C   UNL     1      33.092 -23.228 -17.898  0.00  0.00    +0.249 C 
ATOM     10  H   UNL     1      32.249 -21.394 -17.499  0.00  0.00    +0.150 HD
BRANCH   8  11
ATOM     11  C   UNL     1      32.062 -21.673 -19.570  0.00  0.00    +0.117 C 
BRANCH  11  12
ATOM     12  C   UNL     1      33.114 -20.855 -20.260  0.00  0.00    -0.003 C 
ATOM     13  C   UNL     1      32.750 -19.942 -21.250  0.00  0.00    -0.003 C 
ATOM     14  C   UNL     1      34.456 -21.007 -19.912  0.00  0.00    -0.003 C 
ATOM     15  C   UNL     1      35.068 -19.333 -21.542  0.00  0.00    +0.071 C 
ATOM     16  C   UNL     1      33.727 -19.180 -21.891  0.00  0.00    +0.004 C 
ATOM     17  C   UNL     1      35.433 -20.246 -20.553  0.00  0.00    +0.004 C 
BRANCH  15  21
ATOM     18  F   UNL     1      37.362 -18.732 -21.718  0.00  0.00    -0.166 F 
ATOM     19  F   UNL     1      36.215 -18.768 -23.565  0.00  0.00    -0.166 F 
ATOM     20  F   UNL     1      35.906 -17.170 -22.131  0.00  0.00    -0.166 F 
ATOM     21  C   UNL     1      36.113 -18.517 -22.226  0.00  0.00    +0.419 C 
ENDBRANCH  15  21
ENDBRANCH  11  12
ENDBRANCH   8  11
ENDBRANCH   3   9
BRANCH   5  22
ATOM     22  O   UNL     1      31.071 -23.705 -15.956  0.00  0.00    -0.471 OA
ATOM     23  C   UNL     1      30.091 -23.830 -14.927  0.00  0.00    +0.252 C 
ENDBRANCH   5  22
BRANCH   1  24
ATOM     24  C   UNL     1      36.477 -23.618 -14.277  0.00  0.00    +0.080 C 
BRANCH  24  29
ATOM     25  O   UNL     1      35.587 -25.042 -12.542  0.00  0.00    -0.428 OA
ATOM     26  O   UNL     1      38.872 -23.866 -12.393  0.00  0.00    -0.271 OA
ATOM     27  O   UNL     1      34.955 -25.021 -10.345  0.00  0.00    -0.226 OA
ATOM     28  N   UNL     1      37.065 -24.371 -11.025  0.00  0.00    -0.218 N 
ATOM     29  C   UNL     1      36.778 -24.715 -13.278  0.00  0.00    +0.250 C 
ATOM     30  C   UNL     1      37.731 -24.261 -12.209  0.00  0.00    +0.271 C 
ATOM     31  C   UNL     1      35.798 -24.825 -11.208  0.00  0.00    +0.408 C 
ATOM     32  H   UNL     1      37.453 -24.150 -10.148  0.00  0.00    +0.161 HD
ENDBRANCH  24  29
ENDBRANCH   1  24
TORSDOF 7
ENDMDL
MODEL 9
REMARK VINA RESULT:     -11.1     10.214     14.435
REMARK  Name = 56842109
REMARK  7 active torsions:
REMARK  status: ('A' for Active; 'I' for Inactive)
REMARK    1  A    between atoms: C_1  and  C_24
REMARK    2  A    between atoms: C_3  and  C_9
REMARK    3  A    between atoms: C_5  and  O_22
REMARK    4  A    between atoms: N_8  and  C_11
REMARK    5  A    between atoms: C_11  and  C_12
REMARK    6  A    between atoms: C_15  and  C_21
REMARK    7  A    between atoms: C_24  and  C_29
REMARK                            x       y       z     vdW  Elec       q    Type
REMARK                         _______ _______ _______ _____ _____    ______ ____
ROOT
ATOM      1  C   UNL     1      31.387  -9.315 -22.075  0.00  0.00    -0.018 C 
ATOM      2  C   UNL     1      32.096 -10.016 -23.051  0.00  0.00    +0.003 C 
ATOM      3  C   UNL     1      32.334 -11.382 -22.893  0.00  0.00    +0.087 C 
ATOM      4  C   UNL     1      30.916  -9.979 -20.943  0.00  0.00    -0.001 C 
ATOM      5  C   UNL     1      31.863 -12.046 -21.761  0.00  0.00    +0.143 C 
ATOM      6  C   UNL     1      31.154 -11.345 -20.786  0.00  0.00    +0.037 C 
ENDROOT
BRANCH   3   9
ATOM      7  O   UNL     1      34.196 -11.698 -24.281  0.00  0.00    -0.270 OA
ATOM      8  N   UNL     1      32.473 -13.239 -24.461  0.00  0.00    -0.297 N 
ATOM      9  C   UNL     1      33.074 -12.095 -23.925  0.00  0.00    +0.249 C 
ATOM     10  H   UNL     1      31.581 -13.494 -24.131  0.00  0.00    +0.150 HD
BRANCH   8  11
ATOM     11  C   UNL     1      33.090 -14.065 -25.473  0.00  0.00    +0.117 C 
BRANCH  11  12
ATOM     12  C   UNL     1      33.530 -15.391 -24.925  0.00  0.00    -0.003 C 
ATOM     13  C   UNL     1      33.202 -16.567 -25.600  0.00  0.00    -0.003 C 
ATOM     14  C   UNL     1      34.265 -15.449 -23.741  0.00  0.00    -0.003 C 
ATOM     15  C   UNL     1      34.346 -17.857 -23.909  0.00  0.00    +0.071 C 
ATOM     16  C   UNL     1      33.610 -17.801 -25.093  0.00  0.00    +0.004 C 
ATOM     17  C   UNL     1      34.673 -16.682 -23.233  0.00  0.00    +0.004 C 
BRANCH  15  21
ATOM     18  F   UNL     1      34.853 -20.142 -24.329  0.00  0.00    -0.166 F 
ATOM     19  F   UNL     1      36.023 -19.146 -22.790  0.00  0.00    -0.166 F 
ATOM     20  F   UNL     1      33.955 -19.675 -22.404  0.00  0.00    -0.166 F 
ATOM     21  C   UNL     1      34.785 -19.176 -23.367  0.00  0.00    +0.419 C 
ENDBRANCH  15  21
ENDBRANCH  11  12
ENDBRANCH   8  11
ENDBRANCH   3   9
BRANCH   5  22
ATOM     22  O   UNL     1      32.082 -13.380 -21.591  0.00  0.00    -0.471 OA
ATOM     23  C   UNL     1      33.100 -13.756 -20.665  0.00  0.00    +0.252 C 
ENDBRANCH   5  22
BRANCH   1  24
ATOM     24  C   UNL     1      31.129  -7.838 -22.246  0.00  0.00    +0.080 C 
BRANCH  24  29
ATOM     25  O   UNL     1      32.451  -7.166 -20.339  0.00  0.00    -0.428 OA
ATOM     26  O   UNL     1      31.805  -4.941 -22.952  0.00  0.00    -0.271 OA
ATOM     27  O   UNL     1      32.399  -5.803 -18.505  0.00  0.00    -0.226 OA
ATOM     28  N   UNL     1      32.065  -5.001 -20.645  0.00  0.00    -0.218 N 
ATOM     29  C   UNL     1      32.291  -6.998 -21.758  0.00  0.00    +0.250 C 
ATOM     30  C   UNL     1      32.023  -5.526 -21.902  0.00  0.00    +0.271 C 
ATOM     31  C   UNL     1      32.310  -5.958 -19.714  0.00  0.00    +0.408 C 
ATOM     32  H   UNL     1      31.934  -4.047 -20.438  0.00  0.00    +0.161 HD
ENDBRANCH  24  29
ENDBRANCH   1  24
TORSDOF 7
ENDMDL
