MODEL 1
REMARK VINA RESULT:     -12.5      0.000      0.000
REMARK  Name = 23635314
REMARK  9 active torsions:
REMARK  status: ('A' for Active; 'I' for Inactive)
REMARK    1  A    between atoms: C_2  and  C_8
REMARK    2  A    between atoms: C_3  and  C_23
REMARK    3  A    between atoms: C_7  and  O_13
REMARK    4  A    between atoms: O_13  and  C_14
REMARK    5  A    between atoms: C_14  and  C_15
REMARK    6  A    between atoms: C_15  and  N_17
REMARK    7  A    between atoms: C_23  and  C_26
REMARK    8  A    between atoms: N_25  and  C_28
REMARK    9  A    between atoms: C_28  and  C_29
REMARK                            x       y       z     vdW  Elec       q    Type
REMARK                         _______ _______ _______ _____ _____    ______ ____
ROOT
ATOM      1  N   UNL     1      33.810 -23.724 -16.551  0.00  0.00    -0.248 NA
ATOM      2  C   UNL     1      34.543 -22.063 -18.144  0.00  0.00    +0.019 C 
ATOM      3  C   UNL     1      35.007 -23.593 -15.936  0.00  0.00    +0.068 C 
ATOM      4  C   UNL     1      35.762 -21.956 -17.487  0.00  0.00    +0.003 C 
ATOM      5  C   UNL     1      33.608 -22.952 -17.642  0.00  0.00    +0.098 C 
ATOM      6  C   UNL     1      36.007 -22.733 -16.360  0.00  0.00    +0.015 C 
ENDROOT
BRANCH   2   8
ATOM      7  C   UNL     1      33.712 -19.741 -21.577  0.00  0.00    +0.138 C 
ATOM      8  C   UNL     1      34.259 -21.268 -19.319  0.00  0.00    +0.002 C 
ATOM      9  C   UNL     1      32.663 -20.249 -20.820  0.00  0.00    +0.037 C 
ATOM     10  C   UNL     1      35.033 -19.990 -21.217  0.00  0.00    +0.037 C 
ATOM     11  C   UNL     1      32.937 -21.015 -19.687  0.00  0.00    +0.003 C 
ATOM     12  C   UNL     1      35.306 -20.756 -20.084  0.00  0.00    +0.003 C 
BRANCH   7  13
ATOM     13  O   UNL     1      33.443 -18.989 -22.691  0.00  0.00    -0.478 OA
BRANCH  13  14
ATOM     14  C   UNL     1      34.430 -18.985 -23.715  0.00  0.00    +0.183 C 
BRANCH  14  15
ATOM     15  C   UNL     1      34.564 -17.572 -24.258  0.00  0.00    -0.029 C 
BRANCH  15  17
ATOM     16  O   UNL     1      32.125 -17.009 -27.627  0.00  0.00    -0.358 OA
ATOM     17  N   UNL     1      33.421 -17.232 -25.103  0.00  0.00    +0.393 N 
ATOM     18  C   UNL     1      33.773 -16.171 -26.056  0.00  0.00    -0.044 C 
ATOM     19  C   UNL     1      32.934 -18.416 -25.824  0.00  0.00    -0.044 C 
ATOM     20  C   UNL     1      32.568 -15.842 -26.933  0.00  0.00    +0.119 C 
ATOM     21  C   UNL     1      31.750 -18.035 -26.707  0.00  0.00    +0.119 C 
ATOM     22  H   UNL     1      32.675 -16.891 -24.496  0.00  0.00    -0.079 HD
ENDBRANCH  15  17
ENDBRANCH  14  15
ENDBRANCH  13  14
ENDBRANCH   7  13
ENDBRANCH   2   8
BRANCH   3  23
ATOM     23  C   UNL     1      35.235 -24.443 -14.730  0.00  0.00    +0.131 C 
BRANCH  23  26
ATOM     24  O   UNL     1      34.227 -23.949 -12.584  0.00  0.00    -0.275 OA
ATOM     25  N   UNL     1      32.920 -24.915 -14.242  0.00  0.00    -0.300 N 
ATOM     26  C   UNL     1      34.097 -24.395 -13.722  0.00  0.00    +0.229 C 
ATOM     27  H   UNL     1      32.920 -25.249 -15.168  0.00  0.00    +0.150 HD
BRANCH  25  28
ATOM     28  C   UNL     1      31.696 -24.985 -13.478  0.00  0.00    +0.116 C 
BRANCH  28  29
ATOM     29  C   UNL     1      30.524 -24.444 -14.246  0.00  0.00    -0.003 C 
ATOM     30  C   UNL     1      30.435 -23.079 -14.492  0.00  0.00    -0.003 C 
ATOM     31  C   UNL     1      29.541 -25.314 -14.703  0.00  0.00    -0.003 C 
ATOM     32  C   UNL     1      29.347 -22.576 -15.205  0.00  0.00    -0.000 C 
ATOM     33  C   UNL     1      28.453 -24.811 -15.416  0.00  0.00    -0.000 C 
ATOM     34  C   UNL     1      28.356 -23.441 -15.667  0.00  0.00    -0.000 C 
ENDBRANCH  28  29
ENDBRANCH  25  28
ENDBRANCH  23  26
ENDBRANCH   3  23
TORSDOF 9
ENDMDL
MODEL 2
REMARK VINA RESULT:     -12.1      1.359      2.069
REMARK  Name = 23635314
REMARK  9 active torsions:
REMARK  status: ('A' for Active; 'I' for Inactive)
REMARK    1  A    between atoms: C_2  and  C_8
REMARK    2  A    between atoms: C_3  and  C_23
REMARK    3  A    between atoms: C_7  and  O_13
REMARK    4  A    between atoms: O_13  and  C_14
REMARK    5  A    between atoms: C_14  and  C_15
REMARK    6  A    between atoms: C_15  and  N_17
REMARK    7  A    between atoms: C_23  and  C_26
REMARK    8  A    between atoms: N_25  and  C_28
REMARK    9  A    between atoms: C_28  and  C_29
REMARK                            x       y       z     vdW  Elec       q    Type
REMARK                         _______ _______ _______ _____ _____    ______ ____
ROOT
ATOM      1  N   UNL     1      34.042 -23.613 -16.761  0.00  0.00    -0.248 NA
ATOM      2  C   UNL     1      34.715 -21.926 -18.353  0.00  0.00    +0.019 C 
ATOM      3  C   UNL     1      35.242 -23.455 -16.159  0.00  0.00    +0.068 C 
ATOM      4  C   UNL     1      35.938 -21.792 -17.709  0.00  0.00    +0.003 C 
ATOM      5  C   UNL     1      33.808 -22.841 -17.846  0.00  0.00    +0.098 C 
ATOM      6  C   UNL     1      36.215 -22.568 -16.590  0.00  0.00    +0.015 C 
ENDROOT
BRANCH   2   8
ATOM      7  C   UNL     1      33.784 -19.607 -21.763  0.00  0.00    +0.138 C 
ATOM      8  C   UNL     1      34.397 -21.133 -19.520  0.00  0.00    +0.002 C 
ATOM      9  C   UNL     1      35.114 -19.820 -21.417  0.00  0.00    +0.037 C 
ATOM     10  C   UNL     1      32.757 -20.149 -20.998  0.00  0.00    +0.037 C 
ATOM     11  C   UNL     1      35.421 -20.585 -20.293  0.00  0.00    +0.003 C 
ATOM     12  C   UNL     1      33.065 -20.914 -19.873  0.00  0.00    +0.003 C 
BRANCH   7  13
ATOM     13  O   UNL     1      33.482 -18.855 -22.868  0.00  0.00    -0.478 OA
BRANCH  13  14
ATOM     14  C   UNL     1      34.454 -18.822 -23.906  0.00  0.00    +0.183 C 
BRANCH  14  15
ATOM     15  C   UNL     1      34.176 -17.624 -24.798  0.00  0.00    -0.029 C 
BRANCH  15  17
ATOM     16  O   UNL     1      34.238 -13.791 -23.089  0.00  0.00    -0.358 OA
ATOM     17  N   UNL     1      33.817 -16.456 -23.997  0.00  0.00    +0.393 N 
ATOM     18  C   UNL     1      34.886 -16.128 -23.043  0.00  0.00    -0.044 C 
ATOM     19  C   UNL     1      33.538 -15.298 -24.858  0.00  0.00    -0.044 C 
ATOM     20  C   UNL     1      34.493 -14.900 -22.227  0.00  0.00    +0.119 C 
ATOM     21  C   UNL     1      33.178 -14.089 -23.999  0.00  0.00    +0.119 C 
ATOM     22  H   UNL     1      32.972 -16.684 -23.473  0.00  0.00    -0.079 HD
ENDBRANCH  15  17
ENDBRANCH  14  15
ENDBRANCH  13  14
ENDBRANCH   7  13
ENDBRANCH   2   8
BRANCH   3  23
ATOM     23  C   UNL     1      35.506 -24.305 -14.961  0.00  0.00    +0.131 C 
BRANCH  23  26
ATOM     24  O   UNL     1      34.653 -23.762 -12.760  0.00  0.00    -0.275 OA
ATOM     25  N   UNL     1      33.202 -24.660 -14.335  0.00  0.00    -0.300 N 
ATOM     26  C   UNL     1      34.433 -24.200 -13.886  0.00  0.00    +0.229 C 
ATOM     27  H   UNL     1      33.130 -24.992 -15.259  0.00  0.00    +0.150 HD
BRANCH  25  28
ATOM     28  C   UNL     1      32.024 -24.668 -13.500  0.00  0.00    +0.116 C 
BRANCH  28  29
ATOM     29  C   UNL     1      30.787 -24.313 -14.273  0.00  0.00    -0.003 C 
ATOM     30  C   UNL     1      30.652 -23.037 -14.807  0.00  0.00    -0.003 C 
ATOM     31  C   UNL     1      29.788 -25.264 -14.447  0.00  0.00    -0.003 C 
ATOM     32  C   UNL     1      29.503 -22.707 -15.525  0.00  0.00    -0.000 C 
ATOM     33  C   UNL     1      28.639 -24.934 -15.165  0.00  0.00    -0.000 C 
ATOM     34  C   UNL     1      28.496 -23.655 -15.704  0.00  0.00    -0.000 C 
ENDBRANCH  28  29
ENDBRANCH  25  28
ENDBRANCH  23  26
ENDBRANCH   3  23
TORSDOF 9
ENDMDL
MODEL 3
REMARK VINA RESULT:     -12.0      2.898     12.312
REMARK  Name = 23635314
REMARK  9 active torsions:
REMARK  status: ('A' for Active; 'I' for Inactive)
REMARK    1  A    between atoms: C_2  and  C_8
REMARK    2  A    between atoms: C_3  and  C_23
REMARK    3  A    between atoms: C_7  and  O_13
REMARK    4  A    between atoms: O_13  and  C_14
REMARK    5  A    between atoms: C_14  and  C_15
REMARK    6  A    between atoms: C_15  and  N_17
REMARK    7  A    between atoms: C_23  and  C_26
REMARK    8  A    between atoms: N_25  and  C_28
REMARK    9  A    between atoms: C_28  and  C_29
REMARK                            x       y       z     vdW  Elec       q    Type
REMARK                         _______ _______ _______ _____ _____    ______ ____
ROOT
ATOM      1  N   UNL     1      33.624 -18.614 -23.148  0.00  0.00    -0.248 NA
ATOM      2  C   UNL     1      34.552 -19.765 -21.237  0.00  0.00    +0.019 C 
ATOM      3  C   UNL     1      34.825 -18.014 -23.308  0.00  0.00    +0.068 C 
ATOM      4  C   UNL     1      35.771 -19.128 -21.433  0.00  0.00    +0.003 C 
ATOM      5  C   UNL     1      33.519 -19.478 -22.113  0.00  0.00    +0.098 C 
ATOM      6  C   UNL     1      35.918 -18.233 -22.486  0.00  0.00    +0.015 C 
ENDROOT
BRANCH   2   8
ATOM      7  C   UNL     1      34.012 -22.500 -18.060  0.00  0.00    +0.138 C 
ATOM      8  C   UNL     1      34.367 -20.701 -20.150  0.00  0.00    +0.002 C 
ATOM      9  C   UNL     1      32.906 -22.025 -18.754  0.00  0.00    +0.037 C 
ATOM     10  C   UNL     1      35.295 -22.084 -18.400  0.00  0.00    +0.037 C 
ATOM     11  C   UNL     1      33.084 -21.123 -19.803  0.00  0.00    +0.003 C 
ATOM     12  C   UNL     1      35.472 -21.182 -19.448  0.00  0.00    +0.003 C 
BRANCH   7  13
ATOM     13  O   UNL     1      33.838 -23.387 -17.029  0.00  0.00    -0.478 OA
BRANCH  13  14
ATOM     14  C   UNL     1      34.714 -23.256 -15.917  0.00  0.00    +0.183 C 
BRANCH  14  15
ATOM     15  C   UNL     1      35.070 -24.644 -15.411  0.00  0.00    -0.029 C 
BRANCH  15  17
ATOM     16  O   UNL     1      36.014 -25.465 -11.404  0.00  0.00    -0.358 OA
ATOM     17  N   UNL     1      35.682 -24.569 -14.086  0.00  0.00    +0.393 N 
ATOM     18  C   UNL     1      34.667 -24.306 -13.056  0.00  0.00    -0.044 C 
ATOM     19  C   UNL     1      36.406 -25.810 -13.773  0.00  0.00    -0.044 C 
ATOM     20  C   UNL     1      35.327 -24.244 -11.682  0.00  0.00    +0.119 C 
ATOM     21  C   UNL     1      37.025 -25.712 -12.382  0.00  0.00    +0.119 C 
ATOM     22  H   UNL     1      36.347 -23.796 -14.092  0.00  0.00    -0.079 HD
ENDBRANCH  15  17
ENDBRANCH  14  15
ENDBRANCH  13  14
ENDBRANCH   7  13
ENDBRANCH   2   8
BRANCH   3  23
ATOM     23  C   UNL     1      34.947 -17.058 -24.449  0.00  0.00    +0.131 C 
BRANCH  23  26
ATOM     24  O   UNL     1      32.799 -16.254 -25.228  0.00  0.00    -0.275 OA
ATOM     25  N   UNL     1      34.029 -14.933 -23.769  0.00  0.00    -0.300 N 
ATOM     26  C   UNL     1      33.800 -16.063 -24.541  0.00  0.00    +0.229 C 
ATOM     27  H   UNL     1      34.866 -14.875 -23.252  0.00  0.00    +0.150 HD
BRANCH  25  28
ATOM     28  C   UNL     1      33.090 -13.839 -23.691  0.00  0.00    +0.116 C 
BRANCH  28  29
ATOM     29  C   UNL     1      33.429 -12.738 -24.654  0.00  0.00    -0.003 C 
ATOM     30  C   UNL     1      33.015 -12.831 -25.977  0.00  0.00    -0.003 C 
ATOM     31  C   UNL     1      34.154 -11.637 -24.212  0.00  0.00    -0.003 C 
ATOM     32  C   UNL     1      33.330 -11.808 -26.873  0.00  0.00    -0.000 C 
ATOM     33  C   UNL     1      34.469 -10.614 -25.107  0.00  0.00    -0.000 C 
ATOM     34  C   UNL     1      34.057 -10.701 -26.438  0.00  0.00    -0.000 C 
ENDBRANCH  28  29
ENDBRANCH  25  28
ENDBRANCH  23  26
ENDBRANCH   3  23
TORSDOF 9
ENDMDL
MODEL 4
REMARK VINA RESULT:     -12.0      3.680     11.059
REMARK  Name = 23635314
REMARK  9 active torsions:
REMARK  status: ('A' for Active; 'I' for Inactive)
REMARK    1  A    between atoms: C_2  and  C_8
REMARK    2  A    between atoms: C_3  and  C_23
REMARK    3  A    between atoms: C_7  and  O_13
REMARK    4  A    between atoms: O_13  and  C_14
REMARK    5  A    between atoms: C_14  and  C_15
REMARK    6  A    between atoms: C_15  and  N_17
REMARK    7  A    between atoms: C_23  and  C_26
REMARK    8  A    between atoms: N_25  and  C_28
REMARK    9  A    between atoms: C_28  and  C_29
REMARK                            x       y       z     vdW  Elec       q    Type
REMARK                         _______ _______ _______ _____ _____    ______ ____
ROOT
ATOM      1  N   UNL     1      35.141 -16.834 -21.795  0.00  0.00    -0.248 NA
ATOM      2  C   UNL     1      34.369 -19.096 -21.442  0.00  0.00    +0.019 C 
ATOM      3  C   UNL     1      34.739 -16.949 -23.080  0.00  0.00    +0.068 C 
ATOM      4  C   UNL     1      33.969 -19.177 -22.770  0.00  0.00    +0.003 C 
ATOM      5  C   UNL     1      34.945 -17.914 -21.006  0.00  0.00    +0.098 C 
ATOM      6  C   UNL     1      34.154 -18.087 -23.612  0.00  0.00    +0.015 C 
ENDROOT
BRANCH   2   8
ATOM      7  C   UNL     1      33.847 -22.360 -18.807  0.00  0.00    +0.138 C 
ATOM      8  C   UNL     1      34.190 -20.213 -20.540  0.00  0.00    +0.002 C 
ATOM      9  C   UNL     1      32.734 -21.685 -19.296  0.00  0.00    +0.037 C 
ATOM     10  C   UNL     1      35.131 -21.971 -19.176  0.00  0.00    +0.037 C 
ATOM     11  C   UNL     1      32.906 -20.609 -20.166  0.00  0.00    +0.003 C 
ATOM     12  C   UNL     1      35.302 -20.894 -20.045  0.00  0.00    +0.003 C 
BRANCH   7  13
ATOM     13  O   UNL     1      33.678 -23.418 -17.952  0.00  0.00    -0.478 OA
BRANCH  13  14
ATOM     14  C   UNL     1      32.706 -23.263 -16.926  0.00  0.00    +0.183 C 
BRANCH  14  15
ATOM     15  C   UNL     1      33.351 -23.588 -15.589  0.00  0.00    -0.029 C 
BRANCH  15  17
ATOM     16  O   UNL     1      37.459 -23.795 -14.755  0.00  0.00    -0.358 OA
ATOM     17  N   UNL     1      34.790 -23.787 -15.744  0.00  0.00    +0.393 N 
ATOM     18  C   UNL     1      35.521 -22.537 -15.493  0.00  0.00    -0.044 C 
ATOM     19  C   UNL     1      35.273 -24.842 -14.842  0.00  0.00    -0.044 C 
ATOM     20  C   UNL     1      37.020 -22.772 -15.650  0.00  0.00    +0.119 C 
ATOM     21  C   UNL     1      36.778 -25.023 -15.014  0.00  0.00    +0.119 C 
ATOM     22  H   UNL     1      34.963 -24.077 -16.707  0.00  0.00    -0.079 HD
ENDBRANCH  15  17
ENDBRANCH  14  15
ENDBRANCH  13  14
ENDBRANCH   7  13
ENDBRANCH   2   8
BRANCH   3  23
ATOM     23  C   UNL     1      34.953 -15.760 -23.957  0.00  0.00    +0.131 C 
BRANCH  23  26
ATOM     24  O   UNL     1      32.854 -15.350 -25.094  0.00  0.00    -0.275 OA
ATOM     25  N   UNL     1      33.578 -13.831 -23.494  0.00  0.00    -0.300 N 
ATOM     26  C   UNL     1      33.680 -14.984 -24.261  0.00  0.00    +0.229 C 
ATOM     27  H   UNL     1      34.296 -13.626 -22.852  0.00  0.00    +0.150 HD
BRANCH  25  28
ATOM     28  C   UNL     1      32.461 -12.922 -23.601  0.00  0.00    +0.116 C 
BRANCH  28  29
ATOM     29  C   UNL     1      32.104 -12.315 -22.275  0.00  0.00    -0.003 C 
ATOM     30  C   UNL     1      31.737 -10.976 -22.208  0.00  0.00    -0.003 C 
ATOM     31  C   UNL     1      32.144 -13.098 -21.127  0.00  0.00    -0.003 C 
ATOM     32  C   UNL     1      31.405 -10.412 -20.976  0.00  0.00    -0.000 C 
ATOM     33  C   UNL     1      31.812 -12.534 -19.895  0.00  0.00    -0.000 C 
ATOM     34  C   UNL     1      31.443 -11.190 -19.820  0.00  0.00    -0.000 C 
ENDBRANCH  28  29
ENDBRANCH  25  28
ENDBRANCH  23  26
ENDBRANCH   3  23
TORSDOF 9
ENDMDL
MODEL 5
REMARK VINA RESULT:     -11.9      3.661     12.083
REMARK  Name = 23635314
REMARK  9 active torsions:
REMARK  status: ('A' for Active; 'I' for Inactive)
REMARK    1  A    between atoms: C_2  and  C_8
REMARK    2  A    between atoms: C_3  and  C_23
REMARK    3  A    between atoms: C_7  and  O_13
REMARK    4  A    between atoms: O_13  and  C_14
REMARK    5  A    between atoms: C_14  and  C_15
REMARK    6  A    between atoms: C_15  and  N_17
REMARK    7  A    between atoms: C_23  and  C_26
REMARK    8  A    between atoms: N_25  and  C_28
REMARK    9  A    between atoms: C_28  and  C_29
REMARK                            x       y       z     vdW  Elec       q    Type
REMARK                         _______ _______ _______ _____ _____    ______ ____
ROOT
ATOM      1  N   UNL     1      34.971 -16.604 -21.754  0.00  0.00    -0.248 NA
ATOM      2  C   UNL     1      34.318 -18.914 -21.486  0.00  0.00    +0.019 C 
ATOM      3  C   UNL     1      34.595 -16.699 -23.049  0.00  0.00    +0.068 C 
ATOM      4  C   UNL     1      33.943 -18.974 -22.822  0.00  0.00    +0.003 C 
ATOM      5  C   UNL     1      34.822 -17.718 -21.003  0.00  0.00    +0.098 C 
ATOM      6  C   UNL     1      34.082 -17.849 -23.626  0.00  0.00    +0.015 C 
ENDROOT
BRANCH   2   8
ATOM      7  C   UNL     1      33.934 -22.286 -18.965  0.00  0.00    +0.138 C 
ATOM      8  C   UNL     1      34.187 -20.068 -20.624  0.00  0.00    +0.002 C 
ATOM      9  C   UNL     1      32.795 -21.620 -19.403  0.00  0.00    +0.037 C 
ATOM     10  C   UNL     1      35.200 -21.852 -19.348  0.00  0.00    +0.037 C 
ATOM     11  C   UNL     1      32.921 -20.508 -20.235  0.00  0.00    +0.003 C 
ATOM     12  C   UNL     1      35.325 -20.740 -20.179  0.00  0.00    +0.003 C 
BRANCH   7  13
ATOM     13  O   UNL     1      33.810 -23.378 -18.147  0.00  0.00    -0.478 OA
BRANCH  13  14
ATOM     14  C   UNL     1      32.760 -23.345 -17.189  0.00  0.00    +0.183 C 
BRANCH  14  15
ATOM     15  C   UNL     1      33.368 -23.349 -15.797  0.00  0.00    -0.029 C 
BRANCH  15  17
ATOM     16  O   UNL     1      37.317 -24.198 -14.654  0.00  0.00    -0.358 OA
ATOM     17  N   UNL     1      34.768 -23.764 -15.846  0.00  0.00    +0.393 N 
ATOM     18  C   UNL     1      35.657 -22.646 -15.504  0.00  0.00    -0.044 C 
ATOM     19  C   UNL     1      35.010 -24.895 -14.938  0.00  0.00    -0.044 C 
ATOM     20  C   UNL     1      37.111 -23.106 -15.551  0.00  0.00    +0.119 C 
ATOM     21  C   UNL     1      36.479 -25.303 -14.998  0.00  0.00    +0.119 C 
ATOM     22  H   UNL     1      34.972 -24.063 -16.799  0.00  0.00    -0.079 HD
ENDBRANCH  15  17
ENDBRANCH  14  15
ENDBRANCH  13  14
ENDBRANCH   7  13
ENDBRANCH   2   8
BRANCH   3  23
ATOM     23  C   UNL     1      34.759 -15.472 -23.884  0.00  0.00    +0.131 C 
BRANCH  23  26
ATOM     24  O   UNL     1      33.961 -14.019 -22.117  0.00  0.00    -0.275 OA
ATOM     25  N   UNL     1      33.522 -13.447 -24.324  0.00  0.00    -0.300 N 
ATOM     26  C   UNL     1      34.049 -14.249 -23.321  0.00  0.00    +0.229 C 
ATOM     27  H   UNL     1      33.648 -13.719 -25.262  0.00  0.00    +0.150 HD
BRANCH  25  28
ATOM     28  C   UNL     1      32.798 -12.228 -24.047  0.00  0.00    +0.116 C 
BRANCH  28  29
ATOM     29  C   UNL     1      33.655 -11.010 -24.239  0.00  0.00    -0.003 C 
ATOM     30  C   UNL     1      34.708 -11.047 -25.145  0.00  0.00    -0.003 C 
ATOM     31  C   UNL     1      33.385  -9.858 -23.510  0.00  0.00    -0.003 C 
ATOM     32  C   UNL     1      35.504  -9.916 -25.324  0.00  0.00    -0.000 C 
ATOM     33  C   UNL     1      34.181  -8.726 -23.689  0.00  0.00    -0.000 C 
ATOM     34  C   UNL     1      35.242  -8.756 -24.596  0.00  0.00    -0.000 C 
ENDBRANCH  28  29
ENDBRANCH  25  28
ENDBRANCH  23  26
ENDBRANCH   3  23
TORSDOF 9
ENDMDL
MODEL 6
REMARK VINA RESULT:     -11.7      3.406     11.920
REMARK  Name = 23635314
REMARK  9 active torsions:
REMARK  status: ('A' for Active; 'I' for Inactive)
REMARK    1  A    between atoms: C_2  and  C_8
REMARK    2  A    between atoms: C_3  and  C_23
REMARK    3  A    between atoms: C_7  and  O_13
REMARK    4  A    between atoms: O_13  and  C_14
REMARK    5  A    between atoms: C_14  and  C_15
REMARK    6  A    between atoms: C_15  and  N_17
REMARK    7  A    between atoms: C_23  and  C_26
REMARK    8  A    between atoms: N_25  and  C_28
REMARK    9  A    between atoms: C_28  and  C_29
REMARK                            x       y       z     vdW  Elec       q    Type
REMARK                         _______ _______ _______ _____ _____    ______ ____
ROOT
ATOM      1  N   UNL     1      34.790 -16.784 -22.305  0.00  0.00    -0.248 NA
ATOM      2  C   UNL     1      34.531 -19.122 -21.759  0.00  0.00    +0.019 C 
ATOM      3  C   UNL     1      34.700 -17.128 -23.609  0.00  0.00    +0.068 C 
ATOM      4  C   UNL     1      34.443 -19.438 -23.109  0.00  0.00    +0.003 C 
ATOM      5  C   UNL     1      34.702 -17.793 -21.410  0.00  0.00    +0.098 C 
ATOM      6  C   UNL     1      34.528 -18.427 -24.059  0.00  0.00    +0.015 C 
ENDROOT
BRANCH   2   8
ATOM      7  C   UNL     1      34.281 -22.131 -18.800  0.00  0.00    +0.138 C 
ATOM      8  C   UNL     1      34.446 -20.152 -20.746  0.00  0.00    +0.002 C 
ATOM      9  C   UNL     1      35.527 -21.702 -19.243  0.00  0.00    +0.037 C 
ATOM     10  C   UNL     1      33.115 -21.580 -19.322  0.00  0.00    +0.037 C 
ATOM     11  C   UNL     1      35.610 -20.709 -20.218  0.00  0.00    +0.003 C 
ATOM     12  C   UNL     1      33.199 -20.588 -20.298  0.00  0.00    +0.003 C 
BRANCH   7  13
ATOM     13  O   UNL     1      34.200 -23.107 -17.841  0.00  0.00    -0.478 OA
BRANCH  13  14
ATOM     14  C   UNL     1      32.941 -23.273 -17.201  0.00  0.00    +0.183 C 
BRANCH  14  15
ATOM     15  C   UNL     1      33.154 -23.267 -15.696  0.00  0.00    -0.029 C 
BRANCH  15  17
ATOM     16  O   UNL     1      29.391 -24.676 -14.482  0.00  0.00    -0.358 OA
ATOM     17  N   UNL     1      31.878 -23.390 -14.994  0.00  0.00    +0.393 N 
ATOM     18  C   UNL     1      30.752 -23.288 -15.933  0.00  0.00    -0.044 C 
ATOM     19  C   UNL     1      31.806 -24.660 -14.258  0.00  0.00    -0.044 C 
ATOM     20  C   UNL     1      29.434 -23.430 -15.179  0.00  0.00    +0.119 C 
ATOM     21  C   UNL     1      30.463 -24.769 -13.543  0.00  0.00    +0.119 C 
ATOM     22  H   UNL     1      31.815 -22.621 -14.326  0.00  0.00    -0.079 HD
ENDBRANCH  15  17
ENDBRANCH  14  15
ENDBRANCH  13  14
ENDBRANCH   7  13
ENDBRANCH   2   8
BRANCH   3  23
ATOM     23  C   UNL     1      34.796 -16.017 -24.602  0.00  0.00    +0.131 C 
BRANCH  23  26
ATOM     24  O   UNL     1      32.621 -15.335 -25.420  0.00  0.00    -0.275 OA
ATOM     25  N   UNL     1      33.632 -14.084 -23.746  0.00  0.00    -0.300 N 
ATOM     26  C   UNL     1      33.559 -15.132 -24.654  0.00  0.00    +0.229 C 
ATOM     27  H   UNL     1      34.430 -14.009 -23.174  0.00  0.00    +0.150 HD
BRANCH  25  28
ATOM     28  C   UNL     1      32.582 -13.102 -23.605  0.00  0.00    +0.116 C 
BRANCH  28  29
ATOM     29  C   UNL     1      33.101 -11.701 -23.756  0.00  0.00    -0.003 C 
ATOM     30  C   UNL     1      34.210 -11.462 -24.559  0.00  0.00    -0.003 C 
ATOM     31  C   UNL     1      32.466 -10.658 -23.091  0.00  0.00    -0.003 C 
ATOM     32  C   UNL     1      34.692 -10.160 -24.699  0.00  0.00    -0.000 C 
ATOM     33  C   UNL     1      32.949  -9.357 -23.231  0.00  0.00    -0.000 C 
ATOM     34  C   UNL     1      34.062  -9.108 -24.035  0.00  0.00    -0.000 C 
ENDBRANCH  28  29
ENDBRANCH  25  28
ENDBRANCH  23  26
ENDBRANCH   3  23
TORSDOF 9
ENDMDL
MODEL 7
REMARK VINA RESULT:     -11.6      2.878      4.851
REMARK  Name = 23635314
REMARK  9 active torsions:
REMARK  status: ('A' for Active; 'I' for Inactive)
REMARK    1  A    between atoms: C_2  and  C_8
REMARK    2  A    between atoms: C_3  and  C_23
REMARK    3  A    between atoms: C_7  and  O_13
REMARK    4  A    between atoms: O_13  and  C_14
REMARK    5  A    between atoms: C_14  and  C_15
REMARK    6  A    between atoms: C_15  and  N_17
REMARK    7  A    between atoms: C_23  and  C_26
REMARK    8  A    between atoms: N_25  and  C_28
REMARK    9  A    between atoms: C_28  and  C_29
REMARK                            x       y       z     vdW  Elec       q    Type
REMARK                         _______ _______ _______ _____ _____    ______ ____
ROOT
ATOM      1  N   UNL     1      32.629 -21.686 -19.504  0.00  0.00    -0.248 NA
ATOM      2  C   UNL     1      34.140 -20.142 -20.584  0.00  0.00    +0.019 C 
ATOM      3  C   UNL     1      33.711 -22.383 -19.093  0.00  0.00    +0.068 C 
ATOM      4  C   UNL     1      35.229 -20.884 -20.144  0.00  0.00    +0.003 C 
ATOM      5  C   UNL     1      32.872 -20.579 -20.242  0.00  0.00    +0.098 C 
ATOM      6  C   UNL     1      35.019 -22.028 -19.383  0.00  0.00    +0.015 C 
ENDROOT
BRANCH   2   8
ATOM      7  C   UNL     1      34.684 -16.649 -22.902  0.00  0.00    +0.138 C 
ATOM      8  C   UNL     1      34.326 -18.947 -21.378  0.00  0.00    +0.002 C 
ATOM      9  C   UNL     1      34.236 -17.816 -23.510  0.00  0.00    +0.037 C 
ATOM     10  C   UNL     1      34.955 -16.619 -21.538  0.00  0.00    +0.037 C 
ATOM     11  C   UNL     1      34.056 -18.968 -22.746  0.00  0.00    +0.003 C 
ATOM     12  C   UNL     1      34.776 -17.772 -20.774  0.00  0.00    +0.003 C 
BRANCH   7  13
ATOM     13  O   UNL     1      34.861 -15.516 -23.653  0.00  0.00    -0.478 OA
BRANCH  13  14
ATOM     14  C   UNL     1      34.317 -14.310 -23.133  0.00  0.00    +0.183 C 
BRANCH  14  15
ATOM     15  C   UNL     1      33.104 -13.923 -23.963  0.00  0.00    -0.029 C 
BRANCH  15  17
ATOM     16  O   UNL     1      32.933 -12.728 -27.982  0.00  0.00    -0.358 OA
ATOM     17  N   UNL     1      33.498 -13.597 -25.331  0.00  0.00    +0.393 N 
ATOM     18  C   UNL     1      32.808 -14.466 -26.295  0.00  0.00    -0.044 C 
ATOM     19  C   UNL     1      33.217 -12.187 -25.635  0.00  0.00    -0.044 C 
ATOM     20  C   UNL     1      33.227 -14.100 -27.715  0.00  0.00    +0.119 C 
ATOM     21  C   UNL     1      33.626 -11.874 -27.071  0.00  0.00    +0.119 C 
ATOM     22  H   UNL     1      34.503 -13.754 -25.413  0.00  0.00    -0.079 HD
ENDBRANCH  15  17
ENDBRANCH  14  15
ENDBRANCH  13  14
ENDBRANCH   7  13
ENDBRANCH   2   8
BRANCH   3  23
ATOM     23  C   UNL     1      33.449 -23.606 -18.278  0.00  0.00    +0.131 C 
BRANCH  23  26
ATOM     24  O   UNL     1      32.286 -23.116 -16.211  0.00  0.00    -0.275 OA
ATOM     25  N   UNL     1      34.593 -23.372 -16.167  0.00  0.00    -0.300 N 
ATOM     26  C   UNL     1      33.350 -23.338 -16.784  0.00  0.00    +0.229 C 
ATOM     27  H   UNL     1      35.388 -23.560 -16.716  0.00  0.00    +0.150 HD
BRANCH  25  28
ATOM     28  C   UNL     1      34.766 -23.145 -14.751  0.00  0.00    +0.116 C 
BRANCH  28  29
ATOM     29  C   UNL     1      35.779 -24.077 -14.153  0.00  0.00    -0.003 C 
ATOM     30  C   UNL     1      35.739 -24.355 -12.792  0.00  0.00    -0.003 C 
ATOM     31  C   UNL     1      36.748 -24.653 -14.966  0.00  0.00    -0.003 C 
ATOM     32  C   UNL     1      36.680 -25.221 -12.235  0.00  0.00    -0.000 C 
ATOM     33  C   UNL     1      37.690 -25.519 -14.410  0.00  0.00    -0.000 C 
ATOM     34  C   UNL     1      37.656 -25.802 -13.044  0.00  0.00    -0.000 C 
ENDBRANCH  28  29
ENDBRANCH  25  28
ENDBRANCH  23  26
ENDBRANCH   3  23
TORSDOF 9
ENDMDL
MODEL 8
REMARK VINA RESULT:     -11.4      3.767     11.254
REMARK  Name = 23635314
REMARK  9 active torsions:
REMARK  status: ('A' for Active; 'I' for Inactive)
REMARK    1  A    between atoms: C_2  and  C_8
REMARK    2  A    between atoms: C_3  and  C_23
REMARK    3  A    between atoms: C_7  and  O_13
REMARK    4  A    between atoms: O_13  and  C_14
REMARK    5  A    between atoms: C_14  and  C_15
REMARK    6  A    between atoms: C_15  and  N_17
REMARK    7  A    between atoms: C_23  and  C_26
REMARK    8  A    between atoms: N_25  and  C_28
REMARK    9  A    between atoms: C_28  and  C_29
REMARK                            x       y       z     vdW  Elec       q    Type
REMARK                         _______ _______ _______ _____ _____    ______ ____
ROOT
ATOM      1  N   UNL     1      35.029 -16.652 -21.830  0.00  0.00    -0.248 NA
ATOM      2  C   UNL     1      34.418 -18.974 -21.566  0.00  0.00    +0.019 C 
ATOM      3  C   UNL     1      34.758 -16.781 -23.148  0.00  0.00    +0.068 C 
ATOM      4  C   UNL     1      34.150 -19.069 -22.926  0.00  0.00    +0.003 C 
ATOM      5  C   UNL     1      34.850 -17.755 -21.070  0.00  0.00    +0.098 C 
ATOM      6  C   UNL     1      34.322 -17.955 -23.740  0.00  0.00    +0.015 C 
ENDROOT
BRANCH   2   8
ATOM      7  C   UNL     1      33.926 -22.307 -19.013  0.00  0.00    +0.138 C 
ATOM      8  C   UNL     1      34.249 -20.114 -20.693  0.00  0.00    +0.002 C 
ATOM      9  C   UNL     1      32.808 -21.622 -19.474  0.00  0.00    +0.037 C 
ATOM     10  C   UNL     1      35.206 -21.906 -19.383  0.00  0.00    +0.037 C 
ATOM     11  C   UNL     1      32.969 -20.523 -20.317  0.00  0.00    +0.003 C 
ATOM     12  C   UNL     1      35.367 -20.806 -20.225  0.00  0.00    +0.003 C 
BRANCH   7  13
ATOM     13  O   UNL     1      33.767 -23.387 -18.185  0.00  0.00    -0.478 OA
BRANCH  13  14
ATOM     14  C   UNL     1      33.263 -23.127 -16.881  0.00  0.00    +0.183 C 
BRANCH  14  15
ATOM     15  C   UNL     1      31.748 -23.245 -16.910  0.00  0.00    -0.029 C 
BRANCH  15  17
ATOM     16  O   UNL     1      30.956 -24.864 -13.120  0.00  0.00    -0.358 OA
ATOM     17  N   UNL     1      31.219 -23.422 -15.560  0.00  0.00    +0.393 N 
ATOM     18  C   UNL     1      30.408 -24.645 -15.473  0.00  0.00    -0.044 C 
ATOM     19  C   UNL     1      32.307 -23.468 -14.573  0.00  0.00    -0.044 C 
ATOM     20  C   UNL     1      29.876 -24.814 -14.054  0.00  0.00    +0.119 C 
ATOM     21  C   UNL     1      31.730 -23.665 -13.175  0.00  0.00    +0.119 C 
ATOM     22  H   UNL     1      30.622 -22.621 -15.351  0.00  0.00    -0.079 HD
ENDBRANCH  15  17
ENDBRANCH  14  15
ENDBRANCH  13  14
ENDBRANCH   7  13
ENDBRANCH   2   8
BRANCH   3  23
ATOM     23  C   UNL     1      34.954 -15.565 -23.993  0.00  0.00    +0.131 C 
BRANCH  23  26
ATOM     24  O   UNL     1      32.862 -15.158 -25.144  0.00  0.00    -0.275 OA
ATOM     25  N   UNL     1      33.527 -13.689 -23.473  0.00  0.00    -0.300 N 
ATOM     26  C   UNL     1      33.667 -14.807 -24.284  0.00  0.00    +0.229 C 
ATOM     27  H   UNL     1      34.231 -13.495 -22.812  0.00  0.00    +0.150 HD
BRANCH  25  28
ATOM     28  C   UNL     1      32.390 -12.803 -23.559  0.00  0.00    +0.116 C 
BRANCH  28  29
ATOM     29  C   UNL     1      32.046 -12.201 -22.227  0.00  0.00    -0.003 C 
ATOM     30  C   UNL     1      31.675 -10.864 -22.152  0.00  0.00    -0.003 C 
ATOM     31  C   UNL     1      32.101 -12.988 -21.083  0.00  0.00    -0.003 C 
ATOM     32  C   UNL     1      31.355 -10.305 -20.915  0.00  0.00    -0.000 C 
ATOM     33  C   UNL     1      31.781 -12.429 -19.845  0.00  0.00    -0.000 C 
ATOM     34  C   UNL     1      31.409 -11.087 -19.761  0.00  0.00    -0.000 C 
ENDBRANCH  28  29
ENDBRANCH  25  28
ENDBRANCH  23  26
ENDBRANCH   3  23
TORSDOF 9
ENDMDL
MODEL 9
REMARK VINA RESULT:     -11.4      3.215     11.498
REMARK  Name = 23635314
REMARK  9 active torsions:
REMARK  status: ('A' for Active; 'I' for Inactive)
REMARK    1  A    between atoms: C_2  and  C_8
REMARK    2  A    between atoms: C_3  and  C_23
REMARK    3  A    between atoms: C_7  and  O_13
REMARK    4  A    between atoms: O_13  and  C_14
REMARK    5  A    between atoms: C_14  and  C_15
REMARK    6  A    between atoms: C_15  and  N_17
REMARK    7  A    between atoms: C_23  and  C_26
REMARK    8  A    between atoms: N_25  and  C_28
REMARK    9  A    between atoms: C_28  and  C_29
REMARK                            x       y       z     vdW  Elec       q    Type
REMARK                         _______ _______ _______ _____ _____    ______ ____
ROOT
ATOM      1  N   UNL     1      34.744 -16.940 -22.516  0.00  0.00    -0.248 NA
ATOM      2  C   UNL     1      34.507 -19.248 -21.843  0.00  0.00    +0.019 C 
ATOM      3  C   UNL     1      34.678 -17.359 -23.800  0.00  0.00    +0.068 C 
ATOM      4  C   UNL     1      34.443 -19.640 -23.174  0.00  0.00    +0.003 C 
ATOM      5  C   UNL     1      34.656 -17.899 -21.567  0.00  0.00    +0.098 C 
ATOM      6  C   UNL     1      34.530 -18.683 -24.178  0.00  0.00    +0.015 C 
ENDROOT
BRANCH   2   8
ATOM      7  C   UNL     1      34.251 -22.089 -18.723  0.00  0.00    +0.138 C 
ATOM      8  C   UNL     1      34.420 -20.220 -20.775  0.00  0.00    +0.002 C 
ATOM      9  C   UNL     1      35.499 -21.686 -19.187  0.00  0.00    +0.037 C 
ATOM     10  C   UNL     1      33.087 -21.566 -19.275  0.00  0.00    +0.037 C 
ATOM     11  C   UNL     1      35.583 -20.749 -20.216  0.00  0.00    +0.003 C 
ATOM     12  C   UNL     1      33.172 -20.629 -20.304  0.00  0.00    +0.003 C 
BRANCH   7  13
ATOM     13  O   UNL     1      34.168 -23.010 -17.712  0.00  0.00    -0.478 OA
BRANCH  13  14
ATOM     14  C   UNL     1      34.880 -22.717 -16.517  0.00  0.00    +0.183 C 
BRANCH  14  15
ATOM     15  C   UNL     1      34.114 -23.292 -15.337  0.00  0.00    -0.029 C 
BRANCH  15  17
ATOM     16  O   UNL     1      36.285 -25.191 -12.288  0.00  0.00    -0.358 OA
ATOM     17  N   UNL     1      35.006 -23.517 -14.202  0.00  0.00    +0.393 N 
ATOM     18  C   UNL     1      34.271 -24.083 -13.063  0.00  0.00    -0.044 C 
ATOM     19  C   UNL     1      36.116 -24.405 -14.577  0.00  0.00    -0.044 C 
ATOM     20  C   UNL     1      35.224 -24.318 -11.896  0.00  0.00    +0.119 C 
ATOM     21  C   UNL     1      37.026 -24.633 -13.374  0.00  0.00    +0.119 C 
ATOM     22  H   UNL     1      35.391 -22.614 -13.924  0.00  0.00    -0.079 HD
ENDBRANCH  15  17
ENDBRANCH  14  15
ENDBRANCH  13  14
ENDBRANCH   7  13
ENDBRANCH   2   8
BRANCH   3  23
ATOM     23  C   UNL     1      34.775 -16.304 -24.852  0.00  0.00    +0.131 C 
BRANCH  23  26
ATOM     24  O   UNL     1      32.523 -15.579 -25.373  0.00  0.00    -0.275 OA
ATOM     25  N   UNL     1      33.922 -14.141 -24.205  0.00  0.00    -0.300 N 
ATOM     26  C   UNL     1      33.607 -15.328 -24.852  0.00  0.00    +0.229 C 
ATOM     27  H   UNL     1      34.822 -14.038 -23.818  0.00  0.00    +0.150 HD
BRANCH  25  28
ATOM     28  C   UNL     1      32.982 -13.053 -24.074  0.00  0.00    +0.116 C 
BRANCH  28  29
ATOM     29  C   UNL     1      32.503 -12.892 -22.660  0.00  0.00    -0.003 C 
ATOM     30  C   UNL     1      33.058 -13.674 -21.653  0.00  0.00    -0.003 C 
ATOM     31  C   UNL     1      31.511 -11.962 -22.371  0.00  0.00    -0.003 C 
ATOM     32  C   UNL     1      32.613 -13.525 -20.339  0.00  0.00    -0.000 C 
ATOM     33  C   UNL     1      31.067 -11.813 -21.057  0.00  0.00    -0.000 C 
ATOM     34  C   UNL     1      31.617 -12.595 -20.041  0.00  0.00    -0.000 C 
ENDBRANCH  28  29
ENDBRANCH  25  28
ENDBRANCH  23  26
ENDBRANCH   3  23
TORSDOF 9
ENDMDL
