MODEL 1
REMARK VINA RESULT:     -12.5      0.000      0.000
REMARK  Name = 10200813
REMARK  4 active torsions:
REMARK  status: ('A' for Active; 'I' for Inactive)
REMARK    1  A    between atoms: C_3  and  C_24
REMARK    2  A    between atoms: C_8  and  C_11
REMARK    3  A    between atoms: N_10  and  C_16
REMARK    4  A    between atoms: C_24  and  C_26
REMARK                            x       y       z     vdW  Elec       q    Type
REMARK                         _______ _______ _______ _____ _____    ______ ____
ROOT
ATOM      1  O   UNL     1      31.656 -21.986 -18.093  0.00  0.00    -0.265 OA
ATOM      2  N   UNL     1      33.416 -21.689 -19.623  0.00  0.00    -0.272 N 
ATOM      3  C   UNL     1      34.903 -19.768 -21.201  0.00  0.00    +0.008 C 
ATOM      4  C   UNL     1      33.477 -19.480 -20.708  0.00  0.00    +0.022 C 
ATOM      5  C   UNL     1      35.606 -20.748 -20.248  0.00  0.00    +0.022 C 
ATOM      6  C   UNL     1      32.692 -20.774 -20.502  0.00  0.00    +0.094 C 
ATOM      7  C   UNL     1      34.780 -22.017 -20.048  0.00  0.00    +0.094 C 
ATOM      8  C   UNL     1      32.786 -22.215 -18.504  0.00  0.00    +0.303 C 
ENDROOT
BRANCH   8  11
ATOM      9  O   UNL     1      33.359 -24.364 -17.889  0.00  0.00    -0.265 OA
ATOM     10  N   UNL     1      34.459 -22.549 -16.841  0.00  0.00    -0.277 N 
ATOM     11  C   UNL     1      33.577 -23.175 -17.699  0.00  0.00    +0.303 C 
ATOM     12  H   UNL     1      34.463 -21.564 -16.859  0.00  0.00    +0.155 HD
BRANCH  10  16
ATOM     13  O   UNL     1      35.478 -25.461 -13.068  0.00  0.00    -0.407 OA
ATOM     14  O   UNL     1      36.928 -26.481 -11.583  0.00  0.00    -0.223 OA
ATOM     15  N   UNL     1      37.734 -25.050 -13.236  0.00  0.00    -0.287 N 
ATOM     16  C   UNL     1      35.356 -23.165 -15.938  0.00  0.00    +0.054 C 
ATOM     17  C   UNL     1      34.849 -24.014 -14.961  0.00  0.00    +0.054 C 
ATOM     18  C   UNL     1      36.727 -22.900 -16.059  0.00  0.00    +0.016 C 
ATOM     19  C   UNL     1      35.766 -24.589 -14.107  0.00  0.00    +0.167 A 
ATOM     20  C   UNL     1      37.114 -24.331 -14.223  0.00  0.00    +0.096 A 
ATOM     21  C   UNL     1      37.637 -23.494 -15.183  0.00  0.00    +0.022 C 
ATOM     22  C   UNL     1      36.752 -25.733 -12.537  0.00  0.00    +0.419 A 
ATOM     23  H   UNL     1      38.702 -25.077 -13.055  0.00  0.00    +0.172 HD
ENDBRANCH  10  16
ENDBRANCH   8  11
BRANCH   3  24
ATOM     24  C   UNL     1      35.703 -18.475 -21.336  0.00  0.00    +0.026 C 
BRANCH  24  26
ATOM     25  F   UNL     1      33.656 -15.192 -25.414  0.00  0.00    -0.204 F 
ATOM     26  C   UNL     1      35.154 -17.597 -22.427  0.00  0.00    -0.022 C 
ATOM     27  C   UNL     1      34.976 -18.118 -23.702  0.00  0.00    -0.002 C 
ATOM     28  C   UNL     1      34.835 -16.275 -22.146  0.00  0.00    -0.002 C 
ATOM     29  C   UNL     1      34.468 -17.303 -24.713  0.00  0.00    +0.029 C 
ATOM     30  C   UNL     1      34.326 -15.460 -23.158  0.00  0.00    +0.029 C 
ATOM     31  C   UNL     1      34.143 -15.974 -24.441  0.00  0.00    +0.140 C 
ENDBRANCH  24  26
ENDBRANCH   3  24
TORSDOF 4
ENDMDL
MODEL 2
REMARK VINA RESULT:     -11.7      4.808      7.590
REMARK  Name = 10200813
REMARK  4 active torsions:
REMARK  status: ('A' for Active; 'I' for Inactive)
REMARK    1  A    between atoms: C_3  and  C_24
REMARK    2  A    between atoms: C_8  and  C_11
REMARK    3  A    between atoms: N_10  and  C_16
REMARK    4  A    between atoms: C_24  and  C_26
REMARK                            x       y       z     vdW  Elec       q    Type
REMARK                         _______ _______ _______ _____ _____    ______ ____
ROOT
ATOM      1  O   UNL     1      34.730 -16.934 -23.792  0.00  0.00    -0.265 OA
ATOM      2  N   UNL     1      34.292 -15.058 -22.446  0.00  0.00    -0.272 N 
ATOM      3  C   UNL     1      32.656 -12.690 -22.117  0.00  0.00    +0.008 C 
ATOM      4  C   UNL     1      32.854 -13.353 -23.489  0.00  0.00    +0.022 C 
ATOM      5  C   UNL     1      32.803 -13.732 -20.998  0.00  0.00    +0.022 C 
ATOM      6  C   UNL     1      34.180 -14.109 -23.551  0.00  0.00    +0.094 C 
ATOM      7  C   UNL     1      34.129 -14.482 -21.107  0.00  0.00    +0.094 C 
ATOM      8  C   UNL     1      34.582 -16.389 -22.706  0.00  0.00    +0.303 C 
ENDROOT
BRANCH   8  11
ATOM      9  O   UNL     1      35.122 -16.745 -20.491  0.00  0.00    -0.265 OA
ATOM     10  N   UNL     1      34.384 -18.580 -21.791  0.00  0.00    -0.277 N 
ATOM     11  C   UNL     1      34.729 -17.270 -21.524  0.00  0.00    +0.303 C 
ATOM     12  H   UNL     1      34.088 -18.776 -22.710  0.00  0.00    +0.155 HD
BRANCH  10  16
ATOM     13  O   UNL     1      32.217 -21.878 -18.933  0.00  0.00    -0.407 OA
ATOM     14  O   UNL     1      32.235 -23.665 -17.464  0.00  0.00    -0.223 OA
ATOM     15  N   UNL     1      34.228 -22.798 -18.305  0.00  0.00    -0.287 N 
ATOM     16  C   UNL     1      34.409 -19.671 -20.892  0.00  0.00    +0.054 C 
ATOM     17  C   UNL     1      33.207 -20.169 -20.405  0.00  0.00    +0.054 C 
ATOM     18  C   UNL     1      35.647 -20.215 -20.523  0.00  0.00    +0.016 C 
ATOM     19  C   UNL     1      33.287 -21.233 -19.533  0.00  0.00    +0.167 A 
ATOM     20  C   UNL     1      34.501 -21.771 -19.168  0.00  0.00    +0.096 A 
ATOM     21  C   UNL     1      35.704 -21.294 -19.638  0.00  0.00    +0.022 C 
ATOM     22  C   UNL     1      32.852 -22.868 -18.159  0.00  0.00    +0.419 A 
ATOM     23  H   UNL     1      34.889 -23.383 -17.866  0.00  0.00    +0.172 HD
ENDBRANCH  10  16
ENDBRANCH   8  11
BRANCH   3  24
ATOM     24  C   UNL     1      31.298 -11.997 -22.040  0.00  0.00    +0.026 C 
BRANCH  24  26
ATOM     25  F   UNL     1      31.615  -7.126 -19.254  0.00  0.00    -0.204 F 
ATOM     26  C   UNL     1      31.382 -10.694 -21.295  0.00  0.00    -0.022 C 
ATOM     27  C   UNL     1      31.849  -9.561 -21.948  0.00  0.00    -0.002 C 
ATOM     28  C   UNL     1      30.993 -10.641 -19.963  0.00  0.00    -0.002 C 
ATOM     29  C   UNL     1      31.927  -8.352 -21.256  0.00  0.00    +0.029 C 
ATOM     30  C   UNL     1      31.071  -9.432 -19.271  0.00  0.00    +0.029 C 
ATOM     31  C   UNL     1      31.538  -8.287 -19.918  0.00  0.00    +0.140 C 
ENDBRANCH  24  26
ENDBRANCH   3  24
TORSDOF 4
ENDMDL
MODEL 3
REMARK VINA RESULT:     -11.6      4.095      7.077
REMARK  Name = 10200813
REMARK  4 active torsions:
REMARK  status: ('A' for Active; 'I' for Inactive)
REMARK    1  A    between atoms: C_3  and  C_24
REMARK    2  A    between atoms: C_8  and  C_11
REMARK    3  A    between atoms: N_10  and  C_16
REMARK    4  A    between atoms: C_24  and  C_26
REMARK                            x       y       z     vdW  Elec       q    Type
REMARK                         _______ _______ _______ _____ _____    ______ ____
ROOT
ATOM      1  O   UNL     1      33.114 -18.333 -25.144  0.00  0.00    -0.265 OA
ATOM      2  N   UNL     1      34.093 -16.374 -24.289  0.00  0.00    -0.272 N 
ATOM      3  C   UNL     1      33.669 -13.579 -23.656  0.00  0.00    +0.008 C 
ATOM      4  C   UNL     1      32.796 -14.318 -24.682  0.00  0.00    +0.022 C 
ATOM      5  C   UNL     1      34.220 -14.569 -22.617  0.00  0.00    +0.022 C 
ATOM      6  C   UNL     1      33.554 -15.483 -25.315  0.00  0.00    +0.094 C 
ATOM      7  C   UNL     1      34.949 -15.730 -23.288  0.00  0.00    +0.094 C 
ATOM      8  C   UNL     1      33.816 -17.732 -24.340  0.00  0.00    +0.303 C 
ENDROOT
BRANCH   8  11
ATOM      9  O   UNL     1      35.665 -18.657 -23.316  0.00  0.00    -0.265 OA
ATOM     10  N   UNL     1      33.521 -19.125 -22.430  0.00  0.00    -0.277 N 
ATOM     11  C   UNL     1      34.445 -18.568 -23.292  0.00  0.00    +0.303 C 
ATOM     12  H   UNL     1      32.576 -18.911 -22.605  0.00  0.00    +0.155 HD
BRANCH  10  16
ATOM     13  O   UNL     1      32.110 -22.031 -18.782  0.00  0.00    -0.407 OA
ATOM     14  O   UNL     1      32.513 -23.417 -16.975  0.00  0.00    -0.223 OA
ATOM     15  N   UNL     1      34.278 -22.430 -18.132  0.00  0.00    -0.287 N 
ATOM     16  C   UNL     1      33.782 -19.970 -21.326  0.00  0.00    +0.054 C 
ATOM     17  C   UNL     1      32.711 -20.545 -20.653  0.00  0.00    +0.054 C 
ATOM     18  C   UNL     1      35.112 -20.198 -20.949  0.00  0.00    +0.016 C 
ATOM     19  C   UNL     1      33.019 -21.361 -19.586  0.00  0.00    +0.167 A 
ATOM     20  C   UNL     1      34.325 -21.588 -19.211  0.00  0.00    +0.096 A 
ATOM     21  C   UNL     1      35.401 -21.028 -19.863  0.00  0.00    +0.022 C 
ATOM     22  C   UNL     1      32.945 -22.700 -17.868  0.00  0.00    +0.419 A 
ATOM     23  H   UNL     1      35.052 -22.781 -17.633  0.00  0.00    +0.172 HD
ENDBRANCH  10  16
ENDBRANCH   8  11
BRANCH   3  24
ATOM     24  C   UNL     1      32.882 -12.461 -22.977  0.00  0.00    +0.026 C 
BRANCH  24  26
ATOM     25  F   UNL     1      34.165  -7.428 -25.126  0.00  0.00    -0.204 F 
ATOM     26  C   UNL     1      33.225 -11.114 -23.552  0.00  0.00    -0.022 C 
ATOM     27  C   UNL     1      32.422 -10.020 -23.260  0.00  0.00    -0.002 C 
ATOM     28  C   UNL     1      34.341 -10.983 -24.367  0.00  0.00    -0.002 C 
ATOM     29  C   UNL     1      32.741  -8.771 -23.793  0.00  0.00    +0.029 C 
ATOM     30  C   UNL     1      34.661  -9.734 -24.901  0.00  0.00    +0.029 C 
ATOM     31  C   UNL     1      33.860  -8.628 -24.613  0.00  0.00    +0.140 C 
ENDBRANCH  24  26
ENDBRANCH   3  24
TORSDOF 4
ENDMDL
MODEL 4
REMARK VINA RESULT:     -11.4      4.106      9.798
REMARK  Name = 10200813
REMARK  4 active torsions:
REMARK  status: ('A' for Active; 'I' for Inactive)
REMARK    1  A    between atoms: C_3  and  C_24
REMARK    2  A    between atoms: C_8  and  C_11
REMARK    3  A    between atoms: N_10  and  C_16
REMARK    4  A    between atoms: C_24  and  C_26
REMARK                            x       y       z     vdW  Elec       q    Type
REMARK                         _______ _______ _______ _____ _____    ______ ____
ROOT
ATOM      1  O   UNL     1      31.055 -23.642 -17.013  0.00  0.00    -0.265 OA
ATOM      2  N   UNL     1      32.928 -23.201 -15.664  0.00  0.00    -0.272 N 
ATOM      3  C   UNL     1      34.462 -24.061 -13.362  0.00  0.00    +0.008 C 
ATOM      4  C   UNL     1      32.986 -24.448 -13.541  0.00  0.00    +0.022 C 
ATOM      5  C   UNL     1      35.121 -23.830 -14.731  0.00  0.00    +0.022 C 
ATOM      6  C   UNL     1      32.245 -23.418 -14.391  0.00  0.00    +0.094 C 
ATOM      7  C   UNL     1      34.338 -22.814 -15.560  0.00  0.00    +0.094 C 
ATOM      8  C   UNL     1      32.226 -23.324 -16.854  0.00  0.00    +0.303 C 
ENDROOT
BRANCH   8  11
ATOM      9  O   UNL     1      33.481 -23.996 -18.671  0.00  0.00    -0.265 OA
ATOM     10  N   UNL     1      33.003 -21.693 -18.407  0.00  0.00    -0.277 N 
ATOM     11  C   UNL     1      32.984 -23.037 -18.094  0.00  0.00    +0.303 C 
ATOM     12  H   UNL     1      32.526 -21.093 -17.789  0.00  0.00    +0.155 HD
BRANCH  10  16
ATOM     13  O   UNL     1      32.928 -19.132 -22.552  0.00  0.00    -0.407 OA
ATOM     14  O   UNL     1      33.937 -18.122 -24.371  0.00  0.00    -0.223 OA
ATOM     15  N   UNL     1      35.212 -19.247 -22.778  0.00  0.00    -0.287 N 
ATOM     16  C   UNL     1      33.633 -21.081 -19.516  0.00  0.00    +0.054 C 
ATOM     17  C   UNL     1      32.849 -20.417 -20.452  0.00  0.00    +0.054 C 
ATOM     18  C   UNL     1      35.027 -21.164 -19.632  0.00  0.00    +0.016 C 
ATOM     19  C   UNL     1      33.512 -19.838 -21.512  0.00  0.00    +0.167 A 
ATOM     20  C   UNL     1      34.882 -19.917 -21.631  0.00  0.00    +0.096 A 
ATOM     21  C   UNL     1      35.678 -20.569 -20.715  0.00  0.00    +0.022 C 
ATOM     22  C   UNL     1      34.038 -18.771 -23.338  0.00  0.00    +0.419 A 
ATOM     23  H   UNL     1      36.120 -19.124 -23.141  0.00  0.00    +0.172 HD
ENDBRANCH  10  16
ENDBRANCH   8  11
BRANCH   3  24
ATOM     24  C   UNL     1      35.212 -25.131 -12.572  0.00  0.00    +0.026 C 
BRANCH  24  26
ATOM     25  F   UNL     1      40.362 -26.011 -14.644  0.00  0.00    -0.204 F 
ATOM     26  C   UNL     1      36.590 -25.366 -13.127  0.00  0.00    -0.022 C 
ATOM     27  C   UNL     1      36.781 -26.347 -14.090  0.00  0.00    -0.002 C 
ATOM     28  C   UNL     1      37.652 -24.600 -12.668  0.00  0.00    -0.002 C 
ATOM     29  C   UNL     1      38.060 -26.565 -14.605  0.00  0.00    +0.029 C 
ATOM     30  C   UNL     1      38.931 -24.817 -13.182  0.00  0.00    +0.029 C 
ATOM     31  C   UNL     1      39.134 -25.800 -14.151  0.00  0.00    +0.140 C 
ENDBRANCH  24  26
ENDBRANCH   3  24
TORSDOF 4
ENDMDL
MODEL 5
REMARK VINA RESULT:     -11.3      4.394      9.316
REMARK  Name = 10200813
REMARK  4 active torsions:
REMARK  status: ('A' for Active; 'I' for Inactive)
REMARK    1  A    between atoms: C_3  and  C_24
REMARK    2  A    between atoms: C_8  and  C_11
REMARK    3  A    between atoms: N_10  and  C_16
REMARK    4  A    between atoms: C_24  and  C_26
REMARK                            x       y       z     vdW  Elec       q    Type
REMARK                         _______ _______ _______ _____ _____    ______ ____
ROOT
ATOM      1  O   UNL     1      37.498 -22.612 -15.768  0.00  0.00    -0.265 OA
ATOM      2  N   UNL     1      35.338 -23.489 -16.067  0.00  0.00    -0.272 N 
ATOM      3  C   UNL     1      32.971 -24.499 -14.737  0.00  0.00    +0.008 C 
ATOM      4  C   UNL     1      34.345 -24.495 -14.050  0.00  0.00    +0.022 C 
ATOM      5  C   UNL     1      32.893 -23.371 -15.777  0.00  0.00    +0.022 C 
ATOM      6  C   UNL     1      35.475 -24.554 -15.076  0.00  0.00    +0.094 C 
ATOM      7  C   UNL     1      34.051 -23.450 -16.770  0.00  0.00    +0.094 C 
ATOM      8  C   UNL     1      36.402 -22.635 -16.314  0.00  0.00    +0.303 C 
ENDROOT
BRANCH   8  11
ATOM      9  O   UNL     1      36.932 -20.641 -17.347  0.00  0.00    -0.265 OA
ATOM     10  N   UNL     1      35.172 -21.950 -18.236  0.00  0.00    -0.277 N 
ATOM     11  C   UNL     1      36.194 -21.617 -17.370  0.00  0.00    +0.303 C 
ATOM     12  H   UNL     1      34.709 -22.801 -18.059  0.00  0.00    +0.155 HD
BRANCH  10  16
ATOM     13  O   UNL     1      35.889 -19.071 -22.101  0.00  0.00    -0.407 OA
ATOM     14  O   UNL     1      35.164 -17.848 -23.925  0.00  0.00    -0.223 OA
ATOM     15  N   UNL     1      33.644 -19.003 -22.589  0.00  0.00    -0.287 N 
ATOM     16  C   UNL     1      34.715 -21.205 -19.347  0.00  0.00    +0.054 C 
ATOM     17  C   UNL     1      35.642 -20.525 -20.128  0.00  0.00    +0.054 C 
ATOM     18  C   UNL     1      33.341 -21.178 -19.625  0.00  0.00    +0.016 C 
ATOM     19  C   UNL     1      35.145 -19.815 -21.199  0.00  0.00    +0.167 A 
ATOM     20  C   UNL     1      33.796 -19.786 -21.476  0.00  0.00    +0.096 A 
ATOM     21  C   UNL     1      32.860 -20.452 -20.716  0.00  0.00    +0.022 C 
ATOM     22  C   UNL     1      34.903 -18.569 -22.970  0.00  0.00    +0.419 A 
ATOM     23  H   UNL     1      32.794 -18.787 -23.038  0.00  0.00    +0.172 HD
ENDBRANCH  10  16
ENDBRANCH   8  11
BRANCH   3  24
ATOM     24  C   UNL     1      31.850 -24.368 -13.709  0.00  0.00    +0.026 C 
BRANCH  24  26
ATOM     25  F   UNL     1      26.919 -23.233 -16.157  0.00  0.00    -0.204 F 
ATOM     26  C   UNL     1      30.530 -24.064 -14.363  0.00  0.00    -0.022 C 
ATOM     27  C   UNL     1      29.694 -25.108 -14.734  0.00  0.00    -0.002 C 
ATOM     28  C   UNL     1      30.166 -22.743 -14.589  0.00  0.00    -0.002 C 
ATOM     29  C   UNL     1      28.470 -24.826 -15.342  0.00  0.00    +0.029 C 
ATOM     30  C   UNL     1      28.942 -22.461 -15.196  0.00  0.00    +0.029 C 
ATOM     31  C   UNL     1      28.094 -23.503 -15.572  0.00  0.00    +0.140 C 
ENDBRANCH  24  26
ENDBRANCH   3  24
TORSDOF 4
ENDMDL
MODEL 6
REMARK VINA RESULT:     -11.3      7.821     12.649
REMARK  Name = 10200813
REMARK  4 active torsions:
REMARK  status: ('A' for Active; 'I' for Inactive)
REMARK    1  A    between atoms: C_3  and  C_24
REMARK    2  A    between atoms: C_8  and  C_11
REMARK    3  A    between atoms: N_10  and  C_16
REMARK    4  A    between atoms: C_24  and  C_26
REMARK                            x       y       z     vdW  Elec       q    Type
REMARK                         _______ _______ _______ _____ _____    ______ ____
ROOT
ATOM      1  O   UNL     1      32.686 -16.423 -27.812  0.00  0.00    -0.265 OA
ATOM      2  N   UNL     1      33.048 -16.492 -25.490  0.00  0.00    -0.272 N 
ATOM      3  C   UNL     1      34.213 -17.993 -23.304  0.00  0.00    +0.008 C 
ATOM      4  C   UNL     1      33.833 -18.663 -24.633  0.00  0.00    +0.022 C 
ATOM      5  C   UNL     1      34.544 -16.510 -23.532  0.00  0.00    +0.022 C 
ATOM      6  C   UNL     1      32.706 -17.904 -25.332  0.00  0.00    +0.094 C 
ATOM      7  C   UNL     1      33.406 -15.792 -24.253  0.00  0.00    +0.094 C 
ATOM      8  C   UNL     1      32.976 -15.901 -26.743  0.00  0.00    +0.303 C 
ENDROOT
BRANCH   8  11
ATOM      9  O   UNL     1      34.064 -14.095 -27.681  0.00  0.00    -0.265 OA
ATOM     10  N   UNL     1      32.635 -13.727 -25.832  0.00  0.00    -0.277 N 
ATOM     11  C   UNL     1      33.290 -14.454 -26.804  0.00  0.00    +0.303 C 
ATOM     12  H   UNL     1      32.050 -14.235 -25.224  0.00  0.00    +0.155 HD
BRANCH  10  16
ATOM     13  O   UNL     1      33.110  -9.825 -22.951  0.00  0.00    -0.407 OA
ATOM     14  O   UNL     1      33.240  -7.548 -22.566  0.00  0.00    -0.223 OA
ATOM     15  N   UNL     1      32.958  -8.374 -24.727  0.00  0.00    -0.287 N 
ATOM     16  C   UNL     1      32.710 -12.332 -25.610  0.00  0.00    +0.054 C 
ATOM     17  C   UNL     1      32.878 -11.865 -24.312  0.00  0.00    +0.054 C 
ATOM     18  C   UNL     1      32.615 -11.467 -26.709  0.00  0.00    +0.016 C 
ATOM     19  C   UNL     1      32.946 -10.498 -24.151  0.00  0.00    +0.167 A 
ATOM     20  C   UNL     1      32.853  -9.644 -25.228  0.00  0.00    +0.096 A 
ATOM     21  C   UNL     1      32.687 -10.085 -26.522  0.00  0.00    +0.022 C 
ATOM     22  C   UNL     1      33.113  -8.477 -23.354  0.00  0.00    +0.419 A 
ATOM     23  H   UNL     1      32.928  -7.538 -25.247  0.00  0.00    +0.172 HD
ENDBRANCH  10  16
ENDBRANCH   8  11
BRANCH   3  24
ATOM     24  C   UNL     1      35.386 -18.717 -22.647  0.00  0.00    +0.026 C 
BRANCH  24  26
ATOM     25  F   UNL     1      33.667 -22.134 -18.528  0.00  0.00    -0.204 F 
ATOM     26  C   UNL     1      34.926 -19.632 -21.545  0.00  0.00    -0.022 C 
ATOM     27  C   UNL     1      33.568 -19.771 -21.294  0.00  0.00    -0.002 C 
ATOM     28  C   UNL     1      35.866 -20.325 -20.794  0.00  0.00    -0.002 C 
ATOM     29  C   UNL     1      33.142 -20.620 -20.272  0.00  0.00    +0.029 C 
ATOM     30  C   UNL     1      35.440 -21.173 -19.772  0.00  0.00    +0.029 C 
ATOM     31  C   UNL     1      34.077 -21.321 -19.511  0.00  0.00    +0.140 C 
ENDBRANCH  24  26
ENDBRANCH   3  24
TORSDOF 4
ENDMDL
MODEL 7
REMARK VINA RESULT:     -11.2      8.581     13.145
REMARK  Name = 10200813
REMARK  4 active torsions:
REMARK  status: ('A' for Active; 'I' for Inactive)
REMARK    1  A    between atoms: C_3  and  C_24
REMARK    2  A    between atoms: C_8  and  C_11
REMARK    3  A    between atoms: N_10  and  C_16
REMARK    4  A    between atoms: C_24  and  C_26
REMARK                            x       y       z     vdW  Elec       q    Type
REMARK                         _______ _______ _______ _____ _____    ______ ____
ROOT
ATOM      1  O   UNL     1      32.837 -12.397 -26.612  0.00  0.00    -0.265 OA
ATOM      2  N   UNL     1      33.148 -13.791 -24.745  0.00  0.00    -0.272 N 
ATOM      3  C   UNL     1      34.185 -16.331 -23.814  0.00  0.00    +0.008 C 
ATOM      4  C   UNL     1      33.796 -16.105 -25.284  0.00  0.00    +0.022 C 
ATOM      5  C   UNL     1      34.600 -15.002 -23.165  0.00  0.00    +0.022 C 
ATOM      6  C   UNL     1      32.727 -15.022 -25.411  0.00  0.00    +0.094 C 
ATOM      7  C   UNL     1      33.517 -13.938 -23.334  0.00  0.00    +0.094 C 
ATOM      8  C   UNL     1      33.133 -12.591 -25.439  0.00  0.00    +0.303 C 
ENDROOT
BRANCH   8  11
ATOM      9  O   UNL     1      34.725 -11.197 -24.519  0.00  0.00    -0.265 OA
ATOM     10  N   UNL     1      32.439 -10.649 -24.247  0.00  0.00    -0.277 N 
ATOM     11  C   UNL     1      33.525 -11.386 -24.673  0.00  0.00    +0.303 C 
ATOM     12  H   UNL     1      31.551 -10.996 -24.493  0.00  0.00    +0.155 HD
BRANCH  10  16
ATOM     13  O   UNL     1      32.456  -8.176 -20.048  0.00  0.00    -0.407 OA
ATOM     14  O   UNL     1      32.492  -6.229 -18.801  0.00  0.00    -0.223 OA
ATOM     15  N   UNL     1      32.515  -6.149 -21.129  0.00  0.00    -0.287 N 
ATOM     16  C   UNL     1      32.459  -9.450 -23.496  0.00  0.00    +0.054 C 
ATOM     17  C   UNL     1      32.444  -9.526 -22.109  0.00  0.00    +0.054 C 
ATOM     18  C   UNL     1      32.495  -8.226 -24.178  0.00  0.00    +0.016 C 
ATOM     19  C   UNL     1      32.466  -8.329 -21.425  0.00  0.00    +0.167 A 
ATOM     20  C   UNL     1      32.501  -7.124 -22.091  0.00  0.00    +0.096 A 
ATOM     21  C   UNL     1      32.517  -7.026 -23.464  0.00  0.00    +0.022 C 
ATOM     22  C   UNL     1      32.488  -6.778 -19.895  0.00  0.00    +0.419 A 
ATOM     23  H   UNL     1      32.540  -5.177 -21.286  0.00  0.00    +0.172 HD
ENDBRANCH  10  16
ENDBRANCH   8  11
BRANCH   3  24
ATOM     24  C   UNL     1      35.304 -17.364 -23.702  0.00  0.00    +0.026 C 
BRANCH  24  26
ATOM     25  F   UNL     1      34.325 -21.033 -19.558  0.00  0.00    -0.204 F 
ATOM     26  C   UNL     1      35.042 -18.345 -22.592  0.00  0.00    -0.022 C 
ATOM     27  C   UNL     1      36.067 -18.678 -21.717  0.00  0.00    -0.002 C 
ATOM     28  C   UNL     1      33.779 -18.906 -22.460  0.00  0.00    -0.002 C 
ATOM     29  C   UNL     1      35.823 -19.589 -20.689  0.00  0.00    +0.029 C 
ATOM     30  C   UNL     1      33.535 -19.817 -21.431  0.00  0.00    +0.029 C 
ATOM     31  C   UNL     1      34.558 -20.158 -20.546  0.00  0.00    +0.140 C 
ENDBRANCH  24  26
ENDBRANCH   3  24
TORSDOF 4
ENDMDL
MODEL 8
REMARK VINA RESULT:     -11.0      4.932     10.990
REMARK  Name = 10200813
REMARK  4 active torsions:
REMARK  status: ('A' for Active; 'I' for Inactive)
REMARK    1  A    between atoms: C_3  and  C_24
REMARK    2  A    between atoms: C_8  and  C_11
REMARK    3  A    between atoms: N_10  and  C_16
REMARK    4  A    between atoms: C_24  and  C_26
REMARK                            x       y       z     vdW  Elec       q    Type
REMARK                         _______ _______ _______ _____ _____    ______ ____
ROOT
ATOM      1  O   UNL     1      36.754 -19.410 -19.913  0.00  0.00    -0.265 OA
ATOM      2  N   UNL     1      35.500 -21.330 -19.394  0.00  0.00    -0.272 N 
ATOM      3  C   UNL     1      34.517 -23.030 -17.265  0.00  0.00    +0.008 C 
ATOM      4  C   UNL     1      35.744 -22.125 -17.076  0.00  0.00    +0.022 C 
ATOM      5  C   UNL     1      33.576 -22.435 -18.323  0.00  0.00    +0.022 C 
ATOM      6  C   UNL     1      36.442 -21.856 -18.408  0.00  0.00    +0.094 C 
ATOM      7  C   UNL     1      34.314 -22.158 -19.631  0.00  0.00    +0.094 C 
ATOM      8  C   UNL     1      35.787 -20.148 -20.060  0.00  0.00    +0.303 C 
ENDROOT
BRANCH   8  11
ATOM      9  O   UNL     1      33.625 -19.943 -20.839  0.00  0.00    -0.265 OA
ATOM     10  N   UNL     1      35.396 -19.103 -22.165  0.00  0.00    -0.277 N 
ATOM     11  C   UNL     1      34.803 -19.715 -21.079  0.00  0.00    +0.303 C 
ATOM     12  H   UNL     1      36.378 -19.026 -22.142  0.00  0.00    +0.155 HD
BRANCH  10  16
ATOM     13  O   UNL     1      33.650 -15.416 -24.830  0.00  0.00    -0.407 OA
ATOM     14  O   UNL     1      32.601 -14.532 -26.692  0.00  0.00    -0.223 OA
ATOM     15  N   UNL     1      32.930 -16.830 -26.493  0.00  0.00    -0.287 N 
ATOM     16  C   UNL     1      34.751 -18.576 -23.308  0.00  0.00    +0.054 C 
ATOM     17  C   UNL     1      34.566 -17.202 -23.402  0.00  0.00    +0.054 C 
ATOM     18  C   UNL     1      34.321 -19.458 -24.309  0.00  0.00    +0.016 C 
ATOM     19  C   UNL     1      33.934 -16.740 -24.536  0.00  0.00    +0.167 A 
ATOM     20  C   UNL     1      33.509 -17.603 -25.522  0.00  0.00    +0.096 A 
ATOM     21  C   UNL     1      33.682 -18.968 -25.450  0.00  0.00    +0.022 C 
ATOM     22  C   UNL     1      33.013 -15.510 -26.081  0.00  0.00    +0.419 A 
ATOM     23  H   UNL     1      32.529 -17.153 -27.332  0.00  0.00    +0.172 HD
ENDBRANCH  10  16
ENDBRANCH   8  11
BRANCH   3  24
ATOM     24  C   UNL     1      33.786 -23.236 -15.940  0.00  0.00    +0.026 C 
BRANCH  24  26
ATOM     25  F   UNL     1      36.933 -26.082 -12.254  0.00  0.00    -0.204 F 
ATOM     26  C   UNL     1      34.628 -23.997 -14.954  0.00  0.00    -0.022 C 
ATOM     27  C   UNL     1      35.330 -25.118 -15.376  0.00  0.00    -0.002 C 
ATOM     28  C   UNL     1      34.692 -23.569 -13.635  0.00  0.00    -0.002 C 
ATOM     29  C   UNL     1      36.111 -25.824 -14.461  0.00  0.00    +0.029 C 
ATOM     30  C   UNL     1      35.474 -24.275 -12.720  0.00  0.00    +0.029 C 
ATOM     31  C   UNL     1      36.183 -25.403 -13.133  0.00  0.00    +0.140 C 
ENDBRANCH  24  26
ENDBRANCH   3  24
TORSDOF 4
ENDMDL
MODEL 9
REMARK VINA RESULT:     -11.0      4.347      9.491
REMARK  Name = 10200813
REMARK  4 active torsions:
REMARK  status: ('A' for Active; 'I' for Inactive)
REMARK    1  A    between atoms: C_3  and  C_24
REMARK    2  A    between atoms: C_8  and  C_11
REMARK    3  A    between atoms: N_10  and  C_16
REMARK    4  A    between atoms: C_24  and  C_26
REMARK                            x       y       z     vdW  Elec       q    Type
REMARK                         _______ _______ _______ _____ _____    ______ ____
ROOT
ATOM      1  O   UNL     1      37.003 -21.534 -17.064  0.00  0.00    -0.265 OA
ATOM      2  N   UNL     1      35.167 -22.966 -16.744  0.00  0.00    -0.272 N 
ATOM      3  C   UNL     1      33.118 -23.836 -14.890  0.00  0.00    +0.008 C 
ATOM      4  C   UNL     1      34.420 -23.178 -14.407  0.00  0.00    +0.022 C 
ATOM      5  C   UNL     1      32.772 -23.353 -16.307  0.00  0.00    +0.022 C 
ATOM      6  C   UNL     1      35.555 -23.402 -15.404  0.00  0.00    +0.094 C 
ATOM      7  C   UNL     1      33.938 -23.571 -17.268  0.00  0.00    +0.094 C 
ATOM      8  C   UNL     1      35.970 -22.074 -17.439  0.00  0.00    +0.303 C 
ENDROOT
BRANCH   8  11
ATOM      9  O   UNL     1      34.799 -22.531 -19.374  0.00  0.00    -0.265 OA
ATOM     10  N   UNL     1      36.026 -20.512 -19.236  0.00  0.00    -0.277 N 
ATOM     11  C   UNL     1      35.529 -21.726 -18.810  0.00  0.00    +0.303 C 
ATOM     12  H   UNL     1      36.603 -20.027 -18.601  0.00  0.00    +0.155 HD
BRANCH  10  16
ATOM     13  O   UNL     1      33.155 -19.108 -22.915  0.00  0.00    -0.407 OA
ATOM     14  O   UNL     1      32.765 -18.087 -24.953  0.00  0.00    -0.223 OA
ATOM     15  N   UNL     1      34.910 -18.146 -24.046  0.00  0.00    -0.287 N 
ATOM     16  C   UNL     1      35.802 -19.886 -20.484  0.00  0.00    +0.054 C 
ATOM     17  C   UNL     1      34.513 -19.865 -21.004  0.00  0.00    +0.054 C 
ATOM     18  C   UNL     1      36.887 -19.306 -21.155  0.00  0.00    +0.016 C 
ATOM     19  C   UNL     1      34.348 -19.242 -22.222  0.00  0.00    +0.167 A 
ATOM     20  C   UNL     1      35.412 -18.671 -22.885  0.00  0.00    +0.096 A 
ATOM     21  C   UNL     1      36.697 -18.680 -22.389  0.00  0.00    +0.022 C 
ATOM     22  C   UNL     1      33.550 -18.407 -24.069  0.00  0.00    +0.419 A 
ATOM     23  H   UNL     1      35.423 -17.669 -24.739  0.00  0.00    +0.172 HD
ENDBRANCH  10  16
ENDBRANCH   8  11
BRANCH   3  24
ATOM     24  C   UNL     1      31.972 -23.547 -13.923  0.00  0.00    +0.026 C 
BRANCH  24  26
ATOM     25  F   UNL     1      26.982 -23.778 -16.499  0.00  0.00    -0.204 F 
ATOM     26  C   UNL     1      30.637 -23.609 -14.611  0.00  0.00    -0.022 C 
ATOM     27  C   UNL     1      30.126 -24.839 -15.004  0.00  0.00    -0.002 C 
ATOM     28  C   UNL     1      29.933 -22.435 -14.846  0.00  0.00    -0.002 C 
ATOM     29  C   UNL     1      28.887 -24.896 -15.643  0.00  0.00    +0.029 C 
ATOM     30  C   UNL     1      28.694 -22.492 -15.485  0.00  0.00    +0.029 C 
ATOM     31  C   UNL     1      28.171 -23.723 -15.883  0.00  0.00    +0.140 C 
ENDBRANCH  24  26
ENDBRANCH   3  24
TORSDOF 4
ENDMDL
