MODEL 1
REMARK VINA RESULT:     -13.4      0.000      0.000
REMARK  Name = 54766013
REMARK  5 active torsions:
REMARK  status: ('A' for Active; 'I' for Inactive)
REMARK    1  A    between atoms: C_3  and  C_11
REMARK    2  A    between atoms: C_4  and  C_18
REMARK    3  A    between atoms: C_5  and  C_24
REMARK    4  A    between atoms: C_24  and  N_25
REMARK    5  A    between atoms: N_25  and  C_28
REMARK                            x       y       z     vdW  Elec       q    Type
REMARK                         _______ _______ _______ _____ _____    ______ ____
ROOT
ATOM      1  N   UNL     1      34.776 -23.487 -14.419  0.00  0.00    -0.315 N 
ATOM      2  N   UNL     1      32.989 -24.105 -13.256  0.00  0.00    -0.317 N 
ATOM      3  C   UNL     1      32.635 -23.823 -14.551  0.00  0.00    +0.063 C 
ATOM      4  C   UNL     1      33.727 -23.437 -15.292  0.00  0.00    +0.085 C 
ATOM      5  C   UNL     1      34.286 -23.893 -13.209  0.00  0.00    +0.164 C 
ATOM      6  H   UNL     1      35.715 -23.270 -14.623  0.00  0.00    +0.148 HD
ATOM      7  H   UNL     1      32.402 -24.401 -12.523  0.00  0.00    +0.148 HD
ENDROOT
BRANCH   3  11
ATOM      8  N   UNL     1      29.361 -23.049 -16.167  0.00  0.00    -0.170 N 
ATOM      9  N   UNL     1      28.648 -22.164 -16.908  0.00  0.00    -0.150 NA
ATOM     10  N   UNL     1      27.353 -23.974 -16.388  0.00  0.00    -0.206 NA
ATOM     11  C   UNL     1      31.234 -23.946 -15.001  0.00  0.00    +0.031 C 
ATOM     12  C   UNL     1      30.688 -22.956 -15.738  0.00  0.00    +0.092 C 
ATOM     13  C   UNL     1      30.388 -25.097 -14.674  0.00  0.00    +0.006 C 
ATOM     14  C   UNL     1      28.546 -24.142 -15.864  0.00  0.00    +0.157 C 
ATOM     15  C   UNL     1      29.111 -25.188 -15.086  0.00  0.00    +0.036 C 
ATOM     16  C   UNL     1      27.464 -22.767 -17.007  0.00  0.00    +0.219 C 
ENDBRANCH   3  11
BRANCH   4  18
ATOM     17  N   UNL     1      35.050 -22.443 -16.963  0.00  0.00    -0.409 NA
ATOM     18  C   UNL     1      33.876 -23.045 -16.671  0.00  0.00    +0.127 C 
ATOM     19  C   UNL     1      32.876 -23.287 -17.600  0.00  0.00    +0.086 C 
ATOM     20  C   UNL     1      35.227 -22.064 -18.248  0.00  0.00    +0.109 C 
ATOM     21  C   UNL     1      33.096 -22.882 -18.912  0.00  0.00    -0.016 C 
ATOM     22  C   UNL     1      34.291 -22.259 -19.251  0.00  0.00    +0.023 C 
ATOM     23  C   UNL     1      36.522 -21.396 -18.576  0.00  0.00    +0.066 C 
ENDBRANCH   4  18
BRANCH   5  24
ATOM     24  C   UNL     1      35.166 -24.051 -12.037  0.00  0.00    +0.128 C 
BRANCH  24  25
ATOM     25  N   UNL     1      35.876 -25.319 -12.071  0.00  0.00    -0.328 N 
ATOM     26  H   UNL     1      35.595 -26.028 -11.449  0.00  0.00    +0.147 HD
BRANCH  25  28
ATOM     27  F   UNL     1      38.299 -24.010 -11.792  0.00  0.00    -0.203 F 
ATOM     28  C   UNL     1      36.926 -25.579 -12.929  0.00  0.00    +0.073 C 
ATOM     29  C   UNL     1      38.139 -24.909 -12.774  0.00  0.00    +0.153 C 
ATOM     30  C   UNL     1      36.770 -26.512 -13.955  0.00  0.00    +0.017 C 
ATOM     31  C   UNL     1      39.198 -25.173 -13.642  0.00  0.00    +0.031 C 
ATOM     32  C   UNL     1      37.830 -26.776 -14.824  0.00  0.00    +0.001 C 
ATOM     33  C   UNL     1      39.044 -26.106 -14.667  0.00  0.00    +0.002 C 
ENDBRANCH  25  28
ENDBRANCH  24  25
ENDBRANCH   5  24
TORSDOF 5
ENDMDL
MODEL 2
REMARK VINA RESULT:     -12.9      3.231      6.944
REMARK  Name = 54766013
REMARK  5 active torsions:
REMARK  status: ('A' for Active; 'I' for Inactive)
REMARK    1  A    between atoms: C_3  and  C_11
REMARK    2  A    between atoms: C_4  and  C_18
REMARK    3  A    between atoms: C_5  and  C_24
REMARK    4  A    between atoms: C_24  and  N_25
REMARK    5  A    between atoms: N_25  and  C_28
REMARK                            x       y       z     vdW  Elec       q    Type
REMARK                         _______ _______ _______ _____ _____    ______ ____
ROOT
ATOM      1  N   UNL     1      36.729 -22.389 -16.875  0.00  0.00    -0.315 N 
ATOM      2  N   UNL     1      34.586 -22.393 -17.458  0.00  0.00    -0.317 N 
ATOM      3  C   UNL     1      34.748 -23.025 -16.251  0.00  0.00    +0.063 C 
ATOM      4  C   UNL     1      36.069 -23.034 -15.868  0.00  0.00    +0.085 C 
ATOM      5  C   UNL     1      35.798 -22.022 -17.807  0.00  0.00    +0.164 C 
ATOM      6  H   UNL     1      37.698 -22.218 -16.922  0.00  0.00    +0.148 HD
ATOM      7  H   UNL     1      33.747 -22.249 -17.954  0.00  0.00    +0.148 HD
ENDROOT
BRANCH   3  11
ATOM      8  N   UNL     1      31.261 -24.063 -15.421  0.00  0.00    -0.170 N 
ATOM      9  N   UNL     1      29.966 -24.102 -15.827  0.00  0.00    -0.150 NA
ATOM     10  N   UNL     1      30.169 -25.057 -13.761  0.00  0.00    -0.206 NA
ATOM     11  C   UNL     1      33.593 -23.591 -15.527  0.00  0.00    +0.031 C 
ATOM     12  C   UNL     1      32.369 -23.540 -16.093  0.00  0.00    +0.092 C 
ATOM     13  C   UNL     1      33.704 -24.204 -14.200  0.00  0.00    +0.006 C 
ATOM     14  C   UNL     1      31.355 -24.651 -14.158  0.00  0.00    +0.157 C 
ATOM     15  C   UNL     1      32.638 -24.707 -13.552  0.00  0.00    +0.036 C 
ATOM     16  C   UNL     1      29.367 -24.703 -14.801  0.00  0.00    +0.219 C 
ENDBRANCH   3  11
BRANCH   4  18
ATOM     17  N   UNL     1      37.690 -24.487 -14.979  0.00  0.00    -0.409 NA
ATOM     18  C   UNL     1      36.741 -23.564 -14.708  0.00  0.00    +0.127 C 
ATOM     19  C   UNL     1      36.416 -23.136 -13.431  0.00  0.00    +0.086 C 
ATOM     20  C   UNL     1      38.344 -25.005 -13.915  0.00  0.00    +0.109 C 
ATOM     21  C   UNL     1      37.112 -23.692 -12.363  0.00  0.00    -0.016 C 
ATOM     22  C   UNL     1      38.096 -24.644 -12.600  0.00  0.00    +0.023 C 
ATOM     23  C   UNL     1      39.393 -26.027 -14.208  0.00  0.00    +0.066 C 
ENDBRANCH   4  18
BRANCH   5  24
ATOM     24  C   UNL     1      36.182 -21.298 -19.033  0.00  0.00    +0.128 C 
BRANCH  24  25
ATOM     25  N   UNL     1      35.018 -20.790 -19.741  0.00  0.00    -0.328 N 
ATOM     26  H   UNL     1      34.127 -21.084 -19.444  0.00  0.00    +0.147 HD
BRANCH  25  28
ATOM     27  F   UNL     1      32.786 -20.199 -21.266  0.00  0.00    -0.203 F 
ATOM     28  C   UNL     1      35.099 -19.919 -20.808  0.00  0.00    +0.073 C 
ATOM     29  C   UNL     1      33.964 -19.633 -21.567  0.00  0.00    +0.153 C 
ATOM     30  C   UNL     1      36.321 -19.326 -21.131  0.00  0.00    +0.017 C 
ATOM     31  C   UNL     1      34.048 -18.753 -22.645  0.00  0.00    +0.031 C 
ATOM     32  C   UNL     1      36.405 -18.445 -22.210  0.00  0.00    +0.001 C 
ATOM     33  C   UNL     1      35.269 -18.159 -22.967  0.00  0.00    +0.002 C 
ENDBRANCH  25  28
ENDBRANCH  24  25
ENDBRANCH   5  24
TORSDOF 5
ENDMDL
MODEL 3
REMARK VINA RESULT:     -12.9      2.952      7.994
REMARK  Name = 54766013
REMARK  5 active torsions:
REMARK  status: ('A' for Active; 'I' for Inactive)
REMARK    1  A    between atoms: C_3  and  C_11
REMARK    2  A    between atoms: C_4  and  C_18
REMARK    3  A    between atoms: C_5  and  C_24
REMARK    4  A    between atoms: C_24  and  N_25
REMARK    5  A    between atoms: N_25  and  C_28
REMARK                            x       y       z     vdW  Elec       q    Type
REMARK                         _______ _______ _______ _____ _____    ______ ____
ROOT
ATOM      1  N   UNL     1      32.444 -22.750 -17.657  0.00  0.00    -0.315 N 
ATOM      2  N   UNL     1      34.664 -22.763 -17.627  0.00  0.00    -0.317 N 
ATOM      3  C   UNL     1      34.173 -23.373 -16.500  0.00  0.00    +0.063 C 
ATOM      4  C   UNL     1      32.798 -23.377 -16.496  0.00  0.00    +0.085 C 
ATOM      5  C   UNL     1      33.597 -22.399 -18.303  0.00  0.00    +0.164 C 
ATOM      6  H   UNL     1      31.526 -22.582 -17.972  0.00  0.00    +0.148 HD
ATOM      7  H   UNL     1      35.608 -22.628 -17.875  0.00  0.00    +0.148 HD
ENDROOT
BRANCH   3  11
ATOM      8  N   UNL     1      36.545 -23.588 -13.626  0.00  0.00    -0.170 N 
ATOM      9  N   UNL     1      37.225 -22.909 -12.669  0.00  0.00    -0.150 NA
ATOM     10  N   UNL     1      37.685 -25.142 -12.521  0.00  0.00    -0.206 NA
ATOM     11  C   UNL     1      35.082 -23.924 -15.476  0.00  0.00    +0.031 C 
ATOM     12  C   UNL     1      35.674 -23.088 -14.598  0.00  0.00    +0.092 C 
ATOM     13  C   UNL     1      35.392 -25.353 -15.369  0.00  0.00    +0.006 C 
ATOM     14  C   UNL     1      36.845 -24.948 -13.513  0.00  0.00    +0.157 C 
ATOM     15  C   UNL     1      36.230 -25.836 -14.434  0.00  0.00    +0.036 C 
ATOM     16  C   UNL     1      37.883 -23.883 -12.044  0.00  0.00    +0.219 C 
ENDBRANCH   3  11
BRANCH   4  18
ATOM     17  N   UNL     1      30.554 -23.874 -15.998  0.00  0.00    -0.409 NA
ATOM     18  C   UNL     1      31.831 -23.886 -15.556  0.00  0.00    +0.127 C 
ATOM     19  C   UNL     1      32.216 -24.348 -14.307  0.00  0.00    +0.086 C 
ATOM     20  C   UNL     1      29.619 -24.346 -15.144  0.00  0.00    +0.109 C 
ATOM     21  C   UNL     1      31.224 -24.827 -13.458  0.00  0.00    -0.016 C 
ATOM     22  C   UNL     1      29.899 -24.830 -13.877  0.00  0.00    +0.023 C 
ATOM     23  C   UNL     1      28.206 -24.333 -15.627  0.00  0.00    +0.066 C 
ENDBRANCH   4  18
BRANCH   5  24
ATOM     24  C   UNL     1      33.567 -21.699 -19.600  0.00  0.00    +0.128 C 
BRANCH  24  25
ATOM     25  N   UNL     1      34.640 -20.724 -19.705  0.00  0.00    -0.328 N 
ATOM     26  H   UNL     1      35.275 -20.647 -18.958  0.00  0.00    +0.147 HD
BRANCH  25  28
ATOM     27  F   UNL     1      37.114 -19.627 -20.284  0.00  0.00    -0.203 F 
ATOM     28  C   UNL     1      34.812 -19.900 -20.799  0.00  0.00    +0.073 C 
ATOM     29  C   UNL     1      36.066 -19.355 -21.075  0.00  0.00    +0.153 C 
ATOM     30  C   UNL     1      33.728 -19.609 -21.628  0.00  0.00    +0.017 C 
ATOM     31  C   UNL     1      36.238 -18.522 -22.180  0.00  0.00    +0.031 C 
ATOM     32  C   UNL     1      33.900 -18.776 -22.734  0.00  0.00    +0.001 C 
ATOM     33  C   UNL     1      35.155 -18.233 -23.010  0.00  0.00    +0.002 C 
ENDBRANCH  25  28
ENDBRANCH  24  25
ENDBRANCH   5  24
TORSDOF 5
ENDMDL
MODEL 4
REMARK VINA RESULT:     -12.9      2.624      6.398
REMARK  Name = 54766013
REMARK  5 active torsions:
REMARK  status: ('A' for Active; 'I' for Inactive)
REMARK    1  A    between atoms: C_3  and  C_11
REMARK    2  A    between atoms: C_4  and  C_18
REMARK    3  A    between atoms: C_5  and  C_24
REMARK    4  A    between atoms: C_24  and  N_25
REMARK    5  A    between atoms: N_25  and  C_28
REMARK                            x       y       z     vdW  Elec       q    Type
REMARK                         _______ _______ _______ _____ _____    ______ ____
ROOT
ATOM      1  N   UNL     1      36.537 -22.904 -16.132  0.00  0.00    -0.315 N 
ATOM      2  N   UNL     1      34.542 -22.434 -16.986  0.00  0.00    -0.317 N 
ATOM      3  C   UNL     1      34.409 -23.280 -15.915  0.00  0.00    +0.063 C 
ATOM      4  C   UNL     1      35.633 -23.586 -15.368  0.00  0.00    +0.085 C 
ATOM      5  C   UNL     1      35.836 -22.226 -17.091  0.00  0.00    +0.164 C 
ATOM      6  H   UNL     1      37.515 -22.899 -16.013  0.00  0.00    +0.148 HD
ATOM      7  H   UNL     1      33.827 -22.064 -17.553  0.00  0.00    +0.148 HD
ENDROOT
BRANCH   3  11
ATOM      8  N   UNL     1      30.722 -23.847 -15.799  0.00  0.00    -0.170 N 
ATOM      9  N   UNL     1      29.524 -23.615 -16.392  0.00  0.00    -0.150 NA
ATOM     10  N   UNL     1      29.236 -24.882 -14.512  0.00  0.00    -0.206 NA
ATOM     11  C   UNL     1      33.080 -23.751 -15.477  0.00  0.00    +0.031 C 
ATOM     12  C   UNL     1      31.991 -23.419 -16.200  0.00  0.00    +0.092 C 
ATOM     13  C   UNL     1      32.876 -24.561 -14.273  0.00  0.00    +0.006 C 
ATOM     14  C   UNL     1      30.516 -24.621 -14.655  0.00  0.00    +0.157 C 
ATOM     15  C   UNL     1      31.656 -24.974 -13.885  0.00  0.00    +0.036 C 
ATOM     16  C   UNL     1      28.680 -24.254 -15.583  0.00  0.00    +0.219 C 
ENDBRANCH   3  11
BRANCH   4  18
ATOM     17  N   UNL     1      35.753 -23.886 -13.038  0.00  0.00    -0.409 NA
ATOM     18  C   UNL     1      36.020 -24.414 -14.253  0.00  0.00    +0.127 C 
ATOM     19  C   UNL     1      36.612 -25.652 -14.448  0.00  0.00    +0.086 C 
ATOM     20  C   UNL     1      36.099 -24.637 -11.968  0.00  0.00    +0.109 C 
ATOM     21  C   UNL     1      36.953 -26.394 -13.322  0.00  0.00    -0.016 C 
ATOM     22  C   UNL     1      36.695 -25.885 -12.056  0.00  0.00    +0.023 C 
ATOM     23  C   UNL     1      35.809 -24.057 -10.624  0.00  0.00    +0.066 C 
ENDBRANCH   4  18
BRANCH   5  24
ATOM     24  C   UNL     1      36.519 -21.383 -18.089  0.00  0.00    +0.128 C 
BRANCH  24  25
ATOM     25  N   UNL     1      36.039 -21.652 -19.434  0.00  0.00    -0.328 N 
ATOM     26  H   UNL     1      36.317 -22.490 -19.869  0.00  0.00    +0.147 HD
BRANCH  25  28
ATOM     27  F   UNL     1      37.085 -19.532 -20.873  0.00  0.00    -0.203 F 
ATOM     28  C   UNL     1      35.214 -20.793 -20.132  0.00  0.00    +0.073 C 
ATOM     29  C   UNL     1      35.759 -19.730 -20.851  0.00  0.00    +0.153 C 
ATOM     30  C   UNL     1      33.832 -20.988 -20.116  0.00  0.00    +0.017 C 
ATOM     31  C   UNL     1      34.925 -18.862 -21.555  0.00  0.00    +0.031 C 
ATOM     32  C   UNL     1      32.997 -20.121 -20.820  0.00  0.00    +0.001 C 
ATOM     33  C   UNL     1      33.543 -19.058 -21.540  0.00  0.00    +0.002 C 
ENDBRANCH  25  28
ENDBRANCH  24  25
ENDBRANCH   5  24
TORSDOF 5
ENDMDL
MODEL 5
REMARK VINA RESULT:     -12.9      2.568      7.345
REMARK  Name = 54766013
REMARK  5 active torsions:
REMARK  status: ('A' for Active; 'I' for Inactive)
REMARK    1  A    between atoms: C_3  and  C_11
REMARK    2  A    between atoms: C_4  and  C_18
REMARK    3  A    between atoms: C_5  and  C_24
REMARK    4  A    between atoms: C_24  and  N_25
REMARK    5  A    between atoms: N_25  and  C_28
REMARK                            x       y       z     vdW  Elec       q    Type
REMARK                         _______ _______ _______ _____ _____    ______ ____
ROOT
ATOM      1  N   UNL     1      32.925 -22.944 -14.948  0.00  0.00    -0.315 N 
ATOM      2  N   UNL     1      33.685 -24.531 -13.594  0.00  0.00    -0.317 N 
ATOM      3  C   UNL     1      34.591 -24.292 -14.596  0.00  0.00    +0.063 C 
ATOM      4  C   UNL     1      34.142 -23.311 -15.448  0.00  0.00    +0.085 C 
ATOM      5  C   UNL     1      32.692 -23.703 -13.835  0.00  0.00    +0.164 C 
ATOM      6  H   UNL     1      32.325 -22.257 -15.321  0.00  0.00    +0.148 HD
ATOM      7  H   UNL     1      33.760 -25.180 -12.857  0.00  0.00    +0.148 HD
ENDROOT
BRANCH   3  11
ATOM      8  N   UNL     1      38.213 -25.144 -14.310  0.00  0.00    -0.170 N 
ATOM      9  N   UNL     1      39.447 -24.724 -13.933  0.00  0.00    -0.150 NA
ATOM     10  N   UNL     1      39.563 -26.851 -14.760  0.00  0.00    -0.206 NA
ATOM     11  C   UNL     1      35.861 -25.042 -14.668  0.00  0.00    +0.031 C 
ATOM     12  C   UNL     1      36.999 -24.456 -14.242  0.00  0.00    +0.092 C 
ATOM     13  C   UNL     1      35.955 -26.405 -15.199  0.00  0.00    +0.006 C 
ATOM     14  C   UNL     1      38.314 -26.444 -14.811  0.00  0.00    +0.157 C 
ATOM     15  C   UNL     1      37.122 -27.069 -15.265  0.00  0.00    +0.036 C 
ATOM     16  C   UNL     1      40.206 -25.779 -14.224  0.00  0.00    +0.219 C 
ENDBRANCH   3  11
BRANCH   4  18
ATOM     17  N   UNL     1      33.874 -22.632 -17.684  0.00  0.00    -0.409 NA
ATOM     18  C   UNL     1      34.715 -22.713 -16.628  0.00  0.00    +0.127 C 
ATOM     19  C   UNL     1      36.026 -22.264 -16.644  0.00  0.00    +0.086 C 
ATOM     20  C   UNL     1      34.375 -22.074 -18.809  0.00  0.00    +0.109 C 
ATOM     21  C   UNL     1      36.504 -21.696 -17.820  0.00  0.00    -0.016 C 
ATOM     22  C   UNL     1      35.670 -21.595 -18.927  0.00  0.00    +0.023 C 
ATOM     23  C   UNL     1      33.452 -21.984 -19.978  0.00  0.00    +0.066 C 
ENDBRANCH   4  18
BRANCH   5  24
ATOM     24  C   UNL     1      31.454 -23.554 -13.049  0.00  0.00    +0.128 C 
BRANCH  24  25
ATOM     25  N   UNL     1      30.391 -24.403 -13.562  0.00  0.00    -0.328 N 
ATOM     26  H   UNL     1      30.228 -25.266 -13.117  0.00  0.00    +0.147 HD
BRANCH  25  28
ATOM     27  F   UNL     1      29.248 -26.351 -15.161  0.00  0.00    -0.203 F 
ATOM     28  C   UNL     1      29.600 -24.061 -14.640  0.00  0.00    +0.073 C 
ATOM     29  C   UNL     1      29.032 -25.057 -15.436  0.00  0.00    +0.153 C 
ATOM     30  C   UNL     1      29.370 -22.717 -14.936  0.00  0.00    +0.017 C 
ATOM     31  C   UNL     1      28.234 -24.710 -16.525  0.00  0.00    +0.031 C 
ATOM     32  C   UNL     1      28.571 -22.370 -16.026  0.00  0.00    +0.001 C 
ATOM     33  C   UNL     1      28.003 -23.366 -16.820  0.00  0.00    +0.002 C 
ENDBRANCH  25  28
ENDBRANCH  24  25
ENDBRANCH   5  24
TORSDOF 5
ENDMDL
MODEL 6
REMARK VINA RESULT:     -12.8      2.486      7.214
REMARK  Name = 54766013
REMARK  5 active torsions:
REMARK  status: ('A' for Active; 'I' for Inactive)
REMARK    1  A    between atoms: C_3  and  C_11
REMARK    2  A    between atoms: C_4  and  C_18
REMARK    3  A    between atoms: C_5  and  C_24
REMARK    4  A    between atoms: C_24  and  N_25
REMARK    5  A    between atoms: N_25  and  C_28
REMARK                            x       y       z     vdW  Elec       q    Type
REMARK                         _______ _______ _______ _____ _____    ______ ____
ROOT
ATOM      1  N   UNL     1      33.613 -24.737 -13.237  0.00  0.00    -0.315 N 
ATOM      2  N   UNL     1      32.774 -23.912 -15.120  0.00  0.00    -0.317 N 
ATOM      3  C   UNL     1      34.121 -23.660 -15.053  0.00  0.00    +0.063 C 
ATOM      4  C   UNL     1      34.664 -24.163 -13.894  0.00  0.00    +0.085 C 
ATOM      5  C   UNL     1      32.499 -24.562 -14.010  0.00  0.00    +0.164 C 
ATOM      6  H   UNL     1      33.650 -25.195 -12.365  0.00  0.00    +0.148 HD
ATOM      7  H   UNL     1      32.150 -23.661 -15.839  0.00  0.00    +0.148 HD
ENDROOT
BRANCH   3  11
ATOM      8  N   UNL     1      34.838 -22.100 -18.367  0.00  0.00    -0.170 N 
ATOM      9  N   UNL     1      34.382 -21.846 -19.619  0.00  0.00    -0.150 NA
ATOM     10  N   UNL     1      36.483 -20.986 -19.362  0.00  0.00    -0.206 NA
ATOM     11  C   UNL     1      34.814 -22.935 -16.136  0.00  0.00    +0.031 C 
ATOM     12  C   UNL     1      34.197 -22.776 -17.326  0.00  0.00    +0.092 C 
ATOM     13  C   UNL     1      36.163 -22.380 -15.990  0.00  0.00    +0.006 C 
ATOM     14  C   UNL     1      36.123 -21.566 -18.238  0.00  0.00    +0.157 C 
ATOM     15  C   UNL     1      36.782 -21.729 -16.991  0.00  0.00    +0.036 C 
ATOM     16  C   UNL     1      35.401 -21.182 -20.162  0.00  0.00    +0.219 C 
ENDBRANCH   3  11
BRANCH   4  18
ATOM     17  N   UNL     1      36.852 -25.019 -13.973  0.00  0.00    -0.409 NA
ATOM     18  C   UNL     1      36.005 -24.158 -13.368  0.00  0.00    +0.127 C 
ATOM     19  C   UNL     1      36.366 -23.319 -12.325  0.00  0.00    +0.086 C 
ATOM     20  C   UNL     1      38.122 -25.040 -13.508  0.00  0.00    +0.109 C 
ATOM     21  C   UNL     1      37.681 -23.369 -11.875  0.00  0.00    -0.016 C 
ATOM     22  C   UNL     1      38.582 -24.243 -12.473  0.00  0.00    +0.023 C 
ATOM     23  C   UNL     1      39.061 -25.992 -14.172  0.00  0.00    +0.066 C 
ENDBRANCH   4  18
BRANCH   5  24
ATOM     24  C   UNL     1      31.182 -25.070 -13.586  0.00  0.00    +0.128 C 
BRANCH  24  25
ATOM     25  N   UNL     1      30.158 -24.041 -13.676  0.00  0.00    -0.328 N 
ATOM     26  H   UNL     1      30.015 -23.457 -12.897  0.00  0.00    +0.147 HD
BRANCH  25  28
ATOM     27  F   UNL     1      29.169 -26.187 -15.117  0.00  0.00    -0.203 F 
ATOM     28  C   UNL     1      29.378 -23.843 -14.797  0.00  0.00    +0.073 C 
ATOM     29  C   UNL     1      28.888 -24.936 -15.511  0.00  0.00    +0.153 C 
ATOM     30  C   UNL     1      29.080 -22.546 -15.216  0.00  0.00    +0.017 C 
ATOM     31  C   UNL     1      28.099 -24.734 -16.643  0.00  0.00    +0.031 C 
ATOM     32  C   UNL     1      28.291 -22.343 -16.349  0.00  0.00    +0.001 C 
ATOM     33  C   UNL     1      27.801 -23.437 -17.063  0.00  0.00    +0.002 C 
ENDBRANCH  25  28
ENDBRANCH  24  25
ENDBRANCH   5  24
TORSDOF 5
ENDMDL
MODEL 7
REMARK VINA RESULT:     -12.6      9.273     12.162
REMARK  Name = 54766013
REMARK  5 active torsions:
REMARK  status: ('A' for Active; 'I' for Inactive)
REMARK    1  A    between atoms: C_3  and  C_11
REMARK    2  A    between atoms: C_4  and  C_18
REMARK    3  A    between atoms: C_5  and  C_24
REMARK    4  A    between atoms: C_24  and  N_25
REMARK    5  A    between atoms: N_25  and  C_28
REMARK                            x       y       z     vdW  Elec       q    Type
REMARK                         _______ _______ _______ _____ _____    ______ ____
ROOT
ATOM      1  N   UNL     1      34.329 -16.920 -23.539  0.00  0.00    -0.315 N 
ATOM      2  N   UNL     1      34.588 -15.339 -22.001  0.00  0.00    -0.317 N 
ATOM      3  C   UNL     1      33.888 -14.845 -23.073  0.00  0.00    +0.063 C 
ATOM      4  C   UNL     1      33.715 -15.807 -24.040  0.00  0.00    +0.085 C 
ATOM      5  C   UNL     1      34.839 -16.592 -22.313  0.00  0.00    +0.164 C 
ATOM      6  H   UNL     1      34.393 -17.798 -23.980  0.00  0.00    +0.148 HD
ATOM      7  H   UNL     1      34.846 -14.862 -21.179  0.00  0.00    +0.148 HD
ENDROOT
BRANCH   3  11
ATOM      8  N   UNL     1      31.964 -11.748 -22.277  0.00  0.00    -0.170 N 
ATOM      9  N   UNL     1      30.985 -11.188 -21.523  0.00  0.00    -0.150 NA
ATOM     10  N   UNL     1      31.876  -9.627 -22.934  0.00  0.00    -0.206 NA
ATOM     11  C   UNL     1      33.421 -13.445 -23.096  0.00  0.00    +0.031 C 
ATOM     12  C   UNL     1      32.427 -13.066 -22.265  0.00  0.00    +0.092 C 
ATOM     13  C   UNL     1      33.978 -12.431 -23.996  0.00  0.00    +0.006 C 
ATOM     14  C   UNL     1      32.489 -10.773 -23.129  0.00  0.00    +0.157 C 
ATOM     15  C   UNL     1      33.533 -11.162 -24.009  0.00  0.00    +0.036 C 
ATOM     16  C   UNL     1      30.978  -9.929 -21.957  0.00  0.00    +0.219 C 
ENDBRANCH   3  11
BRANCH   4  18
ATOM     17  N   UNL     1      33.091 -14.589 -25.952  0.00  0.00    -0.409 NA
ATOM     18  C   UNL     1      33.063 -15.786 -25.325  0.00  0.00    +0.127 C 
ATOM     19  C   UNL     1      32.467 -16.923 -25.849  0.00  0.00    +0.086 C 
ATOM     20  C   UNL     1      32.491 -14.532 -27.162  0.00  0.00    +0.109 C 
ATOM     21  C   UNL     1      31.861 -16.823 -27.096  0.00  0.00    -0.016 C 
ATOM     22  C   UNL     1      31.869 -15.609 -27.772  0.00  0.00    +0.023 C 
ATOM     23  C   UNL     1      32.518 -13.211 -27.859  0.00  0.00    +0.066 C 
ENDBRANCH   4  18
BRANCH   5  24
ATOM     24  C   UNL     1      35.569 -17.577 -21.496  0.00  0.00    +0.128 C 
BRANCH  24  25
ATOM     25  N   UNL     1      35.238 -18.940 -21.880  0.00  0.00    -0.328 N 
ATOM     26  H   UNL     1      35.510 -19.252 -22.773  0.00  0.00    +0.147 HD
BRANCH  25  28
ATOM     27  F   UNL     1      36.611 -20.731 -20.278  0.00  0.00    -0.203 F 
ATOM     28  C   UNL     1      34.562 -19.817 -21.057  0.00  0.00    +0.073 C 
ATOM     29  C   UNL     1      35.270 -20.714 -20.257  0.00  0.00    +0.153 C 
ATOM     30  C   UNL     1      33.167 -19.809 -21.028  0.00  0.00    +0.017 C 
ATOM     31  C   UNL     1      34.586 -21.600 -19.426  0.00  0.00    +0.031 C 
ATOM     32  C   UNL     1      32.482 -20.696 -20.196  0.00  0.00    +0.001 C 
ATOM     33  C   UNL     1      33.191 -21.591 -19.396  0.00  0.00    +0.002 C 
ENDBRANCH  25  28
ENDBRANCH  24  25
ENDBRANCH   5  24
TORSDOF 5
ENDMDL
MODEL 8
REMARK VINA RESULT:     -12.5      9.348     12.156
REMARK  Name = 54766013
REMARK  5 active torsions:
REMARK  status: ('A' for Active; 'I' for Inactive)
REMARK    1  A    between atoms: C_3  and  C_11
REMARK    2  A    between atoms: C_4  and  C_18
REMARK    3  A    between atoms: C_5  and  C_24
REMARK    4  A    between atoms: C_24  and  N_25
REMARK    5  A    between atoms: N_25  and  C_28
REMARK                            x       y       z     vdW  Elec       q    Type
REMARK                         _______ _______ _______ _____ _____    ______ ____
ROOT
ATOM      1  N   UNL     1      34.259 -16.973 -23.510  0.00  0.00    -0.315 N 
ATOM      2  N   UNL     1      34.525 -15.387 -21.978  0.00  0.00    -0.317 N 
ATOM      3  C   UNL     1      33.862 -14.883 -23.069  0.00  0.00    +0.063 C 
ATOM      4  C   UNL     1      33.685 -15.849 -24.032  0.00  0.00    +0.085 C 
ATOM      5  C   UNL     1      34.749 -16.648 -22.275  0.00  0.00    +0.164 C 
ATOM      6  H   UNL     1      34.309 -17.856 -23.942  0.00  0.00    +0.148 HD
ATOM      7  H   UNL     1      34.777 -14.909 -21.155  0.00  0.00    +0.148 HD
ENDROOT
BRANCH   3  11
ATOM      8  N   UNL     1      32.015 -11.726 -22.327  0.00  0.00    -0.170 N 
ATOM      9  N   UNL     1      31.045 -11.131 -21.587  0.00  0.00    -0.150 NA
ATOM     10  N   UNL     1      31.988  -9.612 -23.011  0.00  0.00    -0.206 NA
ATOM     11  C   UNL     1      33.432 -13.472 -23.113  0.00  0.00    +0.031 C 
ATOM     12  C   UNL     1      32.443 -13.056 -22.295  0.00  0.00    +0.092 C 
ATOM     13  C   UNL     1      34.022 -12.485 -24.022  0.00  0.00    +0.006 C 
ATOM     14  C   UNL     1      32.571 -10.777 -23.187  0.00  0.00    +0.157 C 
ATOM     15  C   UNL     1      33.612 -11.205 -24.054  0.00  0.00    +0.036 C 
ATOM     16  C   UNL     1      31.075  -9.878 -22.037  0.00  0.00    +0.219 C 
ENDBRANCH   3  11
BRANCH   4  18
ATOM     17  N   UNL     1      33.056 -14.609 -25.929  0.00  0.00    -0.409 NA
ATOM     18  C   UNL     1      33.061 -15.821 -25.331  0.00  0.00    +0.127 C 
ATOM     19  C   UNL     1      32.523 -16.967 -25.896  0.00  0.00    +0.086 C 
ATOM     20  C   UNL     1      32.482 -14.545 -27.151  0.00  0.00    +0.109 C 
ATOM     21  C   UNL     1      31.941 -16.860 -27.154  0.00  0.00    -0.016 C 
ATOM     22  C   UNL     1      31.917 -15.631 -27.801  0.00  0.00    +0.023 C 
ATOM     23  C   UNL     1      32.472 -13.208 -27.816  0.00  0.00    +0.066 C 
ENDBRANCH   4  18
BRANCH   5  24
ATOM     24  C   UNL     1      35.436 -17.645 -21.435  0.00  0.00    +0.128 C 
BRANCH  24  25
ATOM     25  N   UNL     1      35.052 -19.001 -21.793  0.00  0.00    -0.328 N 
ATOM     26  H   UNL     1      34.977 -19.228 -22.747  0.00  0.00    +0.147 HD
BRANCH  25  28
ATOM     27  F   UNL     1      32.451 -19.776 -21.249  0.00  0.00    -0.203 F 
ATOM     28  C   UNL     1      34.784 -19.985 -20.862  0.00  0.00    +0.073 C 
ATOM     29  C   UNL     1      33.467 -20.362 -20.601  0.00  0.00    +0.153 C 
ATOM     30  C   UNL     1      35.835 -20.601 -20.180  0.00  0.00    +0.017 C 
ATOM     31  C   UNL     1      33.199 -21.356 -19.660  0.00  0.00    +0.031 C 
ATOM     32  C   UNL     1      35.566 -21.595 -19.239  0.00  0.00    +0.001 C 
ATOM     33  C   UNL     1      34.249 -21.973 -18.979  0.00  0.00    +0.002 C 
ENDBRANCH  25  28
ENDBRANCH  24  25
ENDBRANCH   5  24
TORSDOF 5
ENDMDL
MODEL 9
REMARK VINA RESULT:     -12.3      2.434      7.476
REMARK  Name = 54766013
REMARK  5 active torsions:
REMARK  status: ('A' for Active; 'I' for Inactive)
REMARK    1  A    between atoms: C_3  and  C_11
REMARK    2  A    between atoms: C_4  and  C_18
REMARK    3  A    between atoms: C_5  and  C_24
REMARK    4  A    between atoms: C_24  and  N_25
REMARK    5  A    between atoms: N_25  and  C_28
REMARK                            x       y       z     vdW  Elec       q    Type
REMARK                         _______ _______ _______ _____ _____    ______ ____
ROOT
ATOM      1  N   UNL     1      32.707 -23.734 -15.252  0.00  0.00    -0.315 N 
ATOM      2  N   UNL     1      33.659 -24.825 -13.568  0.00  0.00    -0.317 N 
ATOM      3  C   UNL     1      34.620 -24.308 -14.399  0.00  0.00    +0.063 C 
ATOM      4  C   UNL     1      34.054 -23.627 -15.451  0.00  0.00    +0.085 C 
ATOM      5  C   UNL     1      32.517 -24.461 -14.109  0.00  0.00    +0.164 C 
ATOM      6  H   UNL     1      32.001 -23.356 -15.825  0.00  0.00    +0.148 HD
ATOM      7  H   UNL     1      33.793 -25.352 -12.747  0.00  0.00    +0.148 HD
ENDROOT
BRANCH   3  11
ATOM      8  N   UNL     1      38.156 -25.459 -14.720  0.00  0.00    -0.170 N 
ATOM      9  N   UNL     1      39.052 -26.167 -15.453  0.00  0.00    -0.150 NA
ATOM     10  N   UNL     1      40.073 -25.277 -13.613  0.00  0.00    -0.206 NA
ATOM     11  C   UNL     1      36.056 -24.509 -14.120  0.00  0.00    +0.031 C 
ATOM     12  C   UNL     1      36.797 -25.249 -14.970  0.00  0.00    +0.092 C 
ATOM     13  C   UNL     1      36.726 -23.949 -12.943  0.00  0.00    +0.006 C 
ATOM     14  C   UNL     1      38.806 -24.929 -13.603  0.00  0.00    +0.157 C 
ATOM     15  C   UNL     1      38.034 -24.150 -12.700  0.00  0.00    +0.036 C 
ATOM     16  C   UNL     1      40.172 -26.022 -14.747  0.00  0.00    +0.219 C 
ENDBRANCH   3  11
BRANCH   4  18
ATOM     17  N   UNL     1      33.799 -22.785 -17.632  0.00  0.00    -0.409 NA
ATOM     18  C   UNL     1      34.624 -22.920 -16.570  0.00  0.00    +0.127 C 
ATOM     19  C   UNL     1      35.919 -22.426 -16.525  0.00  0.00    +0.086 C 
ATOM     20  C   UNL     1      34.299 -22.124 -18.700  0.00  0.00    +0.109 C 
ATOM     21  C   UNL     1      36.396 -21.752 -17.644  0.00  0.00    -0.016 C 
ATOM     22  C   UNL     1      35.578 -21.593 -18.756  0.00  0.00    +0.023 C 
ATOM     23  C   UNL     1      33.392 -21.974 -19.877  0.00  0.00    +0.066 C 
ENDBRANCH   4  18
BRANCH   5  24
ATOM     24  C   UNL     1      31.164 -24.762 -13.606  0.00  0.00    +0.128 C 
BRANCH  24  25
ATOM     25  N   UNL     1      30.295 -25.246 -14.666  0.00  0.00    -0.328 N 
ATOM     26  H   UNL     1      30.352 -26.195 -14.919  0.00  0.00    +0.147 HD
BRANCH  25  28
ATOM     27  F   UNL     1      29.938 -22.599 -13.941  0.00  0.00    -0.203 F 
ATOM     28  C   UNL     1      29.395 -24.442 -15.336  0.00  0.00    +0.073 C 
ATOM     29  C   UNL     1      29.228 -23.111 -14.957  0.00  0.00    +0.153 C 
ATOM     30  C   UNL     1      28.650 -24.964 -16.395  0.00  0.00    +0.017 C 
ATOM     31  C   UNL     1      28.318 -22.300 -15.635  0.00  0.00    +0.031 C 
ATOM     32  C   UNL     1      27.740 -24.153 -17.073  0.00  0.00    +0.001 C 
ATOM     33  C   UNL     1      27.574 -22.822 -16.694  0.00  0.00    +0.002 C 
ENDBRANCH  25  28
ENDBRANCH  24  25
ENDBRANCH   5  24
TORSDOF 5
ENDMDL
