MODEL 1
REMARK VINA RESULT:     -11.7      0.000      0.000
REMARK  Name = 445770
REMARK  5 active torsions:
REMARK  status: ('A' for Active; 'I' for Inactive)
REMARK    1  A    between atoms: N_2  and  C_17
REMARK    2  A    between atoms: C_3  and  C_5
REMARK    3  A    between atoms: C_6  and  S_11
REMARK    4  A    between atoms: S_11  and  N_14
REMARK    5  A    between atoms: C_17  and  C_23
REMARK                            x       y       z     vdW  Elec       q    Type
REMARK                         _______ _______ _______ _____ _____    ______ ____
ROOT
ATOM      1  O   UNL     1      31.969 -23.535 -16.571  0.00  0.00    -0.270 OA
ATOM      2  N   UNL     1      33.843 -22.680 -17.634  0.00  0.00    -0.297 N 
ATOM      3  C   UNL     1      33.180 -23.254 -16.543  0.00  0.00    +0.246 C 
ATOM      4  H   UNL     1      34.804 -22.481 -17.544  0.00  0.00    +0.150 HD
ENDROOT
BRANCH   3   5
ATOM      5  C   UNL     1      33.966 -23.490 -15.342  0.00  0.00    +0.053 C 
ATOM      6  C   UNL     1      35.473 -23.942 -13.039  0.00  0.00    +0.122 C 
ATOM      7  C   UNL     1      35.310 -23.117 -15.304  0.00  0.00    +0.006 C 
ATOM      8  C   UNL     1      33.375 -24.089 -14.230  0.00  0.00    +0.006 C 
ATOM      9  C   UNL     1      36.063 -23.344 -14.153  0.00  0.00    +0.020 C 
ATOM     10  C   UNL     1      34.129 -24.314 -13.077  0.00  0.00    +0.020 C 
BRANCH   6  11
ATOM     11  S   UNL     1      36.416 -24.224 -11.597  0.00  0.00    +0.057 S 
ATOM     12  O   UNL     1      36.895 -22.942 -11.099  0.00  0.00    -0.153 OA
ATOM     13  O   UNL     1      37.365 -25.294 -11.870  0.00  0.00    -0.153 OA
BRANCH  11  14
ATOM     14  N   UNL     1      35.214 -24.812 -10.533  0.00  0.00    -0.203 NA
ATOM     15  H   UNL     1      35.540 -25.673 -10.095  0.00  0.00    +0.144 HD
ATOM     16  H   UNL     1      34.359 -24.999 -11.056  0.00  0.00    +0.144 HD
ENDBRANCH  11  14
ENDBRANCH   6  11
ENDBRANCH   3   5
BRANCH   2  17
ATOM     17  C   UNL     1      33.195 -22.363 -18.887  0.00  0.00    +0.121 C 
BRANCH  17  23
ATOM     18  F   UNL     1      31.976 -20.561 -20.688  0.00  0.00    -0.202 F 
ATOM     19  F   UNL     1      35.999 -22.110 -18.698  0.00  0.00    -0.202 F 
ATOM     20  F   UNL     1      37.410 -20.276 -20.140  0.00  0.00    -0.199 F 
ATOM     21  F   UNL     1      33.397 -18.729 -22.122  0.00  0.00    -0.199 F 
ATOM     22  F   UNL     1      36.115 -18.584 -21.851  0.00  0.00    -0.199 F 
ATOM     23  C   UNL     1      33.976 -21.351 -19.682  0.00  0.00    +0.057 A 
ATOM     24  C   UNL     1      33.307 -20.496 -20.548  0.00  0.00    +0.170 A 
ATOM     25  C   UNL     1      35.354 -21.285 -19.535  0.00  0.00    +0.170 A 
ATOM     26  C   UNL     1      36.079 -20.347 -20.271  0.00  0.00    +0.197 A 
ATOM     27  C   UNL     1      34.032 -19.560 -21.284  0.00  0.00    +0.197 A 
ATOM     28  C   UNL     1      35.418 -19.484 -21.145  0.00  0.00    +0.199 A 
ENDBRANCH  17  23
ENDBRANCH   2  17
TORSDOF 5
ENDMDL
MODEL 2
REMARK VINA RESULT:     -11.7      0.021      2.129
REMARK  Name = 445770
REMARK  5 active torsions:
REMARK  status: ('A' for Active; 'I' for Inactive)
REMARK    1  A    between atoms: N_2  and  C_17
REMARK    2  A    between atoms: C_3  and  C_5
REMARK    3  A    between atoms: C_6  and  S_11
REMARK    4  A    between atoms: S_11  and  N_14
REMARK    5  A    between atoms: C_17  and  C_23
REMARK                            x       y       z     vdW  Elec       q    Type
REMARK                         _______ _______ _______ _____ _____    ______ ____
ROOT
ATOM      1  O   UNL     1      31.955 -23.524 -16.575  0.00  0.00    -0.270 OA
ATOM      2  N   UNL     1      33.838 -22.692 -17.641  0.00  0.00    -0.297 N 
ATOM      3  C   UNL     1      33.169 -23.254 -16.548  0.00  0.00    +0.246 C 
ATOM      4  H   UNL     1      34.801 -22.503 -17.552  0.00  0.00    +0.150 HD
ENDROOT
BRANCH   3   5
ATOM      5  C   UNL     1      33.952 -23.491 -15.346  0.00  0.00    +0.053 C 
ATOM      6  C   UNL     1      35.453 -23.946 -13.039  0.00  0.00    +0.122 C 
ATOM      7  C   UNL     1      35.299 -23.134 -15.309  0.00  0.00    +0.006 C 
ATOM      8  C   UNL     1      33.354 -24.077 -14.229  0.00  0.00    +0.006 C 
ATOM      9  C   UNL     1      36.050 -23.362 -14.155  0.00  0.00    +0.020 C 
ATOM     10  C   UNL     1      34.105 -24.304 -13.075  0.00  0.00    +0.020 C 
BRANCH   6  11
ATOM     11  S   UNL     1      36.391 -24.230 -11.594  0.00  0.00    +0.057 S 
ATOM     12  O   UNL     1      36.871 -22.950 -11.095  0.00  0.00    -0.153 OA
ATOM     13  O   UNL     1      37.339 -25.302 -11.865  0.00  0.00    -0.153 OA
BRANCH  11  14
ATOM     14  N   UNL     1      35.187 -24.816 -10.533  0.00  0.00    -0.203 NA
ATOM     15  H   UNL     1      34.473 -25.310 -11.069  0.00  0.00    +0.144 HD
ATOM     16  H   UNL     1      34.760 -24.033 -10.038  0.00  0.00    +0.144 HD
ENDBRANCH  11  14
ENDBRANCH   6  11
ENDBRANCH   3   5
BRANCH   2  17
ATOM     17  C   UNL     1      33.194 -22.376 -18.897  0.00  0.00    +0.121 C 
BRANCH  17  23
ATOM     18  F   UNL     1      35.997 -22.097 -18.689  0.00  0.00    -0.202 F 
ATOM     19  F   UNL     1      31.972 -20.586 -20.704  0.00  0.00    -0.202 F 
ATOM     20  F   UNL     1      33.386 -18.740 -22.128  0.00  0.00    -0.199 F 
ATOM     21  F   UNL     1      37.401 -20.250 -20.121  0.00  0.00    -0.199 F 
ATOM     22  F   UNL     1      36.099 -18.569 -21.841  0.00  0.00    -0.199 F 
ATOM     23  C   UNL     1      33.973 -21.357 -19.685  0.00  0.00    +0.057 A 
ATOM     24  C   UNL     1      35.351 -21.279 -19.530  0.00  0.00    +0.170 A 
ATOM     25  C   UNL     1      33.302 -20.510 -20.555  0.00  0.00    +0.170 A 
ATOM     26  C   UNL     1      34.023 -19.565 -21.286  0.00  0.00    +0.197 A 
ATOM     27  C   UNL     1      36.071 -20.334 -20.260  0.00  0.00    +0.197 A 
ATOM     28  C   UNL     1      35.407 -19.476 -21.139  0.00  0.00    +0.199 A 
ENDBRANCH  17  23
ENDBRANCH   2  17
TORSDOF 5
ENDMDL
MODEL 3
REMARK VINA RESULT:     -11.5      4.697      7.231
REMARK  Name = 445770
REMARK  5 active torsions:
REMARK  status: ('A' for Active; 'I' for Inactive)
REMARK    1  A    between atoms: N_2  and  C_17
REMARK    2  A    between atoms: C_3  and  C_5
REMARK    3  A    between atoms: C_6  and  S_11
REMARK    4  A    between atoms: S_11  and  N_14
REMARK    5  A    between atoms: C_17  and  C_23
REMARK                            x       y       z     vdW  Elec       q    Type
REMARK                         _______ _______ _______ _____ _____    ______ ____
ROOT
ATOM      1  O   UNL     1      36.808 -18.682 -21.732  0.00  0.00    -0.270 OA
ATOM      2  N   UNL     1      34.708 -17.755 -22.047  0.00  0.00    -0.297 N 
ATOM      3  C   UNL     1      35.583 -18.711 -21.520  0.00  0.00    +0.246 C 
ATOM      4  H   UNL     1      33.748 -17.838 -21.840  0.00  0.00    +0.150 HD
ENDROOT
BRANCH   3   5
ATOM      5  C   UNL     1      34.996 -19.776 -20.723  0.00  0.00    +0.053 C 
ATOM      6  C   UNL     1      33.871 -21.819 -19.192  0.00  0.00    +0.122 C 
ATOM      7  C   UNL     1      33.612 -19.945 -20.695  0.00  0.00    +0.006 C 
ATOM      8  C   UNL     1      35.818 -20.628 -19.984  0.00  0.00    +0.006 C 
ATOM      9  C   UNL     1      33.049 -20.966 -19.930  0.00  0.00    +0.020 C 
ATOM     10  C   UNL     1      35.255 -21.650 -19.220  0.00  0.00    +0.020 C 
BRANCH   6  11
ATOM     11  S   UNL     1      33.167 -23.098 -18.236  0.00  0.00    +0.057 S 
ATOM     12  O   UNL     1      33.307 -24.351 -18.963  0.00  0.00    -0.153 OA
ATOM     13  O   UNL     1      31.850 -22.666 -17.787  0.00  0.00    -0.153 OA
BRANCH  11  14
ATOM     14  N   UNL     1      34.225 -23.121 -16.894  0.00  0.00    -0.203 NA
ATOM     15  H   UNL     1      34.645 -24.047 -16.808  0.00  0.00    +0.144 HD
ATOM     16  H   UNL     1      33.702 -22.905 -16.045  0.00  0.00    +0.144 HD
ENDBRANCH  11  14
ENDBRANCH   6  11
ENDBRANCH   3   5
BRANCH   2  17
ATOM     17  C   UNL     1      35.134 -16.651 -22.878  0.00  0.00    +0.121 C 
BRANCH  17  23
ATOM     18  F   UNL     1      34.350 -18.852 -24.464  0.00  0.00    -0.202 F 
ATOM     19  F   UNL     1      34.171 -14.157 -23.780  0.00  0.00    -0.202 F 
ATOM     20  F   UNL     1      32.613 -13.900 -26.003  0.00  0.00    -0.199 F 
ATOM     21  F   UNL     1      32.789 -18.583 -26.683  0.00  0.00    -0.199 F 
ATOM     22  F   UNL     1      31.919 -16.108 -27.456  0.00  0.00    -0.199 F 
ATOM     23  C   UNL     1      34.273 -16.507 -24.104  0.00  0.00    +0.057 A 
ATOM     24  C   UNL     1      33.927 -17.636 -24.835  0.00  0.00    +0.170 A 
ATOM     25  C   UNL     1      33.837 -15.246 -24.487  0.00  0.00    +0.170 A 
ATOM     26  C   UNL     1      33.038 -15.111 -25.623  0.00  0.00    +0.197 A 
ATOM     27  C   UNL     1      33.130 -17.501 -25.971  0.00  0.00    +0.197 A 
ATOM     28  C   UNL     1      32.685 -16.238 -26.365  0.00  0.00    +0.199 A 
ENDBRANCH  17  23
ENDBRANCH   2  17
TORSDOF 5
ENDMDL
MODEL 4
REMARK VINA RESULT:     -11.5      4.680      7.078
REMARK  Name = 445770
REMARK  5 active torsions:
REMARK  status: ('A' for Active; 'I' for Inactive)
REMARK    1  A    between atoms: N_2  and  C_17
REMARK    2  A    between atoms: C_3  and  C_5
REMARK    3  A    between atoms: C_6  and  S_11
REMARK    4  A    between atoms: S_11  and  N_14
REMARK    5  A    between atoms: C_17  and  C_23
REMARK                            x       y       z     vdW  Elec       q    Type
REMARK                         _______ _______ _______ _____ _____    ______ ____
ROOT
ATOM      1  O   UNL     1      36.821 -18.689 -21.687  0.00  0.00    -0.270 OA
ATOM      2  N   UNL     1      34.717 -17.779 -22.029  0.00  0.00    -0.297 N 
ATOM      3  C   UNL     1      35.594 -18.727 -21.489  0.00  0.00    +0.246 C 
ATOM      4  H   UNL     1      33.755 -17.869 -21.833  0.00  0.00    +0.150 HD
ENDROOT
BRANCH   3   5
ATOM      5  C   UNL     1      35.006 -19.795 -20.695  0.00  0.00    +0.053 C 
ATOM      6  C   UNL     1      33.878 -21.842 -19.173  0.00  0.00    +0.122 C 
ATOM      7  C   UNL     1      35.826 -20.649 -19.959  0.00  0.00    +0.006 C 
ATOM      8  C   UNL     1      33.621 -19.964 -20.672  0.00  0.00    +0.006 C 
ATOM      9  C   UNL     1      35.262 -21.672 -19.198  0.00  0.00    +0.020 C 
ATOM     10  C   UNL     1      33.057 -20.988 -19.910  0.00  0.00    +0.020 C 
BRANCH   6  11
ATOM     11  S   UNL     1      33.171 -23.123 -18.220  0.00  0.00    +0.057 S 
ATOM     12  O   UNL     1      33.300 -24.373 -18.956  0.00  0.00    -0.153 OA
ATOM     13  O   UNL     1      31.860 -22.685 -17.762  0.00  0.00    -0.153 OA
BRANCH  11  14
ATOM     14  N   UNL     1      34.237 -23.160 -16.885  0.00  0.00    -0.203 NA
ATOM     15  H   UNL     1      34.749 -24.041 -16.883  0.00  0.00    +0.144 HD
ATOM     16  H   UNL     1      33.702 -23.076 -16.020  0.00  0.00    +0.144 HD
ENDBRANCH  11  14
ENDBRANCH   6  11
ENDBRANCH   3   5
BRANCH   2  17
ATOM     17  C   UNL     1      35.144 -16.674 -22.857  0.00  0.00    +0.121 C 
BRANCH  17  23
ATOM     18  F   UNL     1      34.163 -14.186 -23.765  0.00  0.00    -0.202 F 
ATOM     19  F   UNL     1      34.393 -18.879 -24.449  0.00  0.00    -0.202 F 
ATOM     20  F   UNL     1      32.845 -18.623 -26.679  0.00  0.00    -0.199 F 
ATOM     21  F   UNL     1      32.619 -13.942 -25.999  0.00  0.00    -0.199 F 
ATOM     22  F   UNL     1      31.957 -16.159 -27.458  0.00  0.00    -0.199 F 
ATOM     23  C   UNL     1      34.291 -16.535 -24.089  0.00  0.00    +0.057 A 
ATOM     24  C   UNL     1      33.845 -15.278 -24.475  0.00  0.00    +0.170 A 
ATOM     25  C   UNL     1      33.962 -17.666 -24.823  0.00  0.00    +0.170 A 
ATOM     26  C   UNL     1      33.171 -17.539 -25.965  0.00  0.00    +0.197 A 
ATOM     27  C   UNL     1      33.054 -15.150 -25.616  0.00  0.00    +0.197 A 
ATOM     28  C   UNL     1      32.717 -16.280 -26.362  0.00  0.00    +0.199 A 
ENDBRANCH  17  23
ENDBRANCH   2  17
TORSDOF 5
ENDMDL
MODEL 5
REMARK VINA RESULT:     -11.3      4.903      7.514
REMARK  Name = 445770
REMARK  5 active torsions:
REMARK  status: ('A' for Active; 'I' for Inactive)
REMARK    1  A    between atoms: N_2  and  C_17
REMARK    2  A    between atoms: C_3  and  C_5
REMARK    3  A    between atoms: C_6  and  S_11
REMARK    4  A    between atoms: S_11  and  N_14
REMARK    5  A    between atoms: C_17  and  C_23
REMARK                            x       y       z     vdW  Elec       q    Type
REMARK                         _______ _______ _______ _____ _____    ______ ____
ROOT
ATOM      1  O   UNL     1      36.756 -18.476 -22.042  0.00  0.00    -0.270 OA
ATOM      2  N   UNL     1      34.624 -17.934 -22.772  0.00  0.00    -0.297 N 
ATOM      3  C   UNL     1      35.528 -18.665 -21.994  0.00  0.00    +0.246 C 
ATOM      4  H   UNL     1      33.664 -18.136 -22.685  0.00  0.00    +0.150 HD
ENDROOT
BRANCH   3   5
ATOM      5  C   UNL     1      34.973 -19.695 -21.129  0.00  0.00    +0.053 C 
ATOM      6  C   UNL     1      33.907 -21.669 -19.471  0.00  0.00    +0.122 C 
ATOM      7  C   UNL     1      35.823 -20.565 -20.446  0.00  0.00    +0.006 C 
ATOM      8  C   UNL     1      33.590 -19.812 -20.984  0.00  0.00    +0.006 C 
ATOM      9  C   UNL     1      35.289 -21.552 -19.617  0.00  0.00    +0.020 C 
ATOM     10  C   UNL     1      33.058 -20.799 -20.154  0.00  0.00    +0.020 C 
BRANCH   6  11
ATOM     11  S   UNL     1      33.240 -22.903 -18.433  0.00  0.00    +0.057 S 
ATOM     12  O   UNL     1      33.346 -24.187 -19.112  0.00  0.00    -0.153 OA
ATOM     13  O   UNL     1      31.945 -22.446 -17.948  0.00  0.00    -0.153 OA
BRANCH  11  14
ATOM     14  N   UNL     1      34.354 -22.875 -17.137  0.00  0.00    -0.203 NA
ATOM     15  H   UNL     1      35.288 -23.090 -17.486  0.00  0.00    +0.144 HD
ATOM     16  H   UNL     1      34.083 -23.570 -16.441  0.00  0.00    +0.144 HD
ENDBRANCH  11  14
ENDBRANCH   6  11
ENDBRANCH   3   5
BRANCH   2  17
ATOM     17  C   UNL     1      35.023 -16.895 -23.696  0.00  0.00    +0.121 C 
BRANCH  17  23
ATOM     18  F   UNL     1      34.792 -15.751 -21.125  0.00  0.00    -0.202 F 
ATOM     19  F   UNL     1      33.765 -15.424 -25.749  0.00  0.00    -0.202 F 
ATOM     20  F   UNL     1      32.434 -13.090 -25.281  0.00  0.00    -0.199 F 
ATOM     21  F   UNL     1      33.462 -13.415 -20.670  0.00  0.00    -0.199 F 
ATOM     22  F   UNL     1      32.281 -12.082 -22.745  0.00  0.00    -0.199 F 
ATOM     23  C   UNL     1      34.289 -15.606 -23.440  0.00  0.00    +0.057 A 
ATOM     24  C   UNL     1      34.217 -15.104 -22.148  0.00  0.00    +0.170 A 
ATOM     25  C   UNL     1      33.694 -14.938 -24.501  0.00  0.00    +0.170 A 
ATOM     26  C   UNL     1      33.014 -13.743 -24.266  0.00  0.00    +0.197 A 
ATOM     27  C   UNL     1      33.537 -13.910 -21.912  0.00  0.00    +0.197 A 
ATOM     28  C   UNL     1      32.935 -13.228 -22.971  0.00  0.00    +0.199 A 
ENDBRANCH  17  23
ENDBRANCH   2  17
TORSDOF 5
ENDMDL
MODEL 6
REMARK VINA RESULT:     -11.2      4.565      6.880
REMARK  Name = 445770
REMARK  5 active torsions:
REMARK  status: ('A' for Active; 'I' for Inactive)
REMARK    1  A    between atoms: N_2  and  C_17
REMARK    2  A    between atoms: C_3  and  C_5
REMARK    3  A    between atoms: C_6  and  S_11
REMARK    4  A    between atoms: S_11  and  N_14
REMARK    5  A    between atoms: C_17  and  C_23
REMARK                            x       y       z     vdW  Elec       q    Type
REMARK                         _______ _______ _______ _____ _____    ______ ____
ROOT
ATOM      1  O   UNL     1      37.139 -18.920 -21.450  0.00  0.00    -0.270 OA
ATOM      2  N   UNL     1      35.067 -18.158 -22.157  0.00  0.00    -0.297 N 
ATOM      3  C   UNL     1      35.898 -18.994 -21.403  0.00  0.00    +0.246 C 
ATOM      4  H   UNL     1      34.092 -18.271 -22.073  0.00  0.00    +0.150 HD
ENDROOT
BRANCH   3   5
ATOM      5  C   UNL     1      35.249 -19.992 -20.567  0.00  0.00    +0.053 C 
ATOM      6  C   UNL     1      34.002 -21.904 -18.964  0.00  0.00    +0.122 C 
ATOM      7  C   UNL     1      36.014 -20.817 -19.744  0.00  0.00    +0.006 C 
ATOM      8  C   UNL     1      33.860 -20.122 -20.590  0.00  0.00    +0.006 C 
ATOM      9  C   UNL     1      35.391 -21.773 -18.942  0.00  0.00    +0.020 C 
ATOM     10  C   UNL     1      33.237 -21.078 -19.787  0.00  0.00    +0.020 C 
BRANCH   6  11
ATOM     11  S   UNL     1      33.222 -23.099 -17.959  0.00  0.00    +0.057 S 
ATOM     12  O   UNL     1      33.794 -23.026 -16.622  0.00  0.00    -0.153 OA
ATOM     13  O   UNL     1      33.216 -24.368 -18.675  0.00  0.00    -0.153 OA
BRANCH  11  14
ATOM     14  N   UNL     1      31.626 -22.490 -17.907  0.00  0.00    -0.203 NA
ATOM     15  H   UNL     1      30.999 -23.136 -18.385  0.00  0.00    +0.144 HD
ATOM     16  H   UNL     1      31.594 -21.581 -18.370  0.00  0.00    +0.144 HD
ENDBRANCH  11  14
ENDBRANCH   6  11
ENDBRANCH   3   5
BRANCH   2  17
ATOM     17  C   UNL     1      35.562 -17.135 -23.052  0.00  0.00    +0.121 C 
BRANCH  17  23
ATOM     18  F   UNL     1      34.385 -16.078 -25.391  0.00  0.00    -0.202 F 
ATOM     19  F   UNL     1      34.960 -15.709 -20.693  0.00  0.00    -0.202 F 
ATOM     20  F   UNL     1      33.374 -13.491 -20.680  0.00  0.00    -0.199 F 
ATOM     21  F   UNL     1      32.797 -13.862 -25.365  0.00  0.00    -0.199 F 
ATOM     22  F   UNL     1      32.290 -12.565 -23.011  0.00  0.00    -0.199 F 
ATOM     23  C   UNL     1      34.685 -15.912 -23.042  0.00  0.00    +0.057 A 
ATOM     24  C   UNL     1      34.141 -15.450 -24.233  0.00  0.00    +0.170 A 
ATOM     25  C   UNL     1      34.434 -15.262 -21.842  0.00  0.00    +0.170 A 
ATOM     26  C   UNL     1      33.622 -14.128 -21.831  0.00  0.00    +0.197 A 
ATOM     27  C   UNL     1      33.330 -14.315 -24.222  0.00  0.00    +0.197 A 
ATOM     28  C   UNL     1      33.069 -13.654 -23.022  0.00  0.00    +0.199 A 
ENDBRANCH  17  23
ENDBRANCH   2  17
TORSDOF 5
ENDMDL
MODEL 7
REMARK VINA RESULT:     -11.0      4.661      8.220
REMARK  Name = 445770
REMARK  5 active torsions:
REMARK  status: ('A' for Active; 'I' for Inactive)
REMARK    1  A    between atoms: N_2  and  C_17
REMARK    2  A    between atoms: C_3  and  C_5
REMARK    3  A    between atoms: C_6  and  S_11
REMARK    4  A    between atoms: S_11  and  N_14
REMARK    5  A    between atoms: C_17  and  C_23
REMARK                            x       y       z     vdW  Elec       q    Type
REMARK                         _______ _______ _______ _____ _____    ______ ____
ROOT
ATOM      1  O   UNL     1      33.166 -24.081 -18.491  0.00  0.00    -0.270 OA
ATOM      2  N   UNL     1      33.980 -22.905 -16.667  0.00  0.00    -0.297 N 
ATOM      3  C   UNL     1      33.733 -23.073 -18.034  0.00  0.00    +0.246 C 
ATOM      4  H   UNL     1      34.435 -22.082 -16.373  0.00  0.00    +0.150 HD
ENDROOT
BRANCH   3   5
ATOM      5  C   UNL     1      34.197 -22.020 -18.923  0.00  0.00    +0.053 C 
ATOM      6  C   UNL     1      35.085 -20.000 -20.629  0.00  0.00    +0.122 C 
ATOM      7  C   UNL     1      35.561 -21.756 -19.040  0.00  0.00    +0.006 C 
ATOM      8  C   UNL     1      33.276 -21.273 -19.659  0.00  0.00    +0.006 C 
ATOM      9  C   UNL     1      36.005 -20.746 -19.893  0.00  0.00    +0.020 C 
ATOM     10  C   UNL     1      33.721 -20.263 -20.513  0.00  0.00    +0.020 C 
BRANCH   6  11
ATOM     11  S   UNL     1      35.641 -18.736 -21.698  0.00  0.00    +0.057 S 
ATOM     12  O   UNL     1      34.947 -18.868 -22.971  0.00  0.00    -0.153 OA
ATOM     13  O   UNL     1      37.097 -18.715 -21.667  0.00  0.00    -0.153 OA
BRANCH  11  14
ATOM     14  N   UNL     1      35.053 -17.348 -20.894  0.00  0.00    -0.203 NA
ATOM     15  H   UNL     1      34.060 -17.464 -20.696  0.00  0.00    +0.144 HD
ATOM     16  H   UNL     1      35.188 -16.529 -21.487  0.00  0.00    +0.144 HD
ENDBRANCH  11  14
ENDBRANCH   6  11
ENDBRANCH   3   5
BRANCH   2  17
ATOM     17  C   UNL     1      33.602 -23.873 -15.661  0.00  0.00    +0.121 C 
BRANCH  17  23
ATOM     18  F   UNL     1      33.078 -24.511 -12.960  0.00  0.00    -0.202 F 
ATOM     19  F   UNL     1      36.341 -23.655 -16.301  0.00  0.00    -0.202 F 
ATOM     20  F   UNL     1      38.316 -24.029 -14.458  0.00  0.00    -0.199 F 
ATOM     21  F   UNL     1      35.061 -24.887 -11.127  0.00  0.00    -0.199 F 
ATOM     22  F   UNL     1      37.681 -24.646 -11.872  0.00  0.00    -0.199 F 
ATOM     23  C   UNL     1      34.693 -24.080 -14.645  0.00  0.00    +0.057 A 
ATOM     24  C   UNL     1      34.359 -24.392 -13.334  0.00  0.00    +0.170 A 
ATOM     25  C   UNL     1      36.020 -23.956 -15.035  0.00  0.00    +0.170 A 
ATOM     26  C   UNL     1      37.033 -24.148 -14.095  0.00  0.00    +0.197 A 
ATOM     27  C   UNL     1      35.371 -24.583 -12.395  0.00  0.00    +0.197 A 
ATOM     28  C   UNL     1      36.709 -24.462 -12.774  0.00  0.00    +0.199 A 
ENDBRANCH  17  23
ENDBRANCH   2  17
TORSDOF 5
ENDMDL
MODEL 8
REMARK VINA RESULT:     -11.0      4.982      8.286
REMARK  Name = 445770
REMARK  5 active torsions:
REMARK  status: ('A' for Active; 'I' for Inactive)
REMARK    1  A    between atoms: N_2  and  C_17
REMARK    2  A    between atoms: C_3  and  C_5
REMARK    3  A    between atoms: C_6  and  S_11
REMARK    4  A    between atoms: S_11  and  N_14
REMARK    5  A    between atoms: C_17  and  C_23
REMARK                            x       y       z     vdW  Elec       q    Type
REMARK                         _______ _______ _______ _____ _____    ______ ____
ROOT
ATOM      1  O   UNL     1      33.166 -24.134 -18.581  0.00  0.00    -0.270 OA
ATOM      2  N   UNL     1      34.273 -23.089 -16.834  0.00  0.00    -0.297 N 
ATOM      3  C   UNL     1      33.806 -23.159 -18.151  0.00  0.00    +0.246 C 
ATOM      4  H   UNL     1      34.774 -22.286 -16.559  0.00  0.00    +0.150 HD
ENDROOT
BRANCH   3   5
ATOM      5  C   UNL     1      34.124 -22.041 -19.025  0.00  0.00    +0.053 C 
ATOM      6  C   UNL     1      34.736 -19.896 -20.701  0.00  0.00    +0.122 C 
ATOM      7  C   UNL     1      33.100 -21.335 -19.656  0.00  0.00    +0.006 C 
ATOM      8  C   UNL     1      35.455 -21.675 -19.232  0.00  0.00    +0.006 C 
ATOM      9  C   UNL     1      33.406 -20.263 -20.494  0.00  0.00    +0.020 C 
ATOM     10  C   UNL     1      35.760 -20.602 -20.070  0.00  0.00    +0.020 C 
BRANCH   6  11
ATOM     11  S   UNL     1      35.119 -18.554 -21.749  0.00  0.00    +0.057 S 
ATOM     12  O   UNL     1      34.075 -18.442 -22.758  0.00  0.00    -0.153 OA
ATOM     13  O   UNL     1      36.511 -18.673 -22.159  0.00  0.00    -0.153 OA
BRANCH  11  14
ATOM     14  N   UNL     1      34.975 -17.242 -20.663  0.00  0.00    -0.203 NA
ATOM     15  H   UNL     1      35.706 -17.306 -19.954  0.00  0.00    +0.144 HD
ATOM     16  H   UNL     1      34.061 -17.273 -20.212  0.00  0.00    +0.144 HD
ENDBRANCH  11  14
ENDBRANCH   6  11
ENDBRANCH   3   5
BRANCH   2  17
ATOM     17  C   UNL     1      34.058 -24.129 -15.853  0.00  0.00    +0.121 C 
BRANCH  17  23
ATOM     18  F   UNL     1      35.474 -26.569 -15.996  0.00  0.00    -0.202 F 
ATOM     19  F   UNL     1      35.160 -22.241 -14.069  0.00  0.00    -0.202 F 
ATOM     20  F   UNL     1      37.405 -22.738 -12.604  0.00  0.00    -0.199 F 
ATOM     21  F   UNL     1      37.721 -27.053 -14.529  0.00  0.00    -0.199 F 
ATOM     22  F   UNL     1      38.689 -25.140 -12.831  0.00  0.00    -0.199 F 
ATOM     23  C   UNL     1      35.299 -24.401 -15.044  0.00  0.00    +0.057 A 
ATOM     24  C   UNL     1      35.942 -25.625 -15.167  0.00  0.00    +0.170 A 
ATOM     25  C   UNL     1      35.782 -23.423 -14.187  0.00  0.00    +0.170 A 
ATOM     26  C   UNL     1      36.931 -23.673 -13.437  0.00  0.00    +0.197 A 
ATOM     27  C   UNL     1      37.090 -25.876 -14.417  0.00  0.00    +0.197 A 
ATOM     28  C   UNL     1      37.586 -24.900 -13.552  0.00  0.00    +0.199 A 
ENDBRANCH  17  23
ENDBRANCH   2  17
TORSDOF 5
ENDMDL
MODEL 9
REMARK VINA RESULT:     -10.9      4.622      8.274
REMARK  Name = 445770
REMARK  5 active torsions:
REMARK  status: ('A' for Active; 'I' for Inactive)
REMARK    1  A    between atoms: N_2  and  C_17
REMARK    2  A    between atoms: C_3  and  C_5
REMARK    3  A    between atoms: C_6  and  S_11
REMARK    4  A    between atoms: S_11  and  N_14
REMARK    5  A    between atoms: C_17  and  C_23
REMARK                            x       y       z     vdW  Elec       q    Type
REMARK                         _______ _______ _______ _____ _____    ______ ____
ROOT
ATOM      1  O   UNL     1      33.446 -23.917 -19.295  0.00  0.00    -0.270 OA
ATOM      2  N   UNL     1      33.363 -22.567 -17.412  0.00  0.00    -0.297 N 
ATOM      3  C   UNL     1      33.524 -22.785 -18.785  0.00  0.00    +0.246 C 
ATOM      4  H   UNL     1      33.437 -21.645 -17.074  0.00  0.00    +0.150 HD
ENDROOT
BRANCH   3   5
ATOM      5  C   UNL     1      33.819 -21.622 -19.608  0.00  0.00    +0.053 C 
ATOM      6  C   UNL     1      34.383 -19.393 -21.186  0.00  0.00    +0.122 C 
ATOM      7  C   UNL     1      35.142 -21.244 -19.832  0.00  0.00    +0.006 C 
ATOM      8  C   UNL     1      32.777 -20.886 -20.172  0.00  0.00    +0.006 C 
ATOM      9  C   UNL     1      35.424 -20.129 -20.621  0.00  0.00    +0.020 C 
ATOM     10  C   UNL     1      33.059 -19.771 -20.962  0.00  0.00    +0.020 C 
BRANCH   6  11
ATOM     11  S   UNL     1      34.736 -17.998 -22.175  0.00  0.00    +0.057 S 
ATOM     12  O   UNL     1      34.884 -16.839 -21.305  0.00  0.00    -0.153 OA
ATOM     13  O   UNL     1      33.782 -17.960 -23.274  0.00  0.00    -0.153 OA
BRANCH  11  14
ATOM     14  N   UNL     1      36.272 -18.419 -22.794  0.00  0.00    -0.203 NA
ATOM     15  H   UNL     1      36.471 -19.395 -22.577  0.00  0.00    +0.144 HD
ATOM     16  H   UNL     1      36.984 -17.824 -22.370  0.00  0.00    +0.144 HD
ENDBRANCH  11  14
ENDBRANCH   6  11
ENDBRANCH   3   5
BRANCH   2  17
ATOM     17  C   UNL     1      33.090 -23.623 -16.462  0.00  0.00    +0.121 C 
BRANCH  17  23
ATOM     18  F   UNL     1      35.749 -22.778 -16.899  0.00  0.00    -0.202 F 
ATOM     19  F   UNL     1      32.601 -24.657 -13.883  0.00  0.00    -0.202 F 
ATOM     20  F   UNL     1      34.541 -24.827 -11.974  0.00  0.00    -0.199 F 
ATOM     21  F   UNL     1      37.680 -22.949 -14.982  0.00  0.00    -0.199 F 
ATOM     22  F   UNL     1      37.080 -23.973 -12.518  0.00  0.00    -0.199 F 
ATOM     23  C   UNL     1      34.159 -23.716 -15.406  0.00  0.00    +0.057 A 
ATOM     24  C   UNL     1      35.446 -23.280 -15.694  0.00  0.00    +0.170 A 
ATOM     25  C   UNL     1      33.844 -24.236 -14.159  0.00  0.00    +0.170 A 
ATOM     26  C   UNL     1      34.833 -24.324 -13.180  0.00  0.00    +0.197 A 
ATOM     27  C   UNL     1      36.435 -23.368 -14.716  0.00  0.00    +0.197 A 
ATOM     28  C   UNL     1      36.130 -23.889 -13.458  0.00  0.00    +0.199 A 
ENDBRANCH  17  23
ENDBRANCH   2  17
TORSDOF 5
ENDMDL
