MODEL 1
REMARK VINA RESULT:     -12.2      0.000      0.000
REMARK  Name = 16040289
REMARK  6 active torsions:
REMARK  status: ('A' for Active; 'I' for Inactive)
REMARK    1  A    between atoms: N_2  and  C_20
REMARK    2  A    between atoms: C_3  and  C_6
REMARK    3  A    between atoms: N_11  and  C_13
REMARK    4  A    between atoms: C_13  and  C_15
REMARK    5  A    between atoms: C_23  and  O_26
REMARK    6  A    between atoms: O_26  and  C_27
REMARK                            x       y       z     vdW  Elec       q    Type
REMARK                         _______ _______ _______ _____ _____    ______ ____
ROOT
ATOM      1  O   UNL     1      33.462 -23.856 -18.836  0.00  0.00    -0.270 OA
ATOM      2  N   UNL     1      33.016 -21.574 -18.490  0.00  0.00    -0.280 N 
ATOM      3  C   UNL     1      33.025 -22.934 -18.155  0.00  0.00    +0.252 C 
ATOM      4  H   UNL     1      32.622 -20.968 -17.820  0.00  0.00    +0.155 HD
ENDROOT
BRANCH   3   6
ATOM      5  N   UNL     1      32.636 -23.723 -14.506  0.00  0.00    -0.229 NA
ATOM      6  C   UNL     1      32.412 -23.273 -16.844  0.00  0.00    +0.085 C 
ATOM      7  C   UNL     1      33.167 -23.414 -15.711  0.00  0.00    +0.133 C 
ATOM      8  C   UNL     1      31.048 -23.445 -16.789  0.00  0.00    +0.009 C 
ATOM      9  C   UNL     1      30.463 -23.763 -15.568  0.00  0.00    +0.021 C 
ATOM     10  C   UNL     1      31.295 -23.890 -14.466  0.00  0.00    +0.100 C 
ATOM     11  N   UNL     1      34.571 -23.232 -15.786  0.00  0.00    -0.314 N 
ATOM     12  H   UNL     1      34.972 -23.005 -16.656  0.00  0.00    +0.149 HD
BRANCH  11  13
ATOM     13  C   UNL     1      35.425 -23.362 -14.651  0.00  0.00    +0.115 C 
BRANCH  13  15
ATOM     14  N   UNL     1      37.888 -26.850 -15.021  0.00  0.00    -0.242 NA
ATOM     15  C   UNL     1      36.290 -24.586 -14.781  0.00  0.00    +0.000 C 
ATOM     16  C   UNL     1      37.651 -24.491 -14.548  0.00  0.00    +0.018 C 
ATOM     17  C   UNL     1      35.716 -25.795 -15.133  0.00  0.00    +0.018 C 
ATOM     18  C   UNL     1      38.403 -25.647 -14.680  0.00  0.00    +0.099 C 
ATOM     19  C   UNL     1      36.555 -26.893 -15.238  0.00  0.00    +0.099 C 
ENDBRANCH  13  15
ENDBRANCH  11  13
ENDBRANCH   3   6
BRANCH   2  20
ATOM     20  C   UNL     1      33.494 -20.972 -19.653  0.00  0.00    +0.051 C 
ATOM     21  C   UNL     1      32.605 -20.374 -20.546  0.00  0.00    +0.018 C 
ATOM     22  C   UNL     1      34.863 -20.968 -19.924  0.00  0.00    +0.018 C 
ATOM     23  C   UNL     1      34.452 -19.768 -21.981  0.00  0.00    +0.145 C 
ATOM     24  C   UNL     1      33.084 -19.771 -21.710  0.00  0.00    +0.039 C 
ATOM     25  C   UNL     1      35.341 -20.366 -21.088  0.00  0.00    +0.039 C 
BRANCH  23  26
ATOM     26  O   UNL     1      34.919 -19.182 -23.117  0.00  0.00    -0.453 OA
BRANCH  26  27
ATOM     27  C   UNL     1      34.624 -17.845 -23.321  0.00  0.00    +0.145 C 
ATOM     28  C   UNL     1      34.014 -17.463 -24.503  0.00  0.00    +0.037 C 
ATOM     29  C   UNL     1      34.946 -16.926 -22.339  0.00  0.00    +0.037 C 
ATOM     30  C   UNL     1      33.718 -16.115 -24.709  0.00  0.00    +0.003 C 
ATOM     31  C   UNL     1      34.649 -15.578 -22.545  0.00  0.00    +0.003 C 
ATOM     32  C   UNL     1      34.035 -15.174 -23.730  0.00  0.00    +0.000 C 
ENDBRANCH  26  27
ENDBRANCH  23  26
ENDBRANCH   2  20
TORSDOF 6
ENDMDL
MODEL 2
REMARK VINA RESULT:     -12.2      0.035      1.232
REMARK  Name = 16040289
REMARK  6 active torsions:
REMARK  status: ('A' for Active; 'I' for Inactive)
REMARK    1  A    between atoms: N_2  and  C_20
REMARK    2  A    between atoms: C_3  and  C_6
REMARK    3  A    between atoms: N_11  and  C_13
REMARK    4  A    between atoms: C_13  and  C_15
REMARK    5  A    between atoms: C_23  and  O_26
REMARK    6  A    between atoms: O_26  and  C_27
REMARK                            x       y       z     vdW  Elec       q    Type
REMARK                         _______ _______ _______ _____ _____    ______ ____
ROOT
ATOM      1  O   UNL     1      33.450 -23.869 -18.811  0.00  0.00    -0.270 OA
ATOM      2  N   UNL     1      33.028 -21.582 -18.464  0.00  0.00    -0.280 N 
ATOM      3  C   UNL     1      33.027 -22.942 -18.128  0.00  0.00    +0.252 C 
ATOM      4  H   UNL     1      32.645 -20.972 -17.792  0.00  0.00    +0.155 HD
ENDROOT
BRANCH   3   6
ATOM      5  N   UNL     1      32.656 -23.716 -14.474  0.00  0.00    -0.229 NA
ATOM      6  C   UNL     1      32.420 -23.274 -16.812  0.00  0.00    +0.085 C 
ATOM      7  C   UNL     1      33.182 -23.414 -15.682  0.00  0.00    +0.133 C 
ATOM      8  C   UNL     1      31.055 -23.441 -16.748  0.00  0.00    +0.009 C 
ATOM      9  C   UNL     1      30.477 -23.752 -15.522  0.00  0.00    +0.021 C 
ATOM     10  C   UNL     1      31.315 -23.878 -14.425  0.00  0.00    +0.100 C 
ATOM     11  N   UNL     1      34.586 -23.237 -15.767  0.00  0.00    -0.314 N 
ATOM     12  H   UNL     1      34.982 -23.016 -16.640  0.00  0.00    +0.149 HD
BRANCH  11  13
ATOM     13  C   UNL     1      35.446 -23.367 -14.637  0.00  0.00    +0.115 C 
BRANCH  13  15
ATOM     14  N   UNL     1      37.886 -26.872 -15.002  0.00  0.00    -0.242 NA
ATOM     15  C   UNL     1      36.302 -24.598 -14.765  0.00  0.00    +0.000 C 
ATOM     16  C   UNL     1      35.726 -25.796 -15.147  0.00  0.00    +0.018 C 
ATOM     17  C   UNL     1      37.658 -24.518 -14.499  0.00  0.00    +0.018 C 
ATOM     18  C   UNL     1      36.556 -26.899 -15.250  0.00  0.00    +0.099 C 
ATOM     19  C   UNL     1      38.403 -25.679 -14.632  0.00  0.00    +0.099 C 
ENDBRANCH  13  15
ENDBRANCH  11  13
ENDBRANCH   3   6
BRANCH   2  20
ATOM     20  C   UNL     1      33.503 -20.986 -19.631  0.00  0.00    +0.051 C 
ATOM     21  C   UNL     1      32.613 -20.376 -20.516  0.00  0.00    +0.018 C 
ATOM     22  C   UNL     1      34.869 -21.000 -19.915  0.00  0.00    +0.018 C 
ATOM     23  C   UNL     1      34.455 -19.793 -21.967  0.00  0.00    +0.145 C 
ATOM     24  C   UNL     1      33.090 -19.780 -21.684  0.00  0.00    +0.039 C 
ATOM     25  C   UNL     1      35.345 -20.403 -21.083  0.00  0.00    +0.039 C 
BRANCH  23  26
ATOM     26  O   UNL     1      34.919 -19.213 -23.107  0.00  0.00    -0.453 OA
BRANCH  26  27
ATOM     27  C   UNL     1      34.632 -17.875 -23.312  0.00  0.00    +0.145 C 
ATOM     28  C   UNL     1      34.955 -16.958 -22.326  0.00  0.00    +0.037 C 
ATOM     29  C   UNL     1      34.030 -17.487 -24.495  0.00  0.00    +0.037 C 
ATOM     30  C   UNL     1      34.665 -15.609 -22.532  0.00  0.00    +0.003 C 
ATOM     31  C   UNL     1      33.740 -16.138 -24.701  0.00  0.00    +0.003 C 
ATOM     32  C   UNL     1      34.058 -15.200 -23.719  0.00  0.00    +0.000 C 
ENDBRANCH  26  27
ENDBRANCH  23  26
ENDBRANCH   2  20
TORSDOF 6
ENDMDL
MODEL 3
REMARK VINA RESULT:     -11.7      1.355      2.009
REMARK  Name = 16040289
REMARK  6 active torsions:
REMARK  status: ('A' for Active; 'I' for Inactive)
REMARK    1  A    between atoms: N_2  and  C_20
REMARK    2  A    between atoms: C_3  and  C_6
REMARK    3  A    between atoms: N_11  and  C_13
REMARK    4  A    between atoms: C_13  and  C_15
REMARK    5  A    between atoms: C_23  and  O_26
REMARK    6  A    between atoms: O_26  and  C_27
REMARK                            x       y       z     vdW  Elec       q    Type
REMARK                         _______ _______ _______ _____ _____    ______ ____
ROOT
ATOM      1  O   UNL     1      33.619 -23.599 -17.662  0.00  0.00    -0.270 OA
ATOM      2  N   UNL     1      32.362 -21.741 -18.365  0.00  0.00    -0.280 N 
ATOM      3  C   UNL     1      32.629 -22.878 -17.593  0.00  0.00    +0.252 C 
ATOM      4  H   UNL     1      31.513 -21.280 -18.174  0.00  0.00    +0.155 HD
ENDROOT
BRANCH   3   6
ATOM      5  N   UNL     1      30.947 -24.013 -14.436  0.00  0.00    -0.229 NA
ATOM      6  C   UNL     1      31.575 -23.245 -16.611  0.00  0.00    +0.085 C 
ATOM      7  C   UNL     1      31.885 -23.672 -15.347  0.00  0.00    +0.133 C 
ATOM      8  C   UNL     1      30.259 -23.146 -17.002  0.00  0.00    +0.009 C 
ATOM      9  C   UNL     1      29.265 -23.488 -16.092  0.00  0.00    +0.021 C 
ATOM     10  C   UNL     1      29.658 -23.912 -14.832  0.00  0.00    +0.100 C 
ATOM     11  N   UNL     1      33.245 -23.767 -14.962  0.00  0.00    -0.314 N 
ATOM     12  H   UNL     1      33.940 -23.521 -15.615  0.00  0.00    +0.149 HD
BRANCH  11  13
ATOM     13  C   UNL     1      33.649 -24.203 -13.665  0.00  0.00    +0.115 C 
BRANCH  13  15
ATOM     14  N   UNL     1      37.900 -23.881 -13.229  0.00  0.00    -0.242 NA
ATOM     15  C   UNL     1      35.141 -24.091 -13.513  0.00  0.00    +0.000 C 
ATOM     16  C   UNL     1      35.967 -24.469 -14.556  0.00  0.00    +0.018 C 
ATOM     17  C   UNL     1      35.673 -23.609 -12.328  0.00  0.00    +0.018 C 
ATOM     18  C   UNL     1      37.334 -24.346 -14.365  0.00  0.00    +0.099 C 
ATOM     19  C   UNL     1      37.054 -23.524 -12.238  0.00  0.00    +0.099 C 
ENDBRANCH  13  15
ENDBRANCH  11  13
ENDBRANCH   3   6
BRANCH   2  20
ATOM     20  C   UNL     1      33.149 -21.180 -19.371  0.00  0.00    +0.051 C 
ATOM     21  C   UNL     1      32.565 -20.372 -20.346  0.00  0.00    +0.018 C 
ATOM     22  C   UNL     1      34.522 -21.430 -19.401  0.00  0.00    +0.018 C 
ATOM     23  C   UNL     1      34.725 -20.060 -21.383  0.00  0.00    +0.145 C 
ATOM     24  C   UNL     1      33.354 -19.811 -21.351  0.00  0.00    +0.039 C 
ATOM     25  C   UNL     1      35.310 -20.869 -20.408  0.00  0.00    +0.039 C 
BRANCH  23  26
ATOM     26  O   UNL     1      35.494 -19.515 -22.364  0.00  0.00    -0.453 OA
BRANCH  26  27
ATOM     27  C   UNL     1      34.852 -18.808 -23.366  0.00  0.00    +0.145 C 
ATOM     28  C   UNL     1      34.720 -17.436 -23.243  0.00  0.00    +0.037 C 
ATOM     29  C   UNL     1      34.360 -19.489 -24.464  0.00  0.00    +0.037 C 
ATOM     30  C   UNL     1      34.072 -16.722 -24.252  0.00  0.00    +0.003 C 
ATOM     31  C   UNL     1      33.713 -18.776 -25.474  0.00  0.00    +0.003 C 
ATOM     32  C   UNL     1      33.569 -17.393 -25.367  0.00  0.00    +0.000 C 
ENDBRANCH  26  27
ENDBRANCH  23  26
ENDBRANCH   2  20
TORSDOF 6
ENDMDL
MODEL 4
REMARK VINA RESULT:     -11.5      5.679     12.660
REMARK  Name = 16040289
REMARK  6 active torsions:
REMARK  status: ('A' for Active; 'I' for Inactive)
REMARK    1  A    between atoms: N_2  and  C_20
REMARK    2  A    between atoms: C_3  and  C_6
REMARK    3  A    between atoms: N_11  and  C_13
REMARK    4  A    between atoms: C_13  and  C_15
REMARK    5  A    between atoms: C_23  and  O_26
REMARK    6  A    between atoms: O_26  and  C_27
REMARK                            x       y       z     vdW  Elec       q    Type
REMARK                         _______ _______ _______ _____ _____    ______ ____
ROOT
ATOM      1  O   UNL     1      33.104 -13.984 -23.239  0.00  0.00    -0.270 OA
ATOM      2  N   UNL     1      34.051 -15.584 -24.678  0.00  0.00    -0.280 N 
ATOM      3  C   UNL     1      33.401 -14.385 -24.360  0.00  0.00    +0.252 C 
ATOM      4  H   UNL     1      34.211 -15.747 -25.636  0.00  0.00    +0.155 HD
ENDROOT
BRANCH   3   6
ATOM      5  N   UNL     1      32.928 -11.399 -26.584  0.00  0.00    -0.229 NA
ATOM      6  C   UNL     1      33.019 -13.539 -25.520  0.00  0.00    +0.085 C 
ATOM      7  C   UNL     1      33.266 -12.192 -25.542  0.00  0.00    +0.133 C 
ATOM      8  C   UNL     1      32.401 -14.144 -26.591  0.00  0.00    +0.009 C 
ATOM      9  C   UNL     1      32.038 -13.361 -27.682  0.00  0.00    +0.021 C 
ATOM     10  C   UNL     1      32.322 -12.006 -27.629  0.00  0.00    +0.100 C 
ATOM     11  N   UNL     1      33.904 -11.586 -24.431  0.00  0.00    -0.314 N 
ATOM     12  H   UNL     1      34.158 -12.151 -23.666  0.00  0.00    +0.149 HD
BRANCH  11  13
ATOM     13  C   UNL     1      34.196 -10.191 -24.378  0.00  0.00    +0.115 C 
BRANCH  13  15
ATOM     14  N   UNL     1      31.577  -8.213 -21.621  0.00  0.00    -0.242 NA
ATOM     15  C   UNL     1      33.276  -9.497 -23.411  0.00  0.00    +0.000 C 
ATOM     16  C   UNL     1      32.149 -10.152 -22.947  0.00  0.00    +0.018 C 
ATOM     17  C   UNL     1      33.567  -8.209 -22.994  0.00  0.00    +0.018 C 
ATOM     18  C   UNL     1      31.335  -9.470 -22.058  0.00  0.00    +0.099 C 
ATOM     19  C   UNL     1      32.689  -7.615 -22.101  0.00  0.00    +0.099 C 
ENDBRANCH  13  15
ENDBRANCH  11  13
ENDBRANCH   3   6
BRANCH   2  20
ATOM     20  C   UNL     1      34.499 -16.577 -23.806  0.00  0.00    +0.051 C 
ATOM     21  C   UNL     1      34.682 -17.880 -24.267  0.00  0.00    +0.018 C 
ATOM     22  C   UNL     1      34.764 -16.264 -22.472  0.00  0.00    +0.018 C 
ATOM     23  C   UNL     1      35.396 -18.561 -22.061  0.00  0.00    +0.145 C 
ATOM     24  C   UNL     1      35.131 -18.872 -23.394  0.00  0.00    +0.039 C 
ATOM     25  C   UNL     1      35.213 -17.257 -21.600  0.00  0.00    +0.039 C 
BRANCH  23  26
ATOM     26  O   UNL     1      35.831 -19.528 -21.209  0.00  0.00    -0.453 OA
BRANCH  26  27
ATOM     27  C   UNL     1      34.876 -20.280 -20.546  0.00  0.00    +0.145 C 
ATOM     28  C   UNL     1      35.284 -21.329 -19.741  0.00  0.00    +0.037 C 
ATOM     29  C   UNL     1      33.539 -19.963 -20.704  0.00  0.00    +0.037 C 
ATOM     30  C   UNL     1      34.322 -22.087 -19.073  0.00  0.00    +0.003 C 
ATOM     31  C   UNL     1      32.577 -20.721 -20.036  0.00  0.00    +0.003 C 
ATOM     32  C   UNL     1      32.969 -21.783 -19.221  0.00  0.00    +0.000 C 
ENDBRANCH  26  27
ENDBRANCH  23  26
ENDBRANCH   2  20
TORSDOF 6
ENDMDL
MODEL 5
REMARK VINA RESULT:     -11.3      1.780      4.865
REMARK  Name = 16040289
REMARK  6 active torsions:
REMARK  status: ('A' for Active; 'I' for Inactive)
REMARK    1  A    between atoms: N_2  and  C_20
REMARK    2  A    between atoms: C_3  and  C_6
REMARK    3  A    between atoms: N_11  and  C_13
REMARK    4  A    between atoms: C_13  and  C_15
REMARK    5  A    between atoms: C_23  and  O_26
REMARK    6  A    between atoms: O_26  and  C_27
REMARK                            x       y       z     vdW  Elec       q    Type
REMARK                         _______ _______ _______ _____ _____    ______ ____
ROOT
ATOM      1  O   UNL     1      33.088 -23.723 -17.906  0.00  0.00    -0.270 OA
ATOM      2  N   UNL     1      34.788 -22.122 -17.639  0.00  0.00    -0.280 N 
ATOM      3  C   UNL     1      33.960 -23.178 -17.238  0.00  0.00    +0.252 C 
ATOM      4  H   UNL     1      35.437 -21.805 -16.969  0.00  0.00    +0.155 HD
ENDROOT
BRANCH   3   6
ATOM      5  N   UNL     1      33.275 -24.154 -13.679  0.00  0.00    -0.229 NA
ATOM      6  C   UNL     1      34.159 -23.652 -15.844  0.00  0.00    +0.085 C 
ATOM      7  C   UNL     1      33.121 -23.728 -14.953  0.00  0.00    +0.133 C 
ATOM      8  C   UNL     1      35.428 -24.018 -15.456  0.00  0.00    +0.009 C 
ATOM      9  C   UNL     1      35.626 -24.462 -14.153  0.00  0.00    +0.021 C 
ATOM     10  C   UNL     1      34.526 -24.511 -13.311  0.00  0.00    +0.100 C 
ATOM     11  N   UNL     1      31.821 -23.347 -15.370  0.00  0.00    -0.314 N 
ATOM     12  H   UNL     1      31.694 -23.036 -16.295  0.00  0.00    +0.149 HD
BRANCH  11  13
ATOM     13  C   UNL     1      30.690 -23.398 -14.502  0.00  0.00    +0.115 C 
BRANCH  13  15
ATOM     14  N   UNL     1      27.055 -23.364 -16.772  0.00  0.00    -0.242 NA
ATOM     15  C   UNL     1      29.414 -23.387 -15.300  0.00  0.00    +0.000 C 
ATOM     16  C   UNL     1      29.092 -24.474 -16.092  0.00  0.00    +0.018 C 
ATOM     17  C   UNL     1      28.575 -22.287 -15.232  0.00  0.00    +0.018 C 
ATOM     18  C   UNL     1      27.906 -24.414 -16.806  0.00  0.00    +0.099 C 
ATOM     19  C   UNL     1      27.412 -22.326 -15.984  0.00  0.00    +0.099 C 
ENDBRANCH  13  15
ENDBRANCH  11  13
ENDBRANCH   3   6
BRANCH   2  20
ATOM     20  C   UNL     1      34.808 -21.464 -18.868  0.00  0.00    +0.051 C 
ATOM     21  C   UNL     1      36.025 -21.112 -19.452  0.00  0.00    +0.018 C 
ATOM     22  C   UNL     1      33.610 -21.158 -19.514  0.00  0.00    +0.018 C 
ATOM     23  C   UNL     1      34.847 -20.147 -21.328  0.00  0.00    +0.145 C 
ATOM     24  C   UNL     1      36.044 -20.454 -20.682  0.00  0.00    +0.039 C 
ATOM     25  C   UNL     1      33.630 -20.499 -20.745  0.00  0.00    +0.039 C 
BRANCH  23  26
ATOM     26  O   UNL     1      34.865 -19.504 -22.527  0.00  0.00    -0.453 OA
BRANCH  26  27
ATOM     27  C   UNL     1      34.763 -18.123 -22.518  0.00  0.00    +0.145 C 
ATOM     28  C   UNL     1      34.853 -17.448 -21.313  0.00  0.00    +0.037 C 
ATOM     29  C   UNL     1      34.573 -17.453 -23.713  0.00  0.00    +0.037 C 
ATOM     30  C   UNL     1      34.750 -16.057 -21.304  0.00  0.00    +0.003 C 
ATOM     31  C   UNL     1      34.470 -16.062 -23.705  0.00  0.00    +0.003 C 
ATOM     32  C   UNL     1      34.558 -15.365 -22.500  0.00  0.00    +0.000 C 
ENDBRANCH  26  27
ENDBRANCH  23  26
ENDBRANCH   2  20
TORSDOF 6
ENDMDL
MODEL 6
REMARK VINA RESULT:     -11.2      1.727      4.441
REMARK  Name = 16040289
REMARK  6 active torsions:
REMARK  status: ('A' for Active; 'I' for Inactive)
REMARK    1  A    between atoms: N_2  and  C_20
REMARK    2  A    between atoms: C_3  and  C_6
REMARK    3  A    between atoms: N_11  and  C_13
REMARK    4  A    between atoms: C_13  and  C_15
REMARK    5  A    between atoms: C_23  and  O_26
REMARK    6  A    between atoms: O_26  and  C_27
REMARK                            x       y       z     vdW  Elec       q    Type
REMARK                         _______ _______ _______ _____ _____    ______ ____
ROOT
ATOM      1  O   UNL     1      33.663 -23.554 -17.415  0.00  0.00    -0.270 OA
ATOM      2  N   UNL     1      35.494 -22.080 -17.473  0.00  0.00    -0.280 N 
ATOM      3  C   UNL     1      34.675 -23.071 -16.917  0.00  0.00    +0.252 C 
ATOM      4  H   UNL     1      36.270 -21.808 -16.931  0.00  0.00    +0.155 HD
ENDROOT
BRANCH   3   6
ATOM      5  N   UNL     1      34.517 -24.117 -13.316  0.00  0.00    -0.229 NA
ATOM      6  C   UNL     1      35.080 -23.552 -15.571  0.00  0.00    +0.085 C 
ATOM      7  C   UNL     1      34.175 -23.683 -14.550  0.00  0.00    +0.133 C 
ATOM      8  C   UNL     1      36.403 -23.868 -15.363  0.00  0.00    +0.009 C 
ATOM      9  C   UNL     1      36.793 -24.318 -14.106  0.00  0.00    +0.021 C 
ATOM     10  C   UNL     1      35.819 -24.424 -13.125  0.00  0.00    +0.100 C 
ATOM     11  N   UNL     1      32.816 -23.354 -14.782  0.00  0.00    -0.314 N 
ATOM     12  H   UNL     1      32.553 -23.038 -15.677  0.00  0.00    +0.149 HD
BRANCH  11  13
ATOM     13  C   UNL     1      31.815 -23.463 -13.772  0.00  0.00    +0.115 C 
BRANCH  13  15
ATOM     14  N   UNL     1      27.984 -24.230 -15.533  0.00  0.00    -0.242 NA
ATOM     15  C   UNL     1      30.471 -23.733 -14.390  0.00  0.00    +0.000 C 
ATOM     16  C   UNL     1      29.931 -25.006 -14.328  0.00  0.00    +0.018 C 
ATOM     17  C   UNL     1      29.786 -22.705 -15.015  0.00  0.00    +0.018 C 
ATOM     18  C   UNL     1      28.690 -25.202 -14.912  0.00  0.00    +0.099 C 
ATOM     19  C   UNL     1      28.551 -23.004 -15.568  0.00  0.00    +0.099 C 
ENDBRANCH  13  15
ENDBRANCH  11  13
ENDBRANCH   3   6
BRANCH   2  20
ATOM     20  C   UNL     1      35.346 -21.431 -18.699  0.00  0.00    +0.051 C 
ATOM     21  C   UNL     1      34.084 -21.320 -19.283  0.00  0.00    +0.018 C 
ATOM     22  C   UNL     1      36.462 -20.893 -19.341  0.00  0.00    +0.018 C 
ATOM     23  C   UNL     1      35.052 -20.133 -21.151  0.00  0.00    +0.145 C 
ATOM     24  C   UNL     1      33.937 -20.670 -20.509  0.00  0.00    +0.039 C 
ATOM     25  C   UNL     1      36.314 -20.243 -20.567  0.00  0.00    +0.039 C 
BRANCH  23  26
ATOM     26  O   UNL     1      34.909 -19.501 -22.348  0.00  0.00    -0.453 OA
BRANCH  26  27
ATOM     27  C   UNL     1      34.796 -18.121 -22.338  0.00  0.00    +0.145 C 
ATOM     28  C   UNL     1      34.662 -17.448 -23.540  0.00  0.00    +0.037 C 
ATOM     29  C   UNL     1      34.822 -17.451 -21.129  0.00  0.00    +0.037 C 
ATOM     30  C   UNL     1      34.549 -16.058 -23.531  0.00  0.00    +0.003 C 
ATOM     31  C   UNL     1      34.709 -16.060 -21.120  0.00  0.00    +0.003 C 
ATOM     32  C   UNL     1      34.573 -15.364 -22.321  0.00  0.00    +0.000 C 
ENDBRANCH  26  27
ENDBRANCH  23  26
ENDBRANCH   2  20
TORSDOF 6
ENDMDL
MODEL 7
REMARK VINA RESULT:     -11.0      1.262      1.846
REMARK  Name = 16040289
REMARK  6 active torsions:
REMARK  status: ('A' for Active; 'I' for Inactive)
REMARK    1  A    between atoms: N_2  and  C_20
REMARK    2  A    between atoms: C_3  and  C_6
REMARK    3  A    between atoms: N_11  and  C_13
REMARK    4  A    between atoms: C_13  and  C_15
REMARK    5  A    between atoms: C_23  and  O_26
REMARK    6  A    between atoms: O_26  and  C_27
REMARK                            x       y       z     vdW  Elec       q    Type
REMARK                         _______ _______ _______ _____ _____    ______ ____
ROOT
ATOM      1  O   UNL     1      31.062 -22.328 -17.593  0.00  0.00    -0.270 OA
ATOM      2  N   UNL     1      33.342 -22.819 -17.299  0.00  0.00    -0.280 N 
ATOM      3  C   UNL     1      31.978 -22.870 -16.984  0.00  0.00    +0.252 C 
ATOM      4  H   UNL     1      33.942 -23.316 -16.697  0.00  0.00    +0.155 HD
ENDROOT
BRANCH   3   6
ATOM      5  N   UNL     1      32.260 -24.563 -13.646  0.00  0.00    -0.229 NA
ATOM      6  C   UNL     1      31.633 -23.646 -15.764  0.00  0.00    +0.085 C 
ATOM      7  C   UNL     1      32.546 -23.860 -14.765  0.00  0.00    +0.133 C 
ATOM      8  C   UNL     1      30.360 -24.155 -15.655  0.00  0.00    +0.009 C 
ATOM      9  C   UNL     1      30.027 -24.883 -14.518  0.00  0.00    +0.021 C 
ATOM     10  C   UNL     1      31.005 -25.058 -13.551  0.00  0.00    +0.100 C 
ATOM     11  N   UNL     1      33.853 -23.328 -14.894  0.00  0.00    -0.314 N 
ATOM     12  H   UNL     1      34.075 -22.813 -15.703  0.00  0.00    +0.149 HD
BRANCH  11  13
ATOM     13  C   UNL     1      34.859 -23.508 -13.899  0.00  0.00    +0.115 C 
BRANCH  13  15
ATOM     14  N   UNL     1      37.719 -26.436 -15.169  0.00  0.00    -0.242 NA
ATOM     15  C   UNL     1      35.863 -24.535 -14.345  0.00  0.00    +0.000 C 
ATOM     16  C   UNL     1      37.212 -24.311 -14.133  0.00  0.00    +0.018 C 
ATOM     17  C   UNL     1      35.427 -25.695 -14.962  0.00  0.00    +0.018 C 
ATOM     18  C   UNL     1      38.096 -25.288 -14.562  0.00  0.00    +0.099 C 
ATOM     19  C   UNL     1      36.391 -26.611 -15.353  0.00  0.00    +0.099 C 
ENDBRANCH  13  15
ENDBRANCH  11  13
ENDBRANCH   3   6
BRANCH   2  20
ATOM     20  C   UNL     1      33.955 -22.152 -18.359  0.00  0.00    +0.051 C 
ATOM     21  C   UNL     1      35.344 -22.033 -18.399  0.00  0.00    +0.018 C 
ATOM     22  C   UNL     1      33.177 -21.604 -19.380  0.00  0.00    +0.018 C 
ATOM     23  C   UNL     1      35.180 -20.817 -20.481  0.00  0.00    +0.145 C 
ATOM     24  C   UNL     1      35.956 -21.365 -19.461  0.00  0.00    +0.039 C 
ATOM     25  C   UNL     1      33.791 -20.937 -20.442  0.00  0.00    +0.039 C 
BRANCH  23  26
ATOM     26  O   UNL     1      35.777 -20.165 -21.515  0.00  0.00    -0.453 OA
BRANCH  26  27
ATOM     27  C   UNL     1      35.356 -18.875 -21.792  0.00  0.00    +0.145 C 
ATOM     28  C   UNL     1      35.029 -18.538 -23.094  0.00  0.00    +0.037 C 
ATOM     29  C   UNL     1      35.273 -17.957 -20.761  0.00  0.00    +0.037 C 
ATOM     30  C   UNL     1      34.606 -17.238 -23.373  0.00  0.00    +0.003 C 
ATOM     31  C   UNL     1      34.850 -16.657 -21.040  0.00  0.00    +0.003 C 
ATOM     32  C   UNL     1      34.517 -16.299 -22.346  0.00  0.00    +0.000 C 
ENDBRANCH  26  27
ENDBRANCH  23  26
ENDBRANCH   2  20
TORSDOF 6
ENDMDL
MODEL 8
REMARK VINA RESULT:     -10.8      3.549     10.501
REMARK  Name = 16040289
REMARK  6 active torsions:
REMARK  status: ('A' for Active; 'I' for Inactive)
REMARK    1  A    between atoms: N_2  and  C_20
REMARK    2  A    between atoms: C_3  and  C_6
REMARK    3  A    between atoms: N_11  and  C_13
REMARK    4  A    between atoms: C_13  and  C_15
REMARK    5  A    between atoms: C_23  and  O_26
REMARK    6  A    between atoms: O_26  and  C_27
REMARK                            x       y       z     vdW  Elec       q    Type
REMARK                         _______ _______ _______ _____ _____    ______ ____
ROOT
ATOM      1  O   UNL     1      34.763 -17.608 -21.160  0.00  0.00    -0.270 OA
ATOM      2  N   UNL     1      34.212 -19.757 -21.939  0.00  0.00    -0.280 N 
ATOM      3  C   UNL     1      34.435 -18.379 -22.056  0.00  0.00    +0.252 C 
ATOM      4  H   UNL     1      33.953 -20.224 -22.766  0.00  0.00    +0.155 HD
ENDROOT
BRANCH   3   6
ATOM      5  N   UNL     1      34.040 -15.917 -24.861  0.00  0.00    -0.229 NA
ATOM      6  C   UNL     1      34.219 -17.811 -23.412  0.00  0.00    +0.085 C 
ATOM      7  C   UNL     1      34.235 -16.461 -23.639  0.00  0.00    +0.133 C 
ATOM      8  C   UNL     1      33.999 -18.682 -24.455  0.00  0.00    +0.009 C 
ATOM      9  C   UNL     1      33.795 -18.161 -25.728  0.00  0.00    +0.021 C 
ATOM     10  C   UNL     1      33.825 -16.783 -25.877  0.00  0.00    +0.100 C 
ATOM     11  N   UNL     1      34.465 -15.579 -22.553  0.00  0.00    -0.314 N 
ATOM     12  H   UNL     1      34.609 -15.960 -21.657  0.00  0.00    +0.149 HD
BRANCH  11  13
ATOM     13  C   UNL     1      34.496 -14.161 -22.707  0.00  0.00    +0.115 C 
BRANCH  13  15
ATOM     14  N   UNL     1      31.109 -12.366 -20.789  0.00  0.00    -0.242 NA
ATOM     15  C   UNL     1      33.307 -13.532 -22.033  0.00  0.00    +0.000 C 
ATOM     16  C   UNL     1      33.023 -13.842 -20.715  0.00  0.00    +0.018 C 
ATOM     17  C   UNL     1      32.509 -12.648 -22.739  0.00  0.00    +0.018 C 
ATOM     18  C   UNL     1      31.918 -13.236 -20.141  0.00  0.00    +0.099 C 
ATOM     19  C   UNL     1      31.427 -12.094 -22.074  0.00  0.00    +0.099 C 
ENDBRANCH  13  15
ENDBRANCH  11  13
ENDBRANCH   3   6
BRANCH   2  20
ATOM     20  C   UNL     1      34.312 -20.550 -20.795  0.00  0.00    +0.051 C 
ATOM     21  C   UNL     1      35.567 -20.883 -20.285  0.00  0.00    +0.018 C 
ATOM     22  C   UNL     1      33.157 -21.009 -20.163  0.00  0.00    +0.018 C 
ATOM     23  C   UNL     1      34.511 -22.136 -18.508  0.00  0.00    +0.145 C 
ATOM     24  C   UNL     1      35.666 -21.676 -19.141  0.00  0.00    +0.039 C 
ATOM     25  C   UNL     1      33.257 -21.802 -19.019  0.00  0.00    +0.039 C 
BRANCH  23  26
ATOM     26  O   UNL     1      34.608 -22.911 -17.394  0.00  0.00    -0.453 OA
BRANCH  26  27
ATOM     27  C   UNL     1      33.468 -23.083 -16.628  0.00  0.00    +0.145 C 
ATOM     28  C   UNL     1      32.235 -23.120 -17.255  0.00  0.00    +0.037 C 
ATOM     29  C   UNL     1      33.590 -23.213 -15.257  0.00  0.00    +0.037 C 
ATOM     30  C   UNL     1      31.085 -23.292 -16.483  0.00  0.00    +0.003 C 
ATOM     31  C   UNL     1      32.441 -23.386 -14.485  0.00  0.00    +0.003 C 
ATOM     32  C   UNL     1      31.189 -23.425 -15.099  0.00  0.00    +0.000 C 
ENDBRANCH  26  27
ENDBRANCH  23  26
ENDBRANCH   2  20
TORSDOF 6
ENDMDL
MODEL 9
REMARK VINA RESULT:     -10.6      3.500     10.660
REMARK  Name = 16040289
REMARK  6 active torsions:
REMARK  status: ('A' for Active; 'I' for Inactive)
REMARK    1  A    between atoms: N_2  and  C_20
REMARK    2  A    between atoms: C_3  and  C_6
REMARK    3  A    between atoms: N_11  and  C_13
REMARK    4  A    between atoms: C_13  and  C_15
REMARK    5  A    between atoms: C_23  and  O_26
REMARK    6  A    between atoms: O_26  and  C_27
REMARK                            x       y       z     vdW  Elec       q    Type
REMARK                         _______ _______ _______ _____ _____    ______ ____
ROOT
ATOM      1  O   UNL     1      36.125 -18.131 -21.600  0.00  0.00    -0.270 OA
ATOM      2  N   UNL     1      33.845 -18.390 -21.092  0.00  0.00    -0.280 N 
ATOM      3  C   UNL     1      34.969 -17.722 -21.591  0.00  0.00    +0.252 C 
ATOM      4  H   UNL     1      32.989 -17.909 -21.167  0.00  0.00    +0.155 HD
ENDROOT
BRANCH   3   6
ATOM      5  N   UNL     1      34.435 -14.904 -24.013  0.00  0.00    -0.229 NA
ATOM      6  C   UNL     1      34.713 -16.364 -22.139  0.00  0.00    +0.085 C 
ATOM      7  C   UNL     1      34.665 -16.129 -23.488  0.00  0.00    +0.133 C 
ATOM      8  C   UNL     1      34.522 -15.329 -21.252  0.00  0.00    +0.009 C 
ATOM      9  C   UNL     1      34.283 -14.055 -21.754  0.00  0.00    +0.021 C 
ATOM     10  C   UNL     1      34.250 -13.897 -23.131  0.00  0.00    +0.100 C 
ATOM     11  N   UNL     1      34.863 -17.206 -24.387  0.00  0.00    -0.314 N 
ATOM     12  H   UNL     1      35.030 -18.104 -24.019  0.00  0.00    +0.149 HD
BRANCH  11  13
ATOM     13  C   UNL     1      34.828 -17.042 -25.803  0.00  0.00    +0.115 C 
BRANCH  13  15
ATOM     14  N   UNL     1      30.786 -16.626 -27.166  0.00  0.00    -0.242 NA
ATOM     15  C   UNL     1      33.409 -16.897 -26.282  0.00  0.00    +0.000 C 
ATOM     16  C   UNL     1      32.467 -17.848 -25.933  0.00  0.00    +0.018 C 
ATOM     17  C   UNL     1      33.060 -15.811 -27.067  0.00  0.00    +0.018 C 
ATOM     18  C   UNL     1      31.175 -17.668 -26.398  0.00  0.00    +0.099 C 
ATOM     19  C   UNL     1      31.741 -15.722 -27.481  0.00  0.00    +0.099 C 
ENDBRANCH  13  15
ENDBRANCH  11  13
ENDBRANCH   3   6
BRANCH   2  20
ATOM     20  C   UNL     1      33.787 -19.653 -20.502  0.00  0.00    +0.051 C 
ATOM     21  C   UNL     1      32.552 -20.226 -20.200  0.00  0.00    +0.018 C 
ATOM     22  C   UNL     1      34.966 -20.341 -20.212  0.00  0.00    +0.018 C 
ATOM     23  C   UNL     1      33.673 -22.178 -19.320  0.00  0.00    +0.145 C 
ATOM     24  C   UNL     1      32.495 -21.490 -19.610  0.00  0.00    +0.039 C 
ATOM     25  C   UNL     1      34.908 -21.604 -19.621  0.00  0.00    +0.039 C 
BRANCH  23  26
ATOM     26  O   UNL     1      33.617 -23.409 -18.743  0.00  0.00    -0.453 OA
BRANCH  26  27
ATOM     27  C   UNL     1      33.306 -23.474 -17.395  0.00  0.00    +0.145 C 
ATOM     28  C   UNL     1      31.979 -23.405 -17.007  0.00  0.00    +0.037 C 
ATOM     29  C   UNL     1      34.327 -23.607 -16.472  0.00  0.00    +0.037 C 
ATOM     30  C   UNL     1      31.665 -23.470 -15.649  0.00  0.00    +0.003 C 
ATOM     31  C   UNL     1      34.013 -23.672 -15.115  0.00  0.00    +0.003 C 
ATOM     32  C   UNL     1      32.681 -23.604 -14.704  0.00  0.00    +0.000 C 
ENDBRANCH  26  27
ENDBRANCH  23  26
ENDBRANCH   2  20
TORSDOF 6
ENDMDL
