MODEL 1
REMARK VINA RESULT:     -12.4      0.000      0.000
REMARK  Name = 59568713
REMARK  8 active torsions:
REMARK  status: ('A' for Active; 'I' for Inactive)
REMARK    1  A    between atoms: N_1  and  C_9
REMARK    2  A    between atoms: N_2  and  C_24
REMARK    3  A    between atoms: C_9  and  C_10
REMARK    4  A    between atoms: C_10  and  C_13
REMARK    5  A    between atoms: C_10  and  O_22
REMARK    6  A    between atoms: C_24  and  C_25
REMARK    7  A    between atoms: C_25  and  C_28
REMARK    8  A    between atoms: C_25  and  O_37
REMARK                            x       y       z     vdW  Elec       q    Type
REMARK                         _______ _______ _______ _____ _____    ______ ____
ROOT
ATOM      1  N   UNL     1      34.208 -15.868 -22.258  0.00  0.00    +0.386 N 
ATOM      2  N   UNL     1      33.466 -13.127 -22.805  0.00  0.00    +0.386 N 
ATOM      3  C   UNL     1      33.507 -14.134 -23.873  0.00  0.00    -0.101 C 
ATOM      4  C   UNL     1      33.153 -13.759 -21.518  0.00  0.00    -0.101 C 
ATOM      5  C   UNL     1      34.520 -15.236 -23.546  0.00  0.00    -0.101 C 
ATOM      6  C   UNL     1      34.166 -14.862 -21.190  0.00  0.00    -0.101 C 
ATOM      7  H   UNL     1      33.287 -16.301 -22.328  0.00  0.00    -0.080 HD
ATOM      8  H   UNL     1      34.388 -12.696 -22.735  0.00  0.00    -0.080 HD
ENDROOT
BRANCH   1   9
ATOM      9  C   UNL     1      35.177 -16.916 -21.946  0.00  0.00    -0.043 C 
BRANCH   9  10
ATOM     10  C   UNL     1      34.784 -18.240 -22.616  0.00  0.00    +0.112 C 
BRANCH  10  13
ATOM     11  O   UNL     1      34.672 -22.482 -18.302  0.00  0.00    -0.440 OA
ATOM     12  O   UNL     1      32.364 -22.655 -18.347  0.00  0.00    -0.245 OA
ATOM     13  C   UNL     1      34.377 -19.279 -21.594  0.00  0.00    -0.002 C 
ATOM     14  C   UNL     1      35.342 -19.940 -20.827  0.00  0.00    -0.024 C 
ATOM     15  C   UNL     1      34.915 -20.882 -19.909  0.00  0.00    +0.023 C 
ATOM     16  C   UNL     1      33.012 -19.565 -21.432  0.00  0.00    -0.002 C 
ATOM     17  C   UNL     1      33.570 -21.154 -19.760  0.00  0.00    +0.075 C 
ATOM     18  C   UNL     1      32.592 -20.518 -20.503  0.00  0.00    +0.006 C 
ATOM     19  C   UNL     1      35.698 -21.717 -18.981  0.00  0.00    +0.235 C 
ATOM     20  C   UNL     1      36.795 -19.646 -20.989  0.00  0.00    +0.031 C 
ATOM     21  C   UNL     1      33.409 -22.174 -18.736  0.00  0.00    +0.341 C 
ENDBRANCH  10  13
BRANCH  10  22
ATOM     22  O   UNL     1      33.688 -18.036 -23.507  0.00  0.00    -0.382 OA
ATOM     23  H   UNL     1      34.000 -17.585 -24.306  0.00  0.00    +0.211 HD
ENDBRANCH  10  22
ENDBRANCH   9  10
ENDBRANCH   1   9
BRANCH   2  24
ATOM     24  C   UNL     1      32.499 -12.078 -23.117  0.00  0.00    -0.043 C 
BRANCH  24  25
ATOM     25  C   UNL     1      31.856 -11.530 -21.837  0.00  0.00    +0.112 C 
BRANCH  25  28
ATOM     26  O   UNL     1      31.889  -5.737 -20.085  0.00  0.00    -0.440 OA
ATOM     27  O   UNL     1      32.461  -4.966 -22.191  0.00  0.00    -0.245 OA
ATOM     28  C   UNL     1      31.959 -10.022 -21.765  0.00  0.00    -0.002 C 
ATOM     29  C   UNL     1      31.720  -9.347 -20.564  0.00  0.00    -0.024 C 
ATOM     30  C   UNL     1      31.828  -7.969 -20.556  0.00  0.00    +0.023 C 
ATOM     31  C   UNL     1      32.299  -9.314 -22.932  0.00  0.00    -0.002 C 
ATOM     32  C   UNL     1      32.161  -7.286 -21.707  0.00  0.00    +0.075 C 
ATOM     33  C   UNL     1      32.403  -7.923 -22.910  0.00  0.00    +0.006 C 
ATOM     34  C   UNL     1      31.634  -7.015 -19.450  0.00  0.00    +0.235 C 
ATOM     35  C   UNL     1      31.359 -10.086 -19.321  0.00  0.00    +0.031 C 
ATOM     36  C   UNL     1      32.202  -5.862 -21.414  0.00  0.00    +0.341 C 
ENDBRANCH  25  28
BRANCH  25  37
ATOM     37  O   UNL     1      30.474 -11.885 -21.787  0.00  0.00    -0.382 OA
ATOM     38  H   UNL     1      30.202 -11.995 -20.863  0.00  0.00    +0.211 HD
ENDBRANCH  25  37
ENDBRANCH  24  25
ENDBRANCH   2  24
TORSDOF 8
ENDMDL
MODEL 2
REMARK VINA RESULT:     -12.4      0.064     11.547
REMARK  Name = 59568713
REMARK  8 active torsions:
REMARK  status: ('A' for Active; 'I' for Inactive)
REMARK    1  A    between atoms: N_1  and  C_9
REMARK    2  A    between atoms: N_2  and  C_24
REMARK    3  A    between atoms: C_9  and  C_10
REMARK    4  A    between atoms: C_10  and  C_13
REMARK    5  A    between atoms: C_10  and  O_22
REMARK    6  A    between atoms: C_24  and  C_25
REMARK    7  A    between atoms: C_25  and  C_28
REMARK    8  A    between atoms: C_25  and  O_37
REMARK                            x       y       z     vdW  Elec       q    Type
REMARK                         _______ _______ _______ _____ _____    ______ ____
ROOT
ATOM      1  N   UNL     1      33.403 -13.141 -22.789  0.00  0.00    +0.386 N 
ATOM      2  N   UNL     1      34.198 -15.865 -22.235  0.00  0.00    +0.386 N 
ATOM      3  C   UNL     1      34.482 -15.236 -23.531  0.00  0.00    -0.101 C 
ATOM      4  C   UNL     1      34.156 -14.853 -21.173  0.00  0.00    -0.101 C 
ATOM      5  C   UNL     1      33.446 -14.153 -23.851  0.00  0.00    -0.101 C 
ATOM      6  C   UNL     1      33.120 -13.769 -21.493  0.00  0.00    -0.101 C 
ATOM      7  H   UNL     1      34.317 -12.692 -22.736  0.00  0.00    -0.080 HD
ATOM      8  H   UNL     1      33.282 -16.312 -22.289  0.00  0.00    -0.080 HD
ENDROOT
BRANCH   1   9
ATOM      9  C   UNL     1      32.412 -12.111 -23.094  0.00  0.00    -0.043 C 
BRANCH   9  10
ATOM     10  C   UNL     1      31.809 -11.536 -21.806  0.00  0.00    +0.112 C 
BRANCH  10  13
ATOM     11  O   UNL     1      31.921  -5.710 -20.174  0.00  0.00    -0.440 OA
ATOM     12  O   UNL     1      32.399  -4.981 -22.319  0.00  0.00    -0.245 OA
ATOM     13  C   UNL     1      31.915 -10.027 -21.770  0.00  0.00    -0.002 C 
ATOM     14  C   UNL     1      31.731  -9.328 -20.573  0.00  0.00    -0.024 C 
ATOM     15  C   UNL     1      31.838  -7.950 -20.596  0.00  0.00    +0.023 C 
ATOM     16  C   UNL     1      32.203  -9.344 -22.963  0.00  0.00    -0.002 C 
ATOM     17  C   UNL     1      32.120  -7.291 -21.776  0.00  0.00    +0.075 C 
ATOM     18  C   UNL     1      32.308  -7.952 -22.975  0.00  0.00    +0.006 C 
ATOM     19  C   UNL     1      31.695  -6.973 -19.502  0.00  0.00    +0.235 C 
ATOM     20  C   UNL     1      31.425 -10.041 -19.299  0.00  0.00    +0.031 C 
ATOM     21  C   UNL     1      32.174  -5.861 -21.512  0.00  0.00    +0.341 C 
ENDBRANCH  10  13
BRANCH  10  22
ATOM     22  O   UNL     1      30.430 -11.889 -21.706  0.00  0.00    -0.382 OA
ATOM     23  H   UNL     1      29.892 -11.084 -21.653  0.00  0.00    +0.211 HD
ENDBRANCH  10  22
ENDBRANCH   9  10
ENDBRANCH   1   9
BRANCH   2  24
ATOM     24  C   UNL     1      35.187 -16.896 -21.931  0.00  0.00    -0.043 C 
BRANCH  24  25
ATOM     25  C   UNL     1      34.817 -18.223 -22.605  0.00  0.00    +0.112 C 
BRANCH  25  28
ATOM     26  O   UNL     1      34.696 -22.478 -18.303  0.00  0.00    -0.440 OA
ATOM     27  O   UNL     1      32.390 -22.659 -18.360  0.00  0.00    -0.245 OA
ATOM     28  C   UNL     1      34.408 -19.267 -21.588  0.00  0.00    -0.002 C 
ATOM     29  C   UNL     1      35.371 -19.928 -20.818  0.00  0.00    -0.024 C 
ATOM     30  C   UNL     1      34.942 -20.873 -19.904  0.00  0.00    +0.023 C 
ATOM     31  C   UNL     1      33.041 -19.559 -21.434  0.00  0.00    -0.002 C 
ATOM     32  C   UNL     1      33.598 -21.150 -19.763  0.00  0.00    +0.075 C 
ATOM     33  C   UNL     1      32.622 -20.515 -20.508  0.00  0.00    +0.006 C 
ATOM     34  C   UNL     1      35.723 -21.709 -18.976  0.00  0.00    +0.235 C 
ATOM     35  C   UNL     1      36.823 -19.629 -20.973  0.00  0.00    +0.031 C 
ATOM     36  C   UNL     1      33.435 -22.174 -18.743  0.00  0.00    +0.341 C 
ENDBRANCH  25  28
BRANCH  25  37
ATOM     37  O   UNL     1      33.729 -18.032 -23.509  0.00  0.00    -0.382 OA
ATOM     38  H   UNL     1      34.075 -17.838 -24.394  0.00  0.00    +0.211 HD
ENDBRANCH  25  37
ENDBRANCH  24  25
ENDBRANCH   2  24
TORSDOF 8
ENDMDL
MODEL 3
REMARK VINA RESULT:     -12.1      4.690      7.344
REMARK  Name = 59568713
REMARK  8 active torsions:
REMARK  status: ('A' for Active; 'I' for Inactive)
REMARK    1  A    between atoms: N_1  and  C_9
REMARK    2  A    between atoms: N_2  and  C_24
REMARK    3  A    between atoms: C_9  and  C_10
REMARK    4  A    between atoms: C_10  and  C_13
REMARK    5  A    between atoms: C_10  and  O_22
REMARK    6  A    between atoms: C_24  and  C_25
REMARK    7  A    between atoms: C_25  and  C_28
REMARK    8  A    between atoms: C_25  and  O_37
REMARK                            x       y       z     vdW  Elec       q    Type
REMARK                         _______ _______ _______ _____ _____    ______ ____
ROOT
ATOM      1  N   UNL     1      33.504 -21.172 -20.215  0.00  0.00    +0.386 N 
ATOM      2  N   UNL     1      34.960 -18.908 -21.272  0.00  0.00    +0.386 N 
ATOM      3  C   UNL     1      35.659 -20.094 -20.761  0.00  0.00    -0.101 C 
ATOM      4  C   UNL     1      33.642 -19.279 -21.799  0.00  0.00    -0.101 C 
ATOM      5  C   UNL     1      34.823 -20.801 -19.689  0.00  0.00    -0.101 C 
ATOM      6  C   UNL     1      32.805 -19.987 -20.728  0.00  0.00    -0.101 C 
ATOM      7  H   UNL     1      33.638 -21.824 -20.987  0.00  0.00    -0.080 HD
ATOM      8  H   UNL     1      34.825 -18.257 -20.499  0.00  0.00    -0.080 HD
ENDROOT
BRANCH   1   9
ATOM      9  C   UNL     1      32.706 -21.842 -19.191  0.00  0.00    -0.043 C 
BRANCH   9  10
ATOM     10  C   UNL     1      33.531 -22.922 -18.478  0.00  0.00    +0.112 C 
BRANCH  10  13
ATOM     11  O   UNL     1      32.765 -24.266 -12.627  0.00  0.00    -0.440 OA
ATOM     12  O   UNL     1      30.456 -24.229 -12.784  0.00  0.00    -0.245 OA
ATOM     13  C   UNL     1      32.968 -23.235 -17.109  0.00  0.00    -0.002 C 
ATOM     14  C   UNL     1      33.820 -23.484 -16.028  0.00  0.00    -0.024 C 
ATOM     15  C   UNL     1      33.252 -23.766 -14.799  0.00  0.00    +0.023 C 
ATOM     16  C   UNL     1      31.573 -23.271 -16.946  0.00  0.00    -0.002 C 
ATOM     17  C   UNL     1      31.880 -23.800 -14.653  0.00  0.00    +0.075 C 
ATOM     18  C   UNL     1      31.011 -23.558 -15.701  0.00  0.00    +0.006 C 
ATOM     19  C   UNL     1      33.898 -24.063 -13.507  0.00  0.00    +0.235 C 
ATOM     20  C   UNL     1      35.302 -23.449 -16.187  0.00  0.00    +0.031 C 
ATOM     21  C   UNL     1      31.564 -24.118 -13.270  0.00  0.00    +0.341 C 
ENDBRANCH  10  13
BRANCH  10  22
ATOM     22  O   UNL     1      33.536 -24.126 -19.244  0.00  0.00    -0.382 OA
ATOM     23  H   UNL     1      33.322 -24.877 -18.670  0.00  0.00    +0.211 HD
ENDBRANCH  10  22
ENDBRANCH   9  10
ENDBRANCH   1   9
BRANCH   2  24
ATOM     24  C   UNL     1      35.758 -18.236 -22.295  0.00  0.00    -0.043 C 
BRANCH  24  25
ATOM     25  C   UNL     1      35.421 -16.741 -22.354  0.00  0.00    +0.112 C 
BRANCH  25  28
ATOM     26  O   UNL     1      32.401 -13.959 -26.800  0.00  0.00    -0.440 OA
ATOM     27  O   UNL     1      32.476 -15.810 -28.188  0.00  0.00    -0.245 OA
ATOM     28  C   UNL     1      34.714 -16.382 -23.643  0.00  0.00    -0.002 C 
ATOM     29  C   UNL     1      34.158 -15.111 -23.821  0.00  0.00    -0.024 C 
ATOM     30  C   UNL     1      33.523 -14.837 -25.018  0.00  0.00    +0.023 C 
ATOM     31  C   UNL     1      34.627 -17.353 -24.656  0.00  0.00    -0.002 C 
ATOM     32  C   UNL     1      33.444 -15.798 -26.004  0.00  0.00    +0.075 C 
ATOM     33  C   UNL     1      33.982 -17.063 -25.860  0.00  0.00    +0.006 C 
ATOM     34  C   UNL     1      32.859 -13.602 -25.472  0.00  0.00    +0.235 C 
ATOM     35  C   UNL     1      34.243 -14.073 -22.754  0.00  0.00    +0.031 C 
ATOM     36  C   UNL     1      32.729 -15.244 -27.144  0.00  0.00    +0.341 C 
ENDBRANCH  25  28
BRANCH  25  37
ATOM     37  O   UNL     1      34.571 -16.382 -21.264  0.00  0.00    -0.382 OA
ATOM     38  H   UNL     1      34.548 -17.107 -20.620  0.00  0.00    +0.211 HD
ENDBRANCH  25  37
ENDBRANCH  24  25
ENDBRANCH   2  24
TORSDOF 8
ENDMDL
MODEL 4
REMARK VINA RESULT:     -12.1      4.679     11.910
REMARK  Name = 59568713
REMARK  8 active torsions:
REMARK  status: ('A' for Active; 'I' for Inactive)
REMARK    1  A    between atoms: N_1  and  C_9
REMARK    2  A    between atoms: N_2  and  C_24
REMARK    3  A    between atoms: C_9  and  C_10
REMARK    4  A    between atoms: C_10  and  C_13
REMARK    5  A    between atoms: C_10  and  O_22
REMARK    6  A    between atoms: C_24  and  C_25
REMARK    7  A    between atoms: C_25  and  C_28
REMARK    8  A    between atoms: C_25  and  O_37
REMARK                            x       y       z     vdW  Elec       q    Type
REMARK                         _______ _______ _______ _____ _____    ______ ____
ROOT
ATOM      1  N   UNL     1      34.963 -18.930 -21.255  0.00  0.00    +0.386 N 
ATOM      2  N   UNL     1      33.494 -21.203 -20.237  0.00  0.00    +0.386 N 
ATOM      3  C   UNL     1      34.815 -20.848 -19.704  0.00  0.00    -0.101 C 
ATOM      4  C   UNL     1      32.801 -20.007 -20.728  0.00  0.00    -0.101 C 
ATOM      5  C   UNL     1      35.655 -20.127 -20.763  0.00  0.00    -0.101 C 
ATOM      6  C   UNL     1      33.642 -19.285 -21.788  0.00  0.00    -0.101 C 
ATOM      7  H   UNL     1      34.832 -18.290 -20.472  0.00  0.00    -0.080 HD
ATOM      8  H   UNL     1      33.626 -21.842 -21.022  0.00  0.00    -0.080 HD
ENDROOT
BRANCH   1   9
ATOM      9  C   UNL     1      35.764 -18.247 -22.268  0.00  0.00    -0.043 C 
BRANCH   9  10
ATOM     10  C   UNL     1      35.425 -16.751 -22.315  0.00  0.00    +0.112 C 
BRANCH  10  13
ATOM     11  O   UNL     1      32.427 -13.931 -26.750  0.00  0.00    -0.440 OA
ATOM     12  O   UNL     1      32.502 -15.771 -28.152  0.00  0.00    -0.245 OA
ATOM     13  C   UNL     1      34.724 -16.381 -23.603  0.00  0.00    -0.002 C 
ATOM     14  C   UNL     1      34.172 -15.108 -23.774  0.00  0.00    -0.024 C 
ATOM     15  C   UNL     1      33.541 -14.823 -24.971  0.00  0.00    +0.023 C 
ATOM     16  C   UNL     1      34.638 -17.344 -24.623  0.00  0.00    -0.002 C 
ATOM     17  C   UNL     1      33.463 -15.778 -25.965  0.00  0.00    +0.075 C 
ATOM     18  C   UNL     1      33.998 -17.046 -25.827  0.00  0.00    +0.006 C 
ATOM     19  C   UNL     1      32.882 -13.583 -25.419  0.00  0.00    +0.235 C 
ATOM     20  C   UNL     1      34.256 -14.077 -22.700  0.00  0.00    +0.031 C 
ATOM     21  C   UNL     1      32.754 -15.214 -27.102  0.00  0.00    +0.341 C 
ENDBRANCH  10  13
BRANCH  10  22
ATOM     22  O   UNL     1      34.571 -16.404 -21.226  0.00  0.00    -0.382 OA
ATOM     23  H   UNL     1      34.919 -16.788 -20.406  0.00  0.00    +0.211 HD
ENDBRANCH  10  22
ENDBRANCH   9  10
ENDBRANCH   1   9
BRANCH   2  24
ATOM     24  C   UNL     1      32.693 -21.889 -19.226  0.00  0.00    -0.043 C 
BRANCH  24  25
ATOM     25  C   UNL     1      33.529 -22.942 -18.489  0.00  0.00    +0.112 C 
BRANCH  25  28
ATOM     26  O   UNL     1      32.779 -24.181 -12.613  0.00  0.00    -0.440 OA
ATOM     27  O   UNL     1      30.470 -24.138 -12.762  0.00  0.00    -0.245 OA
ATOM     28  C   UNL     1      32.970 -23.229 -17.112  0.00  0.00    -0.002 C 
ATOM     29  C   UNL     1      33.825 -23.463 -16.030  0.00  0.00    -0.024 C 
ATOM     30  C   UNL     1      33.261 -23.721 -14.794  0.00  0.00    +0.023 C 
ATOM     31  C   UNL     1      31.574 -23.258 -16.944  0.00  0.00    -0.002 C 
ATOM     32  C   UNL     1      31.890 -23.746 -14.643  0.00  0.00    +0.075 C 
ATOM     33  C   UNL     1      31.018 -23.520 -15.692  0.00  0.00    +0.006 C 
ATOM     34  C   UNL     1      33.910 -23.998 -13.501  0.00  0.00    +0.235 C 
ATOM     35  C   UNL     1      35.306 -23.437 -16.195  0.00  0.00    +0.031 C 
ATOM     36  C   UNL     1      31.576 -24.040 -13.253  0.00  0.00    +0.341 C 
ENDBRANCH  25  28
BRANCH  25  37
ATOM     37  O   UNL     1      33.547 -24.164 -19.226  0.00  0.00    -0.382 OA
ATOM     38  H   UNL     1      34.183 -24.775 -18.823  0.00  0.00    +0.211 HD
ENDBRANCH  25  37
ENDBRANCH  24  25
ENDBRANCH   2  24
TORSDOF 8
ENDMDL
MODEL 5
REMARK VINA RESULT:     -12.0      1.416     11.644
REMARK  Name = 59568713
REMARK  8 active torsions:
REMARK  status: ('A' for Active; 'I' for Inactive)
REMARK    1  A    between atoms: N_1  and  C_9
REMARK    2  A    between atoms: N_2  and  C_24
REMARK    3  A    between atoms: C_9  and  C_10
REMARK    4  A    between atoms: C_10  and  C_13
REMARK    5  A    between atoms: C_10  and  O_22
REMARK    6  A    between atoms: C_24  and  C_25
REMARK    7  A    between atoms: C_25  and  C_28
REMARK    8  A    between atoms: C_25  and  O_37
REMARK                            x       y       z     vdW  Elec       q    Type
REMARK                         _______ _______ _______ _____ _____    ______ ____
ROOT
ATOM      1  N   UNL     1      33.609 -13.323 -23.818  0.00  0.00    +0.386 N 
ATOM      2  N   UNL     1      34.083 -15.890 -22.575  0.00  0.00    +0.386 N 
ATOM      3  C   UNL     1      34.454 -15.640 -23.973  0.00  0.00    -0.101 C 
ATOM      4  C   UNL     1      34.141 -14.646 -21.799  0.00  0.00    -0.101 C 
ATOM      5  C   UNL     1      33.551 -14.568 -24.593  0.00  0.00    -0.101 C 
ATOM      6  C   UNL     1      33.239 -13.573 -22.419  0.00  0.00    -0.101 C 
ATOM      7  H   UNL     1      34.567 -12.975 -23.839  0.00  0.00    -0.080 HD
ATOM      8  H   UNL     1      33.123 -16.237 -22.554  0.00  0.00    -0.080 HD
ENDROOT
BRANCH   1   9
ATOM      9  C   UNL     1      32.744 -12.303 -24.409  0.00  0.00    -0.043 C 
BRANCH   9  10
ATOM     10  C   UNL     1      33.537 -11.024 -24.709  0.00  0.00    +0.112 C 
BRANCH  10  13
ATOM     11  O   UNL     1      31.717  -5.471 -23.138  0.00  0.00    -0.440 OA
ATOM     12  O   UNL     1      30.691  -6.211 -21.199  0.00  0.00    -0.245 OA
ATOM     13  C   UNL     1      32.933  -9.822 -24.016  0.00  0.00    -0.002 C 
ATOM     14  C   UNL     1      33.055  -8.544 -24.571  0.00  0.00    -0.024 C 
ATOM     15  C   UNL     1      32.485  -7.481 -23.895  0.00  0.00    +0.023 C 
ATOM     16  C   UNL     1      32.249 -10.017 -22.805  0.00  0.00    -0.002 C 
ATOM     17  C   UNL     1      31.816  -7.686 -22.705  0.00  0.00    +0.075 C 
ATOM     18  C   UNL     1      31.678  -8.936 -22.131  0.00  0.00    +0.006 C 
ATOM     19  C   UNL     1      32.459  -6.048 -24.241  0.00  0.00    +0.235 C 
ATOM     20  C   UNL     1      33.779  -8.323 -25.855  0.00  0.00    +0.031 C 
ATOM     21  C   UNL     1      31.324  -6.407 -22.218  0.00  0.00    +0.341 C 
ENDBRANCH  10  13
BRANCH  10  22
ATOM     22  O   UNL     1      34.886 -11.163 -24.267  0.00  0.00    -0.382 OA
ATOM     23  H   UNL     1      34.919 -11.100 -23.300  0.00  0.00    +0.211 HD
ENDBRANCH  10  22
ENDBRANCH   9  10
ENDBRANCH   1   9
BRANCH   2  24
ATOM     24  C   UNL     1      34.944 -16.911 -21.984  0.00  0.00    -0.043 C 
BRANCH  24  25
ATOM     25  C   UNL     1      34.686 -18.281 -22.624  0.00  0.00    +0.112 C 
BRANCH  25  28
ATOM     26  O   UNL     1      34.663 -22.472 -18.259  0.00  0.00    -0.440 OA
ATOM     27  O   UNL     1      32.358 -22.682 -18.289  0.00  0.00    -0.245 OA
ATOM     28  C   UNL     1      34.301 -19.314 -21.588  0.00  0.00    -0.002 C 
ATOM     29  C   UNL     1      35.280 -19.952 -20.819  0.00  0.00    -0.024 C 
ATOM     30  C   UNL     1      34.872 -20.888 -19.886  0.00  0.00    +0.023 C 
ATOM     31  C   UNL     1      32.939 -19.620 -21.415  0.00  0.00    -0.002 C 
ATOM     32  C   UNL     1      33.533 -21.179 -19.727  0.00  0.00    +0.075 C 
ATOM     33  C   UNL     1      32.542 -20.567 -20.471  0.00  0.00    +0.006 C 
ATOM     34  C   UNL     1      35.673 -21.700 -18.954  0.00  0.00    +0.235 C 
ATOM     35  C   UNL     1      36.726 -19.637 -20.993  0.00  0.00    +0.031 C 
ATOM     36  C   UNL     1      33.393 -22.190 -18.690  0.00  0.00    +0.341 C 
ENDBRANCH  25  28
BRANCH  25  37
ATOM     37  O   UNL     1      33.627 -18.189 -23.577  0.00  0.00    -0.382 OA
ATOM     38  H   UNL     1      33.179 -17.334 -23.481  0.00  0.00    +0.211 HD
ENDBRANCH  25  37
ENDBRANCH  24  25
ENDBRANCH   2  24
TORSDOF 8
ENDMDL
MODEL 6
REMARK VINA RESULT:     -12.0      1.435      2.291
REMARK  Name = 59568713
REMARK  8 active torsions:
REMARK  status: ('A' for Active; 'I' for Inactive)
REMARK    1  A    between atoms: N_1  and  C_9
REMARK    2  A    between atoms: N_2  and  C_24
REMARK    3  A    between atoms: C_9  and  C_10
REMARK    4  A    between atoms: C_10  and  C_13
REMARK    5  A    between atoms: C_10  and  O_22
REMARK    6  A    between atoms: C_24  and  C_25
REMARK    7  A    between atoms: C_25  and  C_28
REMARK    8  A    between atoms: C_25  and  O_37
REMARK                            x       y       z     vdW  Elec       q    Type
REMARK                         _______ _______ _______ _____ _____    ______ ____
ROOT
ATOM      1  N   UNL     1      34.115 -15.905 -22.577  0.00  0.00    +0.386 N 
ATOM      2  N   UNL     1      33.630 -13.315 -23.767  0.00  0.00    +0.386 N 
ATOM      3  C   UNL     1      33.588 -14.543 -24.570  0.00  0.00    -0.101 C 
ATOM      4  C   UNL     1      33.250 -13.598 -22.378  0.00  0.00    -0.101 C 
ATOM      5  C   UNL     1      34.494 -15.621 -23.966  0.00  0.00    -0.101 C 
ATOM      6  C   UNL     1      34.156 -14.678 -21.774  0.00  0.00    -0.101 C 
ATOM      7  H   UNL     1      33.160 -16.261 -22.571  0.00  0.00    -0.080 HD
ATOM      8  H   UNL     1      34.587 -12.960 -23.772  0.00  0.00    -0.080 HD
ENDROOT
BRANCH   1   9
ATOM      9  C   UNL     1      34.983 -16.931 -22.002  0.00  0.00    -0.043 C 
BRANCH   9  10
ATOM     10  C   UNL     1      34.706 -18.299 -22.638  0.00  0.00    +0.112 C 
BRANCH  10  13
ATOM     11  O   UNL     1      34.675 -22.461 -18.245  0.00  0.00    -0.440 OA
ATOM     12  O   UNL     1      32.371 -22.680 -18.286  0.00  0.00    -0.245 OA
ATOM     13  C   UNL     1      34.320 -19.327 -21.597  0.00  0.00    -0.002 C 
ATOM     14  C   UNL     1      35.297 -19.955 -20.818  0.00  0.00    -0.024 C 
ATOM     15  C   UNL     1      34.888 -20.887 -19.882  0.00  0.00    +0.023 C 
ATOM     16  C   UNL     1      32.959 -19.637 -21.429  0.00  0.00    -0.002 C 
ATOM     17  C   UNL     1      33.548 -21.183 -19.728  0.00  0.00    +0.075 C 
ATOM     18  C   UNL     1      32.559 -20.580 -20.482  0.00  0.00    +0.006 C 
ATOM     19  C   UNL     1      35.687 -21.689 -18.938  0.00  0.00    +0.235 C 
ATOM     20  C   UNL     1      36.744 -19.635 -20.986  0.00  0.00    +0.031 C 
ATOM     21  C   UNL     1      33.407 -22.186 -18.685  0.00  0.00    +0.341 C 
ENDBRANCH  10  13
BRANCH  10  22
ATOM     22  O   UNL     1      33.642 -18.199 -23.583  0.00  0.00    -0.382 OA
ATOM     23  H   UNL     1      33.377 -17.271 -23.674  0.00  0.00    +0.211 HD
ENDBRANCH  10  22
ENDBRANCH   9  10
ENDBRANCH   1   9
BRANCH   2  24
ATOM     24  C   UNL     1      32.765 -12.288 -24.342  0.00  0.00    -0.043 C 
BRANCH  24  25
ATOM     25  C   UNL     1      33.566 -11.023 -24.673  0.00  0.00    +0.112 C 
BRANCH  25  28
ATOM     26  O   UNL     1      31.783  -5.412 -23.268  0.00  0.00    -0.440 OA
ATOM     27  O   UNL     1      30.694  -6.098 -21.344  0.00  0.00    -0.245 OA
ATOM     28  C   UNL     1      32.960  -9.798 -24.022  0.00  0.00    -0.002 C 
ATOM     29  C   UNL     1      33.117  -8.533 -24.598  0.00  0.00    -0.024 C 
ATOM     30  C   UNL     1      32.544  -7.448 -23.960  0.00  0.00    +0.023 C 
ATOM     31  C   UNL     1      32.239  -9.958 -22.825  0.00  0.00    -0.002 C 
ATOM     32  C   UNL     1      31.839  -7.619 -22.787  0.00  0.00    +0.075 C 
ATOM     33  C   UNL     1      31.666  -8.854 -22.191  0.00  0.00    +0.006 C 
ATOM     34  C   UNL     1      32.548  -6.024 -24.336  0.00  0.00    +0.235 C 
ATOM     35  C   UNL     1      33.880  -8.350 -25.865  0.00  0.00    +0.031 C 
ATOM     36  C   UNL     1      31.351  -6.323 -22.340  0.00  0.00    +0.341 C 
ENDBRANCH  25  28
BRANCH  25  37
ATOM     37  O   UNL     1      34.911 -11.154 -24.211  0.00  0.00    -0.382 OA
ATOM     38  H   UNL     1      35.433 -10.398 -24.522  0.00  0.00    +0.211 HD
ENDBRANCH  25  37
ENDBRANCH  24  25
ENDBRANCH   2  24
TORSDOF 8
ENDMDL
MODEL 7
REMARK VINA RESULT:     -11.8      3.321      4.583
REMARK  Name = 59568713
REMARK  8 active torsions:
REMARK  status: ('A' for Active; 'I' for Inactive)
REMARK    1  A    between atoms: N_1  and  C_9
REMARK    2  A    between atoms: N_2  and  C_24
REMARK    3  A    between atoms: C_9  and  C_10
REMARK    4  A    between atoms: C_10  and  C_13
REMARK    5  A    between atoms: C_10  and  O_22
REMARK    6  A    between atoms: C_24  and  C_25
REMARK    7  A    between atoms: C_25  and  C_28
REMARK    8  A    between atoms: C_25  and  O_37
REMARK                            x       y       z     vdW  Elec       q    Type
REMARK                         _______ _______ _______ _____ _____    ______ ____
ROOT
ATOM      1  N   UNL     1      34.877 -18.730 -24.061  0.00  0.00    +0.386 N 
ATOM      2  N   UNL     1      33.503 -16.680 -25.568  0.00  0.00    +0.386 N 
ATOM      3  C   UNL     1      34.486 -16.336 -24.532  0.00  0.00    -0.101 C 
ATOM      4  C   UNL     1      33.825 -17.979 -26.168  0.00  0.00    -0.101 C 
ATOM      5  C   UNL     1      34.555 -17.430 -23.461  0.00  0.00    -0.101 C 
ATOM      6  C   UNL     1      33.895 -19.074 -25.097  0.00  0.00    -0.101 C 
ATOM      7  H   UNL     1      35.795 -18.663 -24.499  0.00  0.00    -0.080 HD
ATOM      8  H   UNL     1      32.584 -16.748 -25.128  0.00  0.00    -0.080 HD
ENDROOT
BRANCH   1   9
ATOM      9  C   UNL     1      34.939 -19.772 -23.039  0.00  0.00    -0.043 C 
BRANCH   9  10
ATOM     10  C   UNL     1      35.220 -19.166 -21.658  0.00  0.00    +0.112 C 
BRANCH  10  13
ATOM     11  O   UNL     1      32.741 -22.917 -17.608  0.00  0.00    -0.440 OA
ATOM     12  O   UNL     1      34.792 -23.555 -16.746  0.00  0.00    -0.245 OA
ATOM     13  C   UNL     1      34.967 -20.166 -20.551  0.00  0.00    -0.002 C 
ATOM     14  C   UNL     1      33.662 -20.544 -20.217  0.00  0.00    -0.024 C 
ATOM     15  C   UNL     1      33.488 -21.461 -19.197  0.00  0.00    +0.023 C 
ATOM     16  C   UNL     1      36.068 -20.706 -19.867  0.00  0.00    -0.002 C 
ATOM     17  C   UNL     1      34.579 -21.983 -18.532  0.00  0.00    +0.075 C 
ATOM     18  C   UNL     1      35.880 -21.630 -18.838  0.00  0.00    +0.006 C 
ATOM     19  C   UNL     1      32.246 -22.031 -18.643  0.00  0.00    +0.235 C 
ATOM     20  C   UNL     1      32.484 -19.978 -20.935  0.00  0.00    +0.031 C 
ATOM     21  C   UNL     1      34.108 -22.913 -17.517  0.00  0.00    +0.341 C 
ENDBRANCH  10  13
BRANCH  10  22
ATOM     22  O   UNL     1      36.580 -18.740 -21.573  0.00  0.00    -0.382 OA
ATOM     23  H   UNL     1      36.997 -19.143 -20.796  0.00  0.00    +0.211 HD
ENDBRANCH  10  22
ENDBRANCH   9  10
ENDBRANCH   1   9
BRANCH   2  24
ATOM     24  C   UNL     1      33.438 -15.638 -26.589  0.00  0.00    -0.043 C 
BRANCH  24  25
ATOM     25  C   UNL     1      32.446 -14.539 -26.186  0.00  0.00    +0.112 C 
BRANCH  25  28
ATOM     26  O   UNL     1      34.771  -9.147 -24.719  0.00  0.00    -0.440 OA
ATOM     27  O   UNL     1      35.357  -8.657 -26.904  0.00  0.00    -0.245 OA
ATOM     28  C   UNL     1      33.098 -13.173 -26.196  0.00  0.00    -0.002 C 
ATOM     29  C   UNL     1      33.251 -12.447 -25.010  0.00  0.00    -0.024 C 
ATOM     30  C   UNL     1      33.852 -11.204 -25.076  0.00  0.00    +0.023 C 
ATOM     31  C   UNL     1      33.545 -12.649 -27.421  0.00  0.00    -0.002 C 
ATOM     32  C   UNL     1      34.287 -10.701 -26.285  0.00  0.00    +0.075 C 
ATOM     33  C   UNL     1      34.150 -11.392 -27.475  0.00  0.00    +0.006 C 
ATOM     34  C   UNL     1      34.138 -10.237 -24.003  0.00  0.00    +0.235 C 
ATOM     35  C   UNL     1      32.780 -12.991 -23.704  0.00  0.00    +0.031 C 
ATOM     36  C   UNL     1      34.873  -9.389 -26.064  0.00  0.00    +0.341 C 
ENDBRANCH  25  28
BRANCH  25  37
ATOM     37  O   UNL     1      31.343 -14.513 -27.091  0.00  0.00    -0.382 OA
ATOM     38  H   UNL     1      31.535 -15.084 -27.851  0.00  0.00    +0.211 HD
ENDBRANCH  25  37
ENDBRANCH  24  25
ENDBRANCH   2  24
TORSDOF 8
ENDMDL
MODEL 8
REMARK VINA RESULT:     -11.8      3.609      6.656
REMARK  Name = 59568713
REMARK  8 active torsions:
REMARK  status: ('A' for Active; 'I' for Inactive)
REMARK    1  A    between atoms: N_1  and  C_9
REMARK    2  A    between atoms: N_2  and  C_24
REMARK    3  A    between atoms: C_9  and  C_10
REMARK    4  A    between atoms: C_10  and  C_13
REMARK    5  A    between atoms: C_10  and  O_22
REMARK    6  A    between atoms: C_24  and  C_25
REMARK    7  A    between atoms: C_25  and  C_28
REMARK    8  A    between atoms: C_25  and  O_37
REMARK                            x       y       z     vdW  Elec       q    Type
REMARK                         _______ _______ _______ _____ _____    ______ ____
ROOT
ATOM      1  N   UNL     1      33.441 -20.962 -20.344  0.00  0.00    +0.386 N 
ATOM      2  N   UNL     1      34.688 -18.617 -21.486  0.00  0.00    +0.386 N 
ATOM      3  C   UNL     1      35.491 -19.725 -20.954  0.00  0.00    -0.101 C 
ATOM      4  C   UNL     1      33.398 -19.110 -21.981  0.00  0.00    -0.101 C 
ATOM      5  C   UNL     1      34.731 -20.468 -19.850  0.00  0.00    -0.101 C 
ATOM      6  C   UNL     1      32.638 -19.854 -20.877  0.00  0.00    -0.101 C 
ATOM      7  H   UNL     1      33.618 -21.623 -21.100  0.00  0.00    -0.080 HD
ATOM      8  H   UNL     1      34.510 -17.957 -20.728  0.00  0.00    -0.080 HD
ENDROOT
BRANCH   1   9
ATOM      9  C   UNL     1      32.716 -21.667 -19.289  0.00  0.00    -0.043 C 
BRANCH   9  10
ATOM     10  C   UNL     1      33.612 -22.718 -18.620  0.00  0.00    +0.112 C 
BRANCH  10  13
ATOM     11  O   UNL     1      33.027 -24.213 -12.786  0.00  0.00    -0.440 OA
ATOM     12  O   UNL     1      30.722 -24.367 -12.919  0.00  0.00    -0.245 OA
ATOM     13  C   UNL     1      33.093 -23.099 -17.251  0.00  0.00    -0.002 C 
ATOM     14  C   UNL     1      33.975 -23.292 -16.183  0.00  0.00    -0.024 C 
ATOM     15  C   UNL     1      33.447 -23.640 -14.953  0.00  0.00    +0.023 C 
ATOM     16  C   UNL     1      31.708 -23.254 -17.076  0.00  0.00    -0.002 C 
ATOM     17  C   UNL     1      32.084 -23.790 -14.795  0.00  0.00    +0.075 C 
ATOM     18  C   UNL     1      31.186 -23.606 -15.830  0.00  0.00    +0.006 C 
ATOM     19  C   UNL     1      34.130 -23.902 -13.674  0.00  0.00    +0.235 C 
ATOM     20  C   UNL     1      35.447 -23.131 -16.356  0.00  0.00    +0.031 C 
ATOM     21  C   UNL     1      31.811 -24.155 -13.414  0.00  0.00    +0.341 C 
ENDBRANCH  10  13
BRANCH  10  22
ATOM     22  O   UNL     1      33.670 -23.899 -19.420  0.00  0.00    -0.382 OA
ATOM     23  H   UNL     1      33.948 -23.667 -20.319  0.00  0.00    +0.211 HD
ENDBRANCH  10  22
ENDBRANCH   9  10
ENDBRANCH   1   9
BRANCH   2  24
ATOM     24  C   UNL     1      35.412 -17.910 -22.539  0.00  0.00    -0.043 C 
BRANCH  24  25
ATOM     25  C   UNL     1      34.494 -17.621 -23.733  0.00  0.00    +0.112 C 
BRANCH  25  28
ATOM     26  O   UNL     1      32.668 -12.142 -25.544  0.00  0.00    -0.440 OA
ATOM     27  O   UNL     1      33.398 -11.112 -23.604  0.00  0.00    -0.245 OA
ATOM     28  C   UNL     1      34.178 -16.145 -23.845  0.00  0.00    -0.002 C 
ATOM     29  C   UNL     1      33.551 -15.635 -24.987  0.00  0.00    -0.024 C 
ATOM     30  C   UNL     1      33.286 -14.278 -25.036  0.00  0.00    +0.023 C 
ATOM     31  C   UNL     1      34.529 -15.298 -22.779  0.00  0.00    -0.002 C 
ATOM     32  C   UNL     1      33.636 -13.458 -23.984  0.00  0.00    +0.075 C 
ATOM     33  C   UNL     1      34.257 -13.931 -22.842  0.00  0.00    +0.006 C 
ATOM     34  C   UNL     1      32.646 -13.482 -26.097  0.00  0.00    +0.235 C 
ATOM     35  C   UNL     1      33.175 -16.522 -26.124  0.00  0.00    +0.031 C 
ATOM     36  C   UNL     1      33.245 -12.094 -24.302  0.00  0.00    +0.341 C 
ENDBRANCH  25  28
BRANCH  25  37
ATOM     37  O   UNL     1      35.118 -18.036 -24.948  0.00  0.00    -0.382 OA
ATOM     38  H   UNL     1      35.160 -17.287 -25.562  0.00  0.00    +0.211 HD
ENDBRANCH  25  37
ENDBRANCH  24  25
ENDBRANCH   2  24
TORSDOF 8
ENDMDL
MODEL 9
REMARK VINA RESULT:     -11.7      4.836     12.127
REMARK  Name = 59568713
REMARK  8 active torsions:
REMARK  status: ('A' for Active; 'I' for Inactive)
REMARK    1  A    between atoms: N_1  and  C_9
REMARK    2  A    between atoms: N_2  and  C_24
REMARK    3  A    between atoms: C_9  and  C_10
REMARK    4  A    between atoms: C_10  and  C_13
REMARK    5  A    between atoms: C_10  and  O_22
REMARK    6  A    between atoms: C_24  and  C_25
REMARK    7  A    between atoms: C_25  and  C_28
REMARK    8  A    between atoms: C_25  and  O_37
REMARK                            x       y       z     vdW  Elec       q    Type
REMARK                         _______ _______ _______ _____ _____    ______ ____
ROOT
ATOM      1  N   UNL     1      34.340 -19.999 -20.960  0.00  0.00    +0.386 N 
ATOM      2  N   UNL     1      33.832 -22.059 -18.995  0.00  0.00    +0.386 N 
ATOM      3  C   UNL     1      32.779 -21.602 -19.911  0.00  0.00    -0.101 C 
ATOM      4  C   UNL     1      35.152 -21.909 -19.616  0.00  0.00    -0.101 C 
ATOM      5  C   UNL     1      33.019 -20.150 -20.338  0.00  0.00    -0.101 C 
ATOM      6  C   UNL     1      35.393 -20.456 -20.044  0.00  0.00    -0.101 C 
ATOM      7  H   UNL     1      34.369 -20.579 -21.797  0.00  0.00    -0.080 HD
ATOM      8  H   UNL     1      33.803 -21.476 -18.157  0.00  0.00    -0.080 HD
ENDROOT
BRANCH   1   9
ATOM      9  C   UNL     1      34.569 -18.613 -21.362  0.00  0.00    -0.043 C 
BRANCH   9  10
ATOM     10  C   UNL     1      35.034 -18.539 -22.823  0.00  0.00    +0.112 C 
BRANCH  10  13
ATOM     11  O   UNL     1      32.553 -14.570 -26.659  0.00  0.00    -0.440 OA
ATOM     12  O   UNL     1      32.976 -12.765 -25.273  0.00  0.00    -0.245 OA
ATOM     13  C   UNL     1      34.511 -17.296 -23.508  0.00  0.00    -0.002 C 
ATOM     14  C   UNL     1      33.901 -17.378 -24.764  0.00  0.00    -0.024 C 
ATOM     15  C   UNL     1      33.442 -16.210 -25.346  0.00  0.00    +0.023 C 
ATOM     16  C   UNL     1      34.652 -16.058 -22.858  0.00  0.00    -0.002 C 
ATOM     17  C   UNL     1      33.588 -15.001 -24.697  0.00  0.00    +0.075 C 
ATOM     18  C   UNL     1      34.186 -14.887 -23.456  0.00  0.00    +0.006 C 
ATOM     19  C   UNL     1      32.770 -16.003 -26.641  0.00  0.00    +0.235 C 
ATOM     20  C   UNL     1      33.746 -18.685 -25.465  0.00  0.00    +0.031 C 
ATOM     21  C   UNL     1      33.022 -13.952 -25.530  0.00  0.00    +0.341 C 
ENDBRANCH  10  13
BRANCH  10  22
ATOM     22  O   UNL     1      36.460 -18.518 -22.886  0.00  0.00    -0.382 OA
ATOM     23  H   UNL     1      36.800 -17.825 -22.300  0.00  0.00    +0.211 HD
ENDBRANCH  10  22
ENDBRANCH   9  10
ENDBRANCH   1   9
BRANCH   2  24
ATOM     24  C   UNL     1      33.603 -23.443 -18.590  0.00  0.00    -0.043 C 
BRANCH  24  25
ATOM     25  C   UNL     1      32.910 -23.504 -17.222  0.00  0.00    +0.112 C 
BRANCH  25  28
ATOM     26  O   UNL     1      35.771 -23.937 -11.907  0.00  0.00    -0.440 OA
ATOM     27  O   UNL     1      37.717 -22.991 -12.727  0.00  0.00    -0.245 OA
ATOM     28  C   UNL     1      33.913 -23.453 -16.090  0.00  0.00    -0.002 C 
ATOM     29  C   UNL     1      33.579 -23.930 -14.819  0.00  0.00    -0.024 C 
ATOM     30  C   UNL     1      34.533 -23.859 -13.821  0.00  0.00    +0.023 C 
ATOM     31  C   UNL     1      35.187 -22.913 -16.342  0.00  0.00    -0.002 C 
ATOM     32  C   UNL     1      35.779 -23.327 -14.082  0.00  0.00    +0.075 C 
ATOM     33  C   UNL     1      36.141 -22.846 -15.326  0.00  0.00    +0.006 C 
ATOM     34  C   UNL     1      34.456 -24.281 -12.412  0.00  0.00    +0.235 C 
ATOM     35  C   UNL     1      32.232 -24.503 -14.538  0.00  0.00    +0.031 C 
ATOM     36  C   UNL     1      36.573 -23.374 -12.864  0.00  0.00    +0.341 C 
ENDBRANCH  25  28
BRANCH  25  37
ATOM     37  O   UNL     1      32.013 -22.404 -17.073  0.00  0.00    -0.382 OA
ATOM     38  H   UNL     1      32.398 -21.754 -16.465  0.00  0.00    +0.211 HD
ENDBRANCH  25  37
ENDBRANCH  24  25
ENDBRANCH   2  24
TORSDOF 8
ENDMDL
