MODEL 1
REMARK VINA RESULT:     -12.8      0.000      0.000
REMARK  Name = 45268539
REMARK  6 active torsions:
REMARK  status: ('A' for Active; 'I' for Inactive)
REMARK    1  A    between atoms: N_2  and  C_22
REMARK    2  A    between atoms: N_3  and  C_7
REMARK    3  A    between atoms: N_3  and  O_12
REMARK    4  A    between atoms: C_8  and  C_14
REMARK    5  A    between atoms: C_15  and  C_16
REMARK    6  A    between atoms: C_22  and  C_26
REMARK                            x       y       z     vdW  Elec       q    Type
REMARK                         _______ _______ _______ _____ _____    ______ ____
ROOT
ATOM      1  O   UNL     1      31.537 -23.639 -17.026  0.00  0.00    -0.273 OA
ATOM      2  N   UNL     1      33.733 -23.273 -16.191  0.00  0.00    -0.253 N 
ATOM      3  C   UNL     1      34.870 -22.635 -16.723  0.00  0.00    +0.052 C 
ATOM      4  C   UNL     1      34.598 -22.137 -17.998  0.00  0.00    +0.018 C 
ATOM      5  C   UNL     1      32.675 -23.222 -17.083  0.00  0.00    +0.252 C 
ATOM      6  C   UNL     1      33.217 -22.480 -18.281  0.00  0.00    +0.202 C 
ATOM      7  C   UNL     1      35.532 -21.464 -18.756  0.00  0.00    -0.001 C 
ATOM      8  C   UNL     1      36.120 -22.469 -16.157  0.00  0.00    +0.015 C 
ATOM      9  C   UNL     1      36.797 -21.292 -18.191  0.00  0.00    -0.000 C 
ATOM     10  C   UNL     1      37.088 -21.789 -16.906  0.00  0.00    +0.001 C 
ENDROOT
BRANCH   7  11
ATOM     11  C   UNL     1      35.255 -20.945 -20.083  0.00  0.00    -0.000 C 
ATOM     12  C   UNL     1      35.300 -19.637 -20.437  0.00  0.00    -0.000 C 
BRANCH  12  13
ATOM     13  C   UNL     1      35.036 -19.111 -21.789  0.00  0.00    -0.000 C 
ATOM     14  C   UNL     1      35.048 -17.735 -22.016  0.00  0.00    -0.000 C 
ATOM     15  C   UNL     1      34.776 -19.990 -22.840  0.00  0.00    -0.000 C 
ATOM     16  C   UNL     1      34.798 -17.237 -23.296  0.00  0.00    +0.000 C 
ATOM     17  C   UNL     1      34.527 -19.492 -24.119  0.00  0.00    +0.000 C 
ATOM     18  C   UNL     1      34.537 -18.116 -24.347  0.00  0.00    +0.000 C 
ENDBRANCH  12  13
ENDBRANCH   7  11
BRANCH   6  19
ATOM     19  N   UNL     1      32.526 -22.230 -19.335  0.00  0.00    -0.075 NA
BRANCH  19  20
ATOM     20  O   UNL     1      32.004 -20.938 -19.227  0.00  0.00    -0.294 OA
ATOM     21  H   UNL     1      31.383 -20.738 -18.555  0.00  0.00    +0.238 HD
ENDBRANCH  19  20
ENDBRANCH   6  19
BRANCH   2  22
ATOM     22  C   UNL     1      33.705 -23.888 -14.887  0.00  0.00    +0.128 C 
BRANCH  22  26
ATOM     23  F   UNL     1      36.609 -27.556 -16.213  0.00  0.00    -0.204 F 
ATOM     24  O   UNL     1      35.395 -23.514 -12.690  0.00  0.00    -0.448 OA
ATOM     25  O   UNL     1      37.014 -24.373 -11.139  0.00  0.00    -0.311 OA
ATOM     26  C   UNL     1      34.911 -24.747 -14.643  0.00  0.00    +0.034 C 
ATOM     27  C   UNL     1      35.738 -24.536 -13.540  0.00  0.00    +0.138 C 
ATOM     28  C   UNL     1      36.851 -25.357 -13.318  0.00  0.00    +0.043 C 
ATOM     29  C   UNL     1      35.207 -25.769 -15.544  0.00  0.00    +0.030 C 
ATOM     30  C   UNL     1      37.727 -25.116 -12.126  0.00  0.00    +0.176 C 
ATOM     31  C   UNL     1      37.147 -26.372 -14.233  0.00  0.00    +0.031 C 
ATOM     32  C   UNL     1      36.325 -26.578 -15.342  0.00  0.00    +0.140 C 
ATOM     33  C   UNL     1      36.412 -23.221 -11.726  0.00  0.00    +0.361 C 
ENDBRANCH  22  26
ENDBRANCH   2  22
TORSDOF 6
ENDMDL
MODEL 2
REMARK VINA RESULT:     -12.3      7.032     13.119
REMARK  Name = 45268539
REMARK  6 active torsions:
REMARK  status: ('A' for Active; 'I' for Inactive)
REMARK    1  A    between atoms: N_2  and  C_22
REMARK    2  A    between atoms: N_3  and  C_7
REMARK    3  A    between atoms: N_3  and  O_12
REMARK    4  A    between atoms: C_8  and  C_14
REMARK    5  A    between atoms: C_15  and  C_16
REMARK    6  A    between atoms: C_22  and  C_26
REMARK                            x       y       z     vdW  Elec       q    Type
REMARK                         _______ _______ _______ _____ _____    ______ ____
ROOT
ATOM      1  O   UNL     1      33.081 -12.746 -21.579  0.00  0.00    -0.273 OA
ATOM      2  N   UNL     1      33.071 -13.496 -23.835  0.00  0.00    -0.253 N 
ATOM      3  C   UNL     1      33.472 -14.697 -24.450  0.00  0.00    +0.052 C 
ATOM      4  C   UNL     1      33.966 -15.591 -23.500  0.00  0.00    +0.018 C 
ATOM      5  C   UNL     1      33.282 -13.547 -22.467  0.00  0.00    +0.252 C 
ATOM      6  C   UNL     1      33.870 -14.916 -22.220  0.00  0.00    +0.202 C 
ATOM      7  C   UNL     1      34.430 -16.849 -23.822  0.00  0.00    -0.001 C 
ATOM      8  C   UNL     1      33.428 -15.047 -25.787  0.00  0.00    +0.015 C 
ATOM      9  C   UNL     1      34.389 -17.210 -25.170  0.00  0.00    -0.000 C 
ATOM     10  C   UNL     1      33.894 -16.319 -26.142  0.00  0.00    +0.001 C 
ENDROOT
BRANCH   7  11
ATOM     11  C   UNL     1      34.947 -17.783 -22.838  0.00  0.00    -0.000 C 
ATOM     12  C   UNL     1      34.200 -18.665 -22.129  0.00  0.00    -0.000 C 
BRANCH  12  13
ATOM     13  C   UNL     1      34.726 -19.625 -21.142  0.00  0.00    -0.000 C 
ATOM     14  C   UNL     1      33.861 -20.513 -20.502  0.00  0.00    -0.000 C 
ATOM     15  C   UNL     1      36.090 -19.647 -20.849  0.00  0.00    -0.000 C 
ATOM     16  C   UNL     1      34.359 -21.422 -19.568  0.00  0.00    +0.000 C 
ATOM     17  C   UNL     1      36.588 -20.556 -19.916  0.00  0.00    +0.000 C 
ATOM     18  C   UNL     1      35.722 -21.443 -19.274  0.00  0.00    +0.000 C 
ENDBRANCH  12  13
ENDBRANCH   7  11
BRANCH   6  19
ATOM     19  N   UNL     1      34.208 -15.346 -21.057  0.00  0.00    -0.075 NA
BRANCH  19  20
ATOM     20  O   UNL     1      34.955 -14.353 -20.416  0.00  0.00    -0.294 OA
ATOM     21  H   UNL     1      34.519 -13.671 -19.944  0.00  0.00    +0.238 HD
ENDBRANCH  19  20
ENDBRANCH   6  19
BRANCH   2  22
ATOM     22  C   UNL     1      32.518 -12.378 -24.560  0.00  0.00    +0.128 C 
BRANCH  22  26
ATOM     23  F   UNL     1      36.569  -9.952 -25.720  0.00  0.00    -0.204 F 
ATOM     24  O   UNL     1      31.780 -10.158 -23.028  0.00  0.00    -0.448 OA
ATOM     25  O   UNL     1      32.380  -8.184 -21.800  0.00  0.00    -0.311 OA
ATOM     26  C   UNL     1      33.379 -11.154 -24.450  0.00  0.00    +0.034 C 
ATOM     27  C   UNL     1      32.984 -10.059 -23.680  0.00  0.00    +0.138 C 
ATOM     28  C   UNL     1      33.807  -8.931 -23.574  0.00  0.00    +0.043 C 
ATOM     29  C   UNL     1      34.592 -11.115 -25.137  0.00  0.00    +0.030 C 
ATOM     30  C   UNL     1      33.367  -7.766 -22.741  0.00  0.00    +0.176 C 
ATOM     31  C   UNL     1      35.016  -8.896 -24.276  0.00  0.00    +0.031 C 
ATOM     32  C   UNL     1      35.408  -9.987 -25.054  0.00  0.00    +0.140 C 
ATOM     33  C   UNL     1      31.349  -8.918 -22.458  0.00  0.00    +0.361 C 
ENDBRANCH  22  26
ENDBRANCH   2  22
TORSDOF 6
ENDMDL
MODEL 3
REMARK VINA RESULT:     -12.1      6.488     12.656
REMARK  Name = 45268539
REMARK  6 active torsions:
REMARK  status: ('A' for Active; 'I' for Inactive)
REMARK    1  A    between atoms: N_2  and  C_22
REMARK    2  A    between atoms: N_3  and  C_7
REMARK    3  A    between atoms: N_3  and  O_12
REMARK    4  A    between atoms: C_8  and  C_14
REMARK    5  A    between atoms: C_15  and  C_16
REMARK    6  A    between atoms: C_22  and  C_26
REMARK                            x       y       z     vdW  Elec       q    Type
REMARK                         _______ _______ _______ _____ _____    ______ ____
ROOT
ATOM      1  O   UNL     1      34.738 -13.644 -22.226  0.00  0.00    -0.273 OA
ATOM      2  N   UNL     1      33.857 -14.599 -24.216  0.00  0.00    -0.253 N 
ATOM      3  C   UNL     1      33.637 -15.927 -24.630  0.00  0.00    +0.052 C 
ATOM      4  C   UNL     1      34.034 -16.820 -23.634  0.00  0.00    +0.018 C 
ATOM      5  C   UNL     1      34.402 -14.562 -22.943  0.00  0.00    +0.252 C 
ATOM      6  C   UNL     1      34.529 -16.011 -22.537  0.00  0.00    +0.202 C 
ATOM      7  C   UNL     1      33.932 -18.189 -23.769  0.00  0.00    -0.001 C 
ATOM      8  C   UNL     1      33.112 -16.392 -25.821  0.00  0.00    +0.015 C 
ATOM      9  C   UNL     1      33.403 -18.666 -24.969  0.00  0.00    -0.000 C 
ATOM     10  C   UNL     1      32.998 -17.778 -25.984  0.00  0.00    +0.001 C 
ENDROOT
BRANCH   7  11
ATOM     11  C   UNL     1      34.345 -19.123 -22.737  0.00  0.00    -0.000 C 
ATOM     12  C   UNL     1      33.621 -19.442 -21.635  0.00  0.00    -0.000 C 
BRANCH  12  13
ATOM     13  C   UNL     1      34.032 -20.403 -20.596  0.00  0.00    -0.000 C 
ATOM     14  C   UNL     1      33.067 -21.108 -19.877  0.00  0.00    -0.000 C 
ATOM     15  C   UNL     1      35.386 -20.609 -20.333  0.00  0.00    -0.000 C 
ATOM     16  C   UNL     1      33.456 -22.018 -18.894  0.00  0.00    +0.000 C 
ATOM     17  C   UNL     1      35.775 -21.518 -19.350  0.00  0.00    +0.000 C 
ATOM     18  C   UNL     1      34.810 -22.223 -18.630  0.00  0.00    +0.000 C 
ENDBRANCH  12  13
ENDBRANCH   7  11
BRANCH   6  19
ATOM     19  N   UNL     1      35.002 -16.393 -21.405  0.00  0.00    -0.075 NA
BRANCH  19  20
ATOM     20  O   UNL     1      34.434 -15.608 -20.398  0.00  0.00    -0.294 OA
ATOM     21  H   UNL     1      34.395 -14.677 -20.496  0.00  0.00    +0.238 HD
ENDBRANCH  19  20
ENDBRANCH   6  19
BRANCH   2  22
ATOM     22  C   UNL     1      33.545 -13.451 -25.032  0.00  0.00    +0.128 C 
BRANCH  22  26
ATOM     23  F   UNL     1      30.697 -11.471 -21.624  0.00  0.00    -0.204 F 
ATOM     24  O   UNL     1      34.795 -10.960 -25.252  0.00  0.00    -0.448 OA
ATOM     25  O   UNL     1      34.748  -8.575 -24.978  0.00  0.00    -0.311 OA
ATOM     26  C   UNL     1      33.134 -12.268 -24.205  0.00  0.00    +0.034 C 
ATOM     27  C   UNL     1      33.778 -11.037 -24.335  0.00  0.00    +0.138 C 
ATOM     28  C   UNL     1      33.371  -9.938 -23.568  0.00  0.00    +0.043 C 
ATOM     29  C   UNL     1      32.092 -12.411 -23.289  0.00  0.00    +0.030 C 
ATOM     30  C   UNL     1      34.073  -8.624 -23.721  0.00  0.00    +0.176 C 
ATOM     31  C   UNL     1      32.333 -10.094 -22.643  0.00  0.00    +0.031 C 
ATOM     32  C   UNL     1      31.695 -11.328 -22.506  0.00  0.00    +0.140 C 
ATOM     33  C   UNL     1      35.545  -9.744 -25.156  0.00  0.00    +0.361 C 
ENDBRANCH  22  26
ENDBRANCH   2  22
TORSDOF 6
ENDMDL
MODEL 4
REMARK VINA RESULT:     -11.5      5.153      8.910
REMARK  Name = 45268539
REMARK  6 active torsions:
REMARK  status: ('A' for Active; 'I' for Inactive)
REMARK    1  A    between atoms: N_2  and  C_22
REMARK    2  A    between atoms: N_3  and  C_7
REMARK    3  A    between atoms: N_3  and  O_12
REMARK    4  A    between atoms: C_8  and  C_14
REMARK    5  A    between atoms: C_15  and  C_16
REMARK    6  A    between atoms: C_22  and  C_26
REMARK                            x       y       z     vdW  Elec       q    Type
REMARK                         _______ _______ _______ _____ _____    ______ ____
ROOT
ATOM      1  O   UNL     1      34.995 -16.002 -19.876  0.00  0.00    -0.273 OA
ATOM      2  N   UNL     1      35.050 -17.089 -21.988  0.00  0.00    -0.253 N 
ATOM      3  C   UNL     1      34.649 -16.700 -23.281  0.00  0.00    +0.052 C 
ATOM      4  C   UNL     1      34.121 -15.409 -23.260  0.00  0.00    +0.018 C 
ATOM      5  C   UNL     1      34.805 -16.082 -21.071  0.00  0.00    +0.252 C 
ATOM      6  C   UNL     1      34.194 -14.964 -21.881  0.00  0.00    +0.202 C 
ATOM      7  C   UNL     1      33.649 -14.772 -24.388  0.00  0.00    -0.001 C 
ATOM      8  C   UNL     1      34.721 -17.409 -24.466  0.00  0.00    +0.015 C 
ATOM      9  C   UNL     1      33.718 -15.481 -25.588  0.00  0.00    -0.000 C 
ATOM     10  C   UNL     1      34.248 -16.786 -25.627  0.00  0.00    +0.001 C 
ENDROOT
BRANCH   7  11
ATOM     11  C   UNL     1      33.097 -13.430 -24.371  0.00  0.00    -0.000 C 
ATOM     12  C   UNL     1      33.791 -12.294 -24.631  0.00  0.00    -0.000 C 
BRANCH  12  13
ATOM     13  C   UNL     1      33.227 -10.932 -24.632  0.00  0.00    -0.000 C 
ATOM     14  C   UNL     1      32.694 -10.398 -23.459  0.00  0.00    -0.000 C 
ATOM     15  C   UNL     1      33.229 -10.177 -25.805  0.00  0.00    -0.000 C 
ATOM     16  C   UNL     1      32.160  -9.109 -23.459  0.00  0.00    +0.000 C 
ATOM     17  C   UNL     1      32.695  -8.889 -25.805  0.00  0.00    +0.000 C 
ATOM     18  C   UNL     1      32.160  -8.355 -24.633  0.00  0.00    +0.000 C 
ENDBRANCH  12  13
ENDBRANCH   7  11
BRANCH   6  19
ATOM     19  N   UNL     1      33.823 -13.841 -21.378  0.00  0.00    -0.075 NA
BRANCH  19  20
ATOM     20  O   UNL     1      32.694 -14.062 -20.584  0.00  0.00    -0.294 OA
ATOM     21  H   UNL     1      32.793 -14.240 -19.669  0.00  0.00    +0.238 HD
ENDBRANCH  19  20
ENDBRANCH   6  19
BRANCH   2  22
ATOM     22  C   UNL     1      35.635 -18.374 -21.692  0.00  0.00    +0.128 C 
BRANCH  22  26
ATOM     23  F   UNL     1      31.085 -20.088 -21.610  0.00  0.00    -0.204 F 
ATOM     24  O   UNL     1      36.278 -20.356 -19.827  0.00  0.00    -0.448 OA
ATOM     25  O   UNL     1      35.611 -21.883 -18.098  0.00  0.00    -0.311 OA
ATOM     26  C   UNL     1      34.619 -19.348 -21.169  0.00  0.00    +0.034 C 
ATOM     27  C   UNL     1      34.969 -20.328 -20.240  0.00  0.00    +0.138 C 
ATOM     28  C   UNL     1      34.007 -21.219 -19.749  0.00  0.00    +0.043 C 
ATOM     29  C   UNL     1      33.305 -19.268 -21.629  0.00  0.00    +0.030 C 
ATOM     30  C   UNL     1      34.401 -22.263 -18.751  0.00  0.00    +0.176 C 
ATOM     31  C   UNL     1      32.694 -21.139 -20.225  0.00  0.00    +0.031 C 
ATOM     32  C   UNL     1      32.344 -20.165 -21.161  0.00  0.00    +0.140 C 
ATOM     33  C   UNL     1      36.599 -21.522 -19.061  0.00  0.00    +0.361 C 
ENDBRANCH  22  26
ENDBRANCH   2  22
TORSDOF 6
ENDMDL
MODEL 5
REMARK VINA RESULT:     -11.5      1.910      2.497
REMARK  Name = 45268539
REMARK  6 active torsions:
REMARK  status: ('A' for Active; 'I' for Inactive)
REMARK    1  A    between atoms: N_2  and  C_22
REMARK    2  A    between atoms: N_3  and  C_7
REMARK    3  A    between atoms: N_3  and  O_12
REMARK    4  A    between atoms: C_8  and  C_14
REMARK    5  A    between atoms: C_15  and  C_16
REMARK    6  A    between atoms: C_22  and  C_26
REMARK                            x       y       z     vdW  Elec       q    Type
REMARK                         _______ _______ _______ _____ _____    ______ ____
ROOT
ATOM      1  O   UNL     1      31.493 -24.008 -16.161  0.00  0.00    -0.273 OA
ATOM      2  N   UNL     1      33.766 -23.794 -15.501  0.00  0.00    -0.253 N 
ATOM      3  C   UNL     1      34.884 -23.173 -16.091  0.00  0.00    +0.052 C 
ATOM      4  C   UNL     1      34.530 -22.583 -17.305  0.00  0.00    +0.018 C 
ATOM      5  C   UNL     1      32.640 -23.639 -16.292  0.00  0.00    +0.252 C 
ATOM      6  C   UNL     1      33.116 -22.845 -17.486  0.00  0.00    +0.202 C 
ATOM      7  C   UNL     1      35.430 -21.904 -18.099  0.00  0.00    -0.001 C 
ATOM      8  C   UNL     1      36.185 -23.100 -15.627  0.00  0.00    +0.015 C 
ATOM      9  C   UNL     1      36.744 -21.824 -17.638  0.00  0.00    -0.000 C 
ATOM     10  C   UNL     1      37.118 -22.416 -16.415  0.00  0.00    +0.001 C 
ENDROOT
BRANCH   7  11
ATOM     11  C   UNL     1      35.068 -21.288 -19.363  0.00  0.00    -0.000 C 
ATOM     12  C   UNL     1      35.642 -20.175 -19.885  0.00  0.00    -0.000 C 
BRANCH  12  13
ATOM     13  C   UNL     1      35.287 -19.560 -21.176  0.00  0.00    -0.000 C 
ATOM     14  C   UNL     1      33.995 -19.701 -21.684  0.00  0.00    -0.000 C 
ATOM     15  C   UNL     1      36.241 -18.835 -21.889  0.00  0.00    -0.000 C 
ATOM     16  C   UNL     1      33.659 -19.118 -22.906  0.00  0.00    +0.000 C 
ATOM     17  C   UNL     1      35.905 -18.253 -23.111  0.00  0.00    +0.000 C 
ATOM     18  C   UNL     1      34.614 -18.394 -23.620  0.00  0.00    +0.000 C 
ENDBRANCH  12  13
ENDBRANCH   7  11
BRANCH   6  19
ATOM     19  N   UNL     1      32.352 -22.497 -18.459  0.00  0.00    -0.075 NA
BRANCH  19  20
ATOM     20  O   UNL     1      31.169 -21.974 -17.929  0.00  0.00    -0.294 OA
ATOM     21  H   UNL     1      30.805 -21.185 -18.282  0.00  0.00    +0.238 HD
ENDBRANCH  19  20
ENDBRANCH   6  19
BRANCH   2  22
ATOM     22  C   UNL     1      33.819 -24.490 -14.239  0.00  0.00    +0.128 C 
BRANCH  22  26
ATOM     23  F   UNL     1      36.863 -22.335 -11.120  0.00  0.00    -0.204 F 
ATOM     24  O   UNL     1      35.909 -26.237 -14.872  0.00  0.00    -0.448 OA
ATOM     25  O   UNL     1      38.257 -26.723 -14.972  0.00  0.00    -0.311 OA
ATOM     26  C   UNL     1      35.172 -24.392 -13.598  0.00  0.00    +0.034 C 
ATOM     27  C   UNL     1      36.196 -25.279 -13.932  0.00  0.00    +0.138 C 
ATOM     28  C   UNL     1      37.458 -25.165 -13.337  0.00  0.00    +0.043 C 
ATOM     29  C   UNL     1      35.401 -23.397 -12.648  0.00  0.00    +0.030 C 
ATOM     30  C   UNL     1      38.546 -26.125 -13.709  0.00  0.00    +0.176 C 
ATOM     31  C   UNL     1      37.675 -24.171 -12.377  0.00  0.00    +0.031 C 
ATOM     32  C   UNL     1      36.649 -23.288 -12.035  0.00  0.00    +0.140 C 
ATOM     33  C   UNL     1      36.927 -27.237 -14.983  0.00  0.00    +0.361 C 
ENDBRANCH  22  26
ENDBRANCH   2  22
TORSDOF 6
ENDMDL
MODEL 6
REMARK VINA RESULT:     -11.3      5.937     10.464
REMARK  Name = 45268539
REMARK  6 active torsions:
REMARK  status: ('A' for Active; 'I' for Inactive)
REMARK    1  A    between atoms: N_2  and  C_22
REMARK    2  A    between atoms: N_3  and  C_7
REMARK    3  A    between atoms: N_3  and  O_12
REMARK    4  A    between atoms: C_8  and  C_14
REMARK    5  A    between atoms: C_15  and  C_16
REMARK    6  A    between atoms: C_22  and  C_26
REMARK                            x       y       z     vdW  Elec       q    Type
REMARK                         _______ _______ _______ _____ _____    ______ ____
ROOT
ATOM      1  O   UNL     1      34.561 -16.162 -22.123  0.00  0.00    -0.273 OA
ATOM      2  N   UNL     1      33.744 -16.818 -24.256  0.00  0.00    -0.253 N 
ATOM      3  C   UNL     1      33.267 -16.096 -25.367  0.00  0.00    +0.052 C 
ATOM      4  C   UNL     1      33.303 -14.725 -25.109  0.00  0.00    +0.018 C 
ATOM      5  C   UNL     1      34.111 -15.963 -23.231  0.00  0.00    +0.252 C 
ATOM      6  C   UNL     1      33.830 -14.579 -23.767  0.00  0.00    +0.202 C 
ATOM      7  C   UNL     1      32.893 -13.779 -26.024  0.00  0.00    -0.001 C 
ATOM      8  C   UNL     1      32.807 -16.570 -26.582  0.00  0.00    +0.015 C 
ATOM      9  C   UNL     1      32.428 -14.250 -27.253  0.00  0.00    -0.000 C 
ATOM     10  C   UNL     1      32.385 -15.630 -27.529  0.00  0.00    +0.001 C 
ENDROOT
BRANCH   7  11
ATOM     11  C   UNL     1      32.926 -12.352 -25.762  0.00  0.00    -0.000 C 
ATOM     12  C   UNL     1      33.829 -11.481 -26.278  0.00  0.00    -0.000 C 
BRANCH  12  13
ATOM     13  C   UNL     1      33.852 -10.029 -26.026  0.00  0.00    -0.000 C 
ATOM     14  C   UNL     1      32.742  -9.401 -25.462  0.00  0.00    -0.000 C 
ATOM     15  C   UNL     1      34.986  -9.284 -26.349  0.00  0.00    -0.000 C 
ATOM     16  C   UNL     1      32.764  -8.027 -25.222  0.00  0.00    +0.000 C 
ATOM     17  C   UNL     1      35.008  -7.910 -26.109  0.00  0.00    +0.000 C 
ATOM     18  C   UNL     1      33.897  -7.281 -25.547  0.00  0.00    +0.000 C 
ENDBRANCH  12  13
ENDBRANCH   7  11
BRANCH   6  19
ATOM     19  N   UNL     1      34.041 -13.501 -23.099  0.00  0.00    -0.075 NA
BRANCH  19  20
ATOM     20  O   UNL     1      33.121 -13.442 -22.049  0.00  0.00    -0.294 OA
ATOM     21  H   UNL     1      32.976 -12.633 -21.598  0.00  0.00    +0.238 HD
ENDBRANCH  19  20
ENDBRANCH   6  19
BRANCH   2  22
ATOM     22  C   UNL     1      33.828 -18.258 -24.222  0.00  0.00    +0.128 C 
BRANCH  22  26
ATOM     23  F   UNL     1      38.189 -18.690 -22.113  0.00  0.00    -0.204 F 
ATOM     24  O   UNL     1      32.776 -19.644 -22.033  0.00  0.00    -0.448 OA
ATOM     25  O   UNL     1      33.065 -21.161 -20.195  0.00  0.00    -0.311 OA
ATOM     26  C   UNL     1      34.685 -18.745 -23.089  0.00  0.00    +0.034 C 
ATOM     27  C   UNL     1      34.131 -19.432 -22.008  0.00  0.00    +0.138 C 
ATOM     28  C   UNL     1      34.946 -19.894 -20.967  0.00  0.00    +0.043 C 
ATOM     29  C   UNL     1      36.057 -18.496 -23.123  0.00  0.00    +0.030 C 
ATOM     30  C   UNL     1      34.335 -20.632 -19.816  0.00  0.00    +0.176 C 
ATOM     31  C   UNL     1      36.319 -19.630 -21.004  0.00  0.00    +0.031 C 
ATOM     32  C   UNL     1      36.873 -18.935 -22.080  0.00  0.00    +0.140 C 
ATOM     33  C   UNL     1      32.264 -20.144 -20.793  0.00  0.00    +0.361 C 
ENDBRANCH  22  26
ENDBRANCH   2  22
TORSDOF 6
ENDMDL
MODEL 7
REMARK VINA RESULT:     -11.3      4.074     10.168
REMARK  Name = 45268539
REMARK  6 active torsions:
REMARK  status: ('A' for Active; 'I' for Inactive)
REMARK    1  A    between atoms: N_2  and  C_22
REMARK    2  A    between atoms: N_3  and  C_7
REMARK    3  A    between atoms: N_3  and  O_12
REMARK    4  A    between atoms: C_8  and  C_14
REMARK    5  A    between atoms: C_15  and  C_16
REMARK    6  A    between atoms: C_22  and  C_26
REMARK                            x       y       z     vdW  Elec       q    Type
REMARK                         _______ _______ _______ _____ _____    ______ ____
ROOT
ATOM      1  O   UNL     1      37.745 -19.782 -20.518  0.00  0.00    -0.273 OA
ATOM      2  N   UNL     1      35.625 -19.436 -21.536  0.00  0.00    -0.253 N 
ATOM      3  C   UNL     1      34.326 -19.883 -21.228  0.00  0.00    +0.052 C 
ATOM      4  C   UNL     1      34.344 -20.687 -20.088  0.00  0.00    +0.018 C 
ATOM      5  C   UNL     1      36.545 -19.921 -20.622  0.00  0.00    +0.252 C 
ATOM      6  C   UNL     1      35.728 -20.747 -19.658  0.00  0.00    +0.202 C 
ATOM      7  C   UNL     1      33.210 -21.263 -19.557  0.00  0.00    -0.001 C 
ATOM      8  C   UNL     1      33.137 -19.626 -21.887  0.00  0.00    +0.015 C 
ATOM      9  C   UNL     1      32.006 -21.008 -20.216  0.00  0.00    -0.000 C 
ATOM     10  C   UNL     1      31.970 -20.199 -21.368  0.00  0.00    +0.001 C 
ENDROOT
BRANCH   7  11
ATOM     11  C   UNL     1      33.223 -22.102 -18.373  0.00  0.00    -0.000 C 
ATOM     12  C   UNL     1      32.146 -22.377 -17.596  0.00  0.00    -0.000 C 
BRANCH  12  13
ATOM     13  C   UNL     1      32.155 -23.242 -16.403  0.00  0.00    -0.000 C 
ATOM     14  C   UNL     1      33.362 -23.550 -15.774  0.00  0.00    -0.000 C 
ATOM     15  C   UNL     1      30.957 -23.752 -15.901  0.00  0.00    -0.000 C 
ATOM     16  C   UNL     1      33.370 -24.370 -14.645  0.00  0.00    +0.000 C 
ATOM     17  C   UNL     1      30.966 -24.570 -14.772  0.00  0.00    +0.000 C 
ATOM     18  C   UNL     1      32.173 -24.880 -14.144  0.00  0.00    +0.000 C 
ENDBRANCH  12  13
ENDBRANCH   7  11
BRANCH   6  19
ATOM     19  N   UNL     1      36.231 -21.372 -18.653  0.00  0.00    -0.075 NA
BRANCH  19  20
ATOM     20  O   UNL     1      36.857 -20.441 -17.820  0.00  0.00    -0.294 OA
ATOM     21  H   UNL     1      37.166 -20.702 -16.974  0.00  0.00    +0.238 HD
ENDBRANCH  19  20
ENDBRANCH   6  19
BRANCH   2  22
ATOM     22  C   UNL     1      35.926 -18.585 -22.662  0.00  0.00    +0.128 C 
BRANCH  22  26
ATOM     23  F   UNL     1      34.572 -14.736 -20.017  0.00  0.00    -0.204 F 
ATOM     24  O   UNL     1      34.715 -17.342 -24.855  0.00  0.00    -0.448 OA
ATOM     25  O   UNL     1      33.118 -15.786 -25.746  0.00  0.00    -0.311 OA
ATOM     26  C   UNL     1      35.245 -17.251 -22.557  0.00  0.00    +0.034 C 
ATOM     27  C   UNL     1      34.652 -16.654 -23.669  0.00  0.00    +0.138 C 
ATOM     28  C   UNL     1      34.006 -15.416 -23.551  0.00  0.00    +0.043 C 
ATOM     29  C   UNL     1      35.216 -16.601 -21.323  0.00  0.00    +0.030 C 
ATOM     30  C   UNL     1      33.372 -14.791 -24.756  0.00  0.00    +0.176 C 
ATOM     31  C   UNL     1      33.991 -14.767 -22.313  0.00  0.00    +0.031 C 
ATOM     32  C   UNL     1      34.593 -15.359 -21.202  0.00  0.00    +0.140 C 
ATOM     33  C   UNL     1      34.291 -16.563 -25.979  0.00  0.00    +0.361 C 
ENDBRANCH  22  26
ENDBRANCH   2  22
TORSDOF 6
ENDMDL
MODEL 8
REMARK VINA RESULT:     -11.2      2.478      3.441
REMARK  Name = 45268539
REMARK  6 active torsions:
REMARK  status: ('A' for Active; 'I' for Inactive)
REMARK    1  A    between atoms: N_2  and  C_22
REMARK    2  A    between atoms: N_3  and  C_7
REMARK    3  A    between atoms: N_3  and  O_12
REMARK    4  A    between atoms: C_8  and  C_14
REMARK    5  A    between atoms: C_15  and  C_16
REMARK    6  A    between atoms: C_22  and  C_26
REMARK                            x       y       z     vdW  Elec       q    Type
REMARK                         _______ _______ _______ _____ _____    ______ ____
ROOT
ATOM      1  O   UNL     1      37.101 -22.773 -15.820  0.00  0.00    -0.273 OA
ATOM      2  N   UNL     1      34.781 -23.267 -15.976  0.00  0.00    -0.253 N 
ATOM      3  C   UNL     1      33.783 -22.913 -16.905  0.00  0.00    +0.052 C 
ATOM      4  C   UNL     1      34.318 -22.111 -17.913  0.00  0.00    +0.018 C 
ATOM      5  C   UNL     1      36.003 -22.720 -16.331  0.00  0.00    +0.252 C 
ATOM      6  C   UNL     1      35.725 -21.954 -17.602  0.00  0.00    +0.202 C 
ATOM      7  C   UNL     1      33.565 -21.617 -18.958  0.00  0.00    -0.001 C 
ATOM      8  C   UNL     1      32.443 -23.252 -16.914  0.00  0.00    +0.015 C 
ATOM      9  C   UNL     1      32.212 -21.955 -18.974  0.00  0.00    -0.000 C 
ATOM     10  C   UNL     1      31.656 -22.764 -17.964  0.00  0.00    +0.001 C 
ENDROOT
BRANCH   7  11
ATOM     11  C   UNL     1      34.116 -20.781 -20.009  0.00  0.00    -0.000 C 
ATOM     12  C   UNL     1      33.406 -19.907 -20.767  0.00  0.00    -0.000 C 
BRANCH  12  13
ATOM     13  C   UNL     1      33.968 -19.045 -21.822  0.00  0.00    -0.000 C 
ATOM     14  C   UNL     1      33.679 -19.305 -23.162  0.00  0.00    -0.000 C 
ATOM     15  C   UNL     1      34.786 -17.969 -21.481  0.00  0.00    -0.000 C 
ATOM     16  C   UNL     1      34.210 -18.489 -24.161  0.00  0.00    +0.000 C 
ATOM     17  C   UNL     1      35.317 -17.153 -22.480  0.00  0.00    +0.000 C 
ATOM     18  C   UNL     1      35.030 -17.413 -23.820  0.00  0.00    +0.000 C 
ENDBRANCH  12  13
ENDBRANCH   7  11
BRANCH   6  19
ATOM     19  N   UNL     1      36.623 -21.296 -18.247  0.00  0.00    -0.075 NA
BRANCH  19  20
ATOM     20  O   UNL     1      37.153 -20.320 -17.398  0.00  0.00    -0.294 OA
ATOM     21  H   UNL     1      38.058 -20.351 -17.156  0.00  0.00    +0.238 HD
ENDBRANCH  19  20
ENDBRANCH   6  19
BRANCH   2  22
ATOM     22  C   UNL     1      34.533 -24.093 -14.821  0.00  0.00    +0.128 C 
BRANCH  22  26
ATOM     23  F   UNL     1      37.011 -22.564 -10.926  0.00  0.00    -0.204 F 
ATOM     24  O   UNL     1      36.599 -25.927 -15.254  0.00  0.00    -0.448 OA
ATOM     25  O   UNL     1      38.887 -26.594 -14.961  0.00  0.00    -0.311 OA
ATOM     26  C   UNL     1      35.733 -24.182 -13.924  0.00  0.00    +0.034 C 
ATOM     27  C   UNL     1      36.748 -25.108 -14.163  0.00  0.00    +0.138 C 
ATOM     28  C   UNL     1      37.869 -25.167 -13.326  0.00  0.00    +0.043 C 
ATOM     29  C   UNL     1      35.825 -23.322 -12.829  0.00  0.00    +0.030 C 
ATOM     30  C   UNL     1      38.950 -26.167 -13.600  0.00  0.00    +0.176 C 
ATOM     31  C   UNL     1      37.948 -24.309 -12.225  0.00  0.00    +0.031 C 
ATOM     32  C   UNL     1      36.929 -23.387 -11.979  0.00  0.00    +0.140 C 
ATOM     33  C   UNL     1      37.558 -26.990 -15.293  0.00  0.00    +0.361 C 
ENDBRANCH  22  26
ENDBRANCH   2  22
TORSDOF 6
ENDMDL
MODEL 9
REMARK VINA RESULT:     -11.0      4.844      8.157
REMARK  Name = 45268539
REMARK  6 active torsions:
REMARK  status: ('A' for Active; 'I' for Inactive)
REMARK    1  A    between atoms: N_2  and  C_22
REMARK    2  A    between atoms: N_3  and  C_7
REMARK    3  A    between atoms: N_3  and  O_12
REMARK    4  A    between atoms: C_8  and  C_14
REMARK    5  A    between atoms: C_15  and  C_16
REMARK    6  A    between atoms: C_22  and  C_26
REMARK                            x       y       z     vdW  Elec       q    Type
REMARK                         _______ _______ _______ _____ _____    ______ ____
ROOT
ATOM      1  O   UNL     1      35.583 -19.142 -24.197  0.00  0.00    -0.273 OA
ATOM      2  N   UNL     1      35.420 -18.031 -22.102  0.00  0.00    -0.253 N 
ATOM      3  C   UNL     1      34.974 -16.749 -21.726  0.00  0.00    +0.052 C 
ATOM      4  C   UNL     1      34.556 -16.030 -22.846  0.00  0.00    +0.018 C 
ATOM      5  C   UNL     1      35.315 -18.208 -23.471  0.00  0.00    +0.252 C 
ATOM      6  C   UNL     1      34.750 -16.906 -23.985  0.00  0.00    +0.202 C 
ATOM      7  C   UNL     1      34.070 -14.742 -22.772  0.00  0.00    -0.001 C 
ATOM      8  C   UNL     1      34.915 -16.183 -20.466  0.00  0.00    +0.015 C 
ATOM      9  C   UNL     1      34.007 -14.163 -21.503  0.00  0.00    -0.000 C 
ATOM     10  C   UNL     1      34.425 -14.876 -20.362  0.00  0.00    +0.001 C 
ENDROOT
BRANCH   7  11
ATOM     11  C   UNL     1      33.636 -13.988 -23.934  0.00  0.00    -0.000 C 
ATOM     12  C   UNL     1      33.446 -12.645 -23.970  0.00  0.00    -0.000 C 
BRANCH  12  13
ATOM     13  C   UNL     1      33.022 -11.877 -25.154  0.00  0.00    -0.000 C 
ATOM     14  C   UNL     1      32.618 -12.544 -26.310  0.00  0.00    -0.000 C 
ATOM     15  C   UNL     1      33.023 -10.482 -25.117  0.00  0.00    -0.000 C 
ATOM     16  C   UNL     1      32.217 -11.816 -27.431  0.00  0.00    +0.000 C 
ATOM     17  C   UNL     1      32.621  -9.755 -26.237  0.00  0.00    +0.000 C 
ATOM     18  C   UNL     1      32.219 -10.422 -27.395  0.00  0.00    +0.000 C 
ENDBRANCH  12  13
ENDBRANCH   7  11
BRANCH   6  19
ATOM     19  N   UNL     1      34.507 -16.676 -25.226  0.00  0.00    -0.075 NA
BRANCH  19  20
ATOM     20  O   UNL     1      33.788 -17.756 -25.745  0.00  0.00    -0.294 OA
ATOM     21  H   UNL     1      33.913 -18.018 -26.637  0.00  0.00    +0.238 HD
ENDBRANCH  19  20
ENDBRANCH   6  19
BRANCH   2  22
ATOM     22  C   UNL     1      35.913 -19.008 -21.162  0.00  0.00    +0.128 C 
BRANCH  22  26
ATOM     23  F   UNL     1      31.279 -20.479 -21.248  0.00  0.00    -0.204 F 
ATOM     24  O   UNL     1      36.335 -20.882 -19.130  0.00  0.00    -0.448 OA
ATOM     25  O   UNL     1      35.486 -22.247 -17.348  0.00  0.00    -0.311 OA
ATOM     26  C   UNL     1      34.817 -19.889 -20.639  0.00  0.00    +0.034 C 
ATOM     27  C   UNL     1      35.057 -20.818 -19.626  0.00  0.00    +0.138 C 
ATOM     28  C   UNL     1      34.020 -21.621 -19.136  0.00  0.00    +0.043 C 
ATOM     29  C   UNL     1      33.538 -19.776 -21.184  0.00  0.00    +0.030 C 
ATOM     30  C   UNL     1      34.296 -22.611 -18.047  0.00  0.00    +0.176 C 
ATOM     31  C   UNL     1      32.744 -21.509 -19.698  0.00  0.00    +0.031 C 
ATOM     32  C   UNL     1      32.504 -20.587 -20.718  0.00  0.00    +0.140 C 
ATOM     33  C   UNL     1      36.547 -22.006 -18.269  0.00  0.00    +0.361 C 
ENDBRANCH  22  26
ENDBRANCH   2  22
TORSDOF 6
ENDMDL
