MODEL 1
REMARK VINA RESULT:     -12.9      0.000      0.000
REMARK  Name = 4566
REMARK  6 active torsions:
REMARK  status: ('A' for Active; 'I' for Inactive)
REMARK    1  A    between atoms: N_4  and  C_14
REMARK    2  A    between atoms: C_6  and  O_26
REMARK    3  A    between atoms: C_15  and  S_20
REMARK    4  A    between atoms: S_20  and  N_23
REMARK    5  A    between atoms: O_26  and  C_27
REMARK    6  A    between atoms: C_27  and  C_28
REMARK                            x       y       z     vdW  Elec       q    Type
REMARK                         _______ _______ _______ _____ _____    ______ ____
ROOT
ATOM      1  N   UNL     1      32.176 -23.491 -15.907  0.00  0.00    -0.293 NA
ATOM      2  N   UNL     1      28.868 -22.554 -17.214  0.00  0.00    -0.266 NA
ATOM      3  N   UNL     1      30.320 -24.068 -14.432  0.00  0.00    -0.316 NA
ATOM      4  N   UNL     1      32.534 -24.548 -13.849  0.00  0.00    -0.238 N 
ATOM      5  N   UNL     1      28.139 -23.443 -15.305  0.00  0.00    -0.296 N 
ATOM      6  C   UNL     1      31.337 -22.961 -16.825  0.00  0.00    +0.288 C 
ATOM      7  C   UNL     1      29.985 -22.980 -16.553  0.00  0.00    +0.215 C 
ATOM      8  C   UNL     1      29.506 -23.529 -15.371  0.00  0.00    +0.196 C 
ATOM      9  C   UNL     1      31.623 -24.004 -14.783  0.00  0.00    +0.207 C 
ATOM     10  C   UNL     1      27.787 -22.853 -16.427  0.00  0.00    +0.164 C 
ATOM     11  H   UNL     1      28.843 -22.114 -18.094  0.00  0.00    +0.126 HD
ATOM     12  H   UNL     1      32.104 -24.915 -13.043  0.00  0.00    +0.166 HD
ATOM     13  H   UNL     1      27.551 -23.756 -14.579  0.00  0.00    +0.150 HD
ENDROOT
BRANCH   4  14
ATOM     14  C   UNL     1      33.935 -24.669 -13.848  0.00  0.00    +0.059 C 
ATOM     15  C   UNL     1      36.719 -24.908 -13.847  0.00  0.00    +0.122 C 
ATOM     16  C   UNL     1      34.673 -24.267 -12.733  0.00  0.00    +0.017 C 
ATOM     17  C   UNL     1      34.596 -25.191 -14.964  0.00  0.00    +0.017 C 
ATOM     18  C   UNL     1      36.063 -24.386 -12.731  0.00  0.00    +0.021 C 
ATOM     19  C   UNL     1      35.986 -25.310 -14.962  0.00  0.00    +0.021 C 
BRANCH  15  20
ATOM     20  S   UNL     1      38.459 -25.056 -13.846  0.00  0.00    +0.057 S 
ATOM     21  O   UNL     1      38.990 -24.236 -12.767  0.00  0.00    -0.153 OA
ATOM     22  O   UNL     1      38.802 -26.470 -13.916  0.00  0.00    -0.153 OA
BRANCH  20  23
ATOM     23  N   UNL     1      38.849 -24.325 -15.340  0.00  0.00    -0.203 NA
ATOM     24  H   UNL     1      39.317 -25.004 -15.940  0.00  0.00    +0.144 HD
ATOM     25  H   UNL     1      39.470 -23.531 -15.177  0.00  0.00    +0.144 HD
ENDBRANCH  20  23
ENDBRANCH  15  20
ENDBRANCH   4  14
BRANCH   6  26
ATOM     26  O   UNL     1      31.865 -22.431 -17.976  0.00  0.00    -0.453 OA
BRANCH  26  27
ATOM     27  C   UNL     1      33.208 -22.760 -18.280  0.00  0.00    +0.208 C 
BRANCH  27  28
ATOM     28  C   UNL     1      33.631 -21.972 -19.518  0.00  0.00    +0.044 C 
ATOM     29  C   UNL     1      32.641 -20.835 -19.803  0.00  0.00    +0.004 C 
ATOM     30  C   UNL     1      35.057 -21.428 -19.353  0.00  0.00    +0.004 C 
ATOM     31  C   UNL     1      33.072 -19.999 -21.006  0.00  0.00    +0.000 C 
ATOM     32  C   UNL     1      35.483 -20.591 -20.557  0.00  0.00    +0.000 C 
ATOM     33  C   UNL     1      34.492 -19.466 -20.841  0.00  0.00    +0.000 C 
ENDBRANCH  27  28
ENDBRANCH  26  27
ENDBRANCH   6  26
TORSDOF 6
ENDMDL
MODEL 2
REMARK VINA RESULT:     -12.4      3.014      6.803
REMARK  Name = 4566
REMARK  6 active torsions:
REMARK  status: ('A' for Active; 'I' for Inactive)
REMARK    1  A    between atoms: N_4  and  C_14
REMARK    2  A    between atoms: C_6  and  O_26
REMARK    3  A    between atoms: C_15  and  S_20
REMARK    4  A    between atoms: S_20  and  N_23
REMARK    5  A    between atoms: O_26  and  C_27
REMARK    6  A    between atoms: C_27  and  C_28
REMARK                            x       y       z     vdW  Elec       q    Type
REMARK                         _______ _______ _______ _____ _____    ______ ____
ROOT
ATOM      1  N   UNL     1      34.248 -23.950 -14.517  0.00  0.00    -0.293 NA
ATOM      2  N   UNL     1      37.782 -24.193 -13.526  0.00  0.00    -0.266 NA
ATOM      3  N   UNL     1      34.591 -24.347 -12.135  0.00  0.00    -0.316 NA
ATOM      4  N   UNL     1      32.443 -24.150 -13.040  0.00  0.00    -0.238 N 
ATOM      5  N   UNL     1      36.930 -24.507 -11.491  0.00  0.00    -0.296 N 
ATOM      6  C   UNL     1      35.580 -23.942 -14.751  0.00  0.00    +0.288 C 
ATOM      7  C   UNL     1      36.426 -24.137 -13.679  0.00  0.00    +0.215 C 
ATOM      8  C   UNL     1      35.919 -24.334 -12.401  0.00  0.00    +0.196 C 
ATOM      9  C   UNL     1      33.842 -24.149 -13.241  0.00  0.00    +0.207 C 
ATOM     10  C   UNL     1      38.036 -24.416 -12.198  0.00  0.00    +0.164 C 
ATOM     11  H   UNL     1      38.454 -24.091 -14.238  0.00  0.00    +0.126 HD
ATOM     12  H   UNL     1      32.177 -24.296 -12.103  0.00  0.00    +0.166 HD
ATOM     13  H   UNL     1      36.846 -24.663 -10.522  0.00  0.00    +0.150 HD
ENDROOT
BRANCH   4  14
ATOM     14  C   UNL     1      31.357 -23.983 -13.917  0.00  0.00    +0.059 C 
ATOM     15  C   UNL     1      29.195 -23.650 -15.656  0.00  0.00    +0.122 C 
ATOM     16  C   UNL     1      31.180 -22.774 -14.593  0.00  0.00    +0.017 C 
ATOM     17  C   UNL     1      30.447 -25.025 -14.114  0.00  0.00    +0.017 C 
ATOM     18  C   UNL     1      30.101 -22.607 -15.462  0.00  0.00    +0.021 C 
ATOM     19  C   UNL     1      29.368 -24.859 -14.983  0.00  0.00    +0.021 C 
BRANCH  15  20
ATOM     20  S   UNL     1      27.845 -23.442 -16.744  0.00  0.00    +0.057 S 
ATOM     21  O   UNL     1      28.162 -22.363 -17.669  0.00  0.00    -0.153 OA
ATOM     22  O   UNL     1      27.462 -24.749 -17.260  0.00  0.00    -0.153 OA
BRANCH  20  23
ATOM     23  N   UNL     1      26.636 -22.905 -15.662  0.00  0.00    -0.203 NA
ATOM     24  H   UNL     1      26.095 -23.705 -15.333  0.00  0.00    +0.144 HD
ATOM     25  H   UNL     1      26.017 -22.252 -16.142  0.00  0.00    +0.144 HD
ENDBRANCH  20  23
ENDBRANCH  15  20
ENDBRANCH   4  14
BRANCH   6  26
ATOM     26  O   UNL     1      36.025 -23.743 -16.034  0.00  0.00    -0.453 OA
BRANCH  26  27
ATOM     27  C   UNL     1      36.096 -22.406 -16.491  0.00  0.00    +0.208 C 
BRANCH  27  28
ATOM     28  C   UNL     1      35.544 -22.351 -17.915  0.00  0.00    +0.044 C 
ATOM     29  C   UNL     1      34.011 -22.289 -17.900  0.00  0.00    +0.004 C 
ATOM     30  C   UNL     1      36.132 -21.157 -18.678  0.00  0.00    +0.004 C 
ATOM     31  C   UNL     1      33.437 -22.180 -19.311  0.00  0.00    +0.000 C 
ATOM     32  C   UNL     1      35.554 -21.050 -20.088  0.00  0.00    +0.000 C 
ATOM     33  C   UNL     1      34.029 -20.996 -20.069  0.00  0.00    +0.000 C 
ENDBRANCH  27  28
ENDBRANCH  26  27
ENDBRANCH   6  26
TORSDOF 6
ENDMDL
MODEL 3
REMARK VINA RESULT:     -11.7      3.500      7.141
REMARK  Name = 4566
REMARK  6 active torsions:
REMARK  status: ('A' for Active; 'I' for Inactive)
REMARK    1  A    between atoms: N_4  and  C_14
REMARK    2  A    between atoms: C_6  and  O_26
REMARK    3  A    between atoms: C_15  and  S_20
REMARK    4  A    between atoms: S_20  and  N_23
REMARK    5  A    between atoms: O_26  and  C_27
REMARK    6  A    between atoms: C_27  and  C_28
REMARK                            x       y       z     vdW  Elec       q    Type
REMARK                         _______ _______ _______ _____ _____    ______ ____
ROOT
ATOM      1  N   UNL     1      33.408 -22.688 -16.496  0.00  0.00    -0.293 NA
ATOM      2  N   UNL     1      32.348 -24.636 -13.561  0.00  0.00    -0.266 NA
ATOM      3  N   UNL     1      31.176 -23.653 -16.692  0.00  0.00    -0.316 NA
ATOM      4  N   UNL     1      32.102 -22.367 -18.413  0.00  0.00    -0.238 N 
ATOM      5  N   UNL     1      30.486 -24.939 -14.747  0.00  0.00    -0.296 N 
ATOM      6  C   UNL     1      33.574 -23.215 -15.262  0.00  0.00    +0.288 C 
ATOM      7  C   UNL     1      32.543 -23.965 -14.736  0.00  0.00    +0.215 C 
ATOM      8  C   UNL     1      31.373 -24.168 -15.455  0.00  0.00    +0.196 C 
ATOM      9  C   UNL     1      32.235 -22.937 -17.126  0.00  0.00    +0.207 C 
ATOM     10  C   UNL     1      31.102 -25.203 -13.615  0.00  0.00    +0.164 C 
ATOM     11  H   UNL     1      32.985 -24.699 -12.813  0.00  0.00    +0.126 HD
ATOM     12  H   UNL     1      31.239 -22.563 -18.846  0.00  0.00    +0.166 HD
ATOM     13  H   UNL     1      29.587 -25.230 -15.026  0.00  0.00    +0.150 HD
ENDROOT
BRANCH   4  14
ATOM     14  C   UNL     1      32.960 -21.575 -19.195  0.00  0.00    +0.059 C 
ATOM     15  C   UNL     1      34.667 -20.002 -20.751  0.00  0.00    +0.122 C 
ATOM     16  C   UNL     1      32.442 -20.542 -19.979  0.00  0.00    +0.017 C 
ATOM     17  C   UNL     1      34.337 -21.817 -19.192  0.00  0.00    +0.017 C 
ATOM     18  C   UNL     1      33.293 -19.756 -20.756  0.00  0.00    +0.021 C 
ATOM     19  C   UNL     1      35.188 -21.031 -19.969  0.00  0.00    +0.021 C 
BRANCH  15  20
ATOM     20  S   UNL     1      35.733 -19.018 -21.723  0.00  0.00    +0.057 S 
ATOM     21  O   UNL     1      37.085 -19.146 -21.197  0.00  0.00    -0.153 OA
ATOM     22  O   UNL     1      35.473 -19.306 -23.127  0.00  0.00    -0.153 OA
BRANCH  20  23
ATOM     23  N   UNL     1      35.147 -17.453 -21.368  0.00  0.00    -0.203 NA
ATOM     24  H   UNL     1      34.396 -17.216 -22.015  0.00  0.00    +0.144 HD
ATOM     25  H   UNL     1      35.905 -16.777 -21.465  0.00  0.00    +0.144 HD
ENDBRANCH  20  23
ENDBRANCH  15  20
ENDBRANCH   4  14
BRANCH   6  26
ATOM     26  O   UNL     1      34.752 -22.983 -14.596  0.00  0.00    -0.453 OA
BRANCH  26  27
ATOM     27  C   UNL     1      35.940 -23.001 -15.365  0.00  0.00    +0.208 C 
BRANCH  27  28
ATOM     28  C   UNL     1      36.956 -23.902 -14.666  0.00  0.00    +0.044 C 
ATOM     29  C   UNL     1      36.992 -23.612 -13.159  0.00  0.00    +0.004 C 
ATOM     30  C   UNL     1      36.641 -25.380 -14.931  0.00  0.00    +0.004 C 
ATOM     31  C   UNL     1      37.963 -24.537 -12.429  0.00  0.00    +0.000 C 
ATOM     32  C   UNL     1      37.613 -26.303 -14.197  0.00  0.00    +0.000 C 
ATOM     33  C   UNL     1      37.651 -26.006 -12.701  0.00  0.00    +0.000 C 
ENDBRANCH  27  28
ENDBRANCH  26  27
ENDBRANCH   6  26
TORSDOF 6
ENDMDL
MODEL 4
REMARK VINA RESULT:     -11.7      3.079      6.786
REMARK  Name = 4566
REMARK  6 active torsions:
REMARK  status: ('A' for Active; 'I' for Inactive)
REMARK    1  A    between atoms: N_4  and  C_14
REMARK    2  A    between atoms: C_6  and  O_26
REMARK    3  A    between atoms: C_15  and  S_20
REMARK    4  A    between atoms: S_20  and  N_23
REMARK    5  A    between atoms: O_26  and  C_27
REMARK    6  A    between atoms: C_27  and  C_28
REMARK                            x       y       z     vdW  Elec       q    Type
REMARK                         _______ _______ _______ _____ _____    ______ ____
ROOT
ATOM      1  N   UNL     1      34.283 -23.448 -15.911  0.00  0.00    -0.293 NA
ATOM      2  N   UNL     1      37.946 -23.535 -15.595  0.00  0.00    -0.266 NA
ATOM      3  N   UNL     1      35.089 -24.743 -14.007  0.00  0.00    -0.316 NA
ATOM      4  N   UNL     1      32.803 -24.519 -14.447  0.00  0.00    -0.238 N 
ATOM      5  N   UNL     1      37.512 -24.794 -13.808  0.00  0.00    -0.296 N 
ATOM      6  C   UNL     1      35.543 -23.139 -16.289  0.00  0.00    +0.288 C 
ATOM      7  C   UNL     1      36.585 -23.630 -15.530  0.00  0.00    +0.215 C 
ATOM      8  C   UNL     1      36.340 -24.416 -14.412  0.00  0.00    +0.196 C 
ATOM      9  C   UNL     1      34.136 -24.220 -14.808  0.00  0.00    +0.207 C 
ATOM     10  C   UNL     1      38.457 -24.249 -14.543  0.00  0.00    +0.164 C 
ATOM     11  H   UNL     1      38.465 -23.045 -16.273  0.00  0.00    +0.126 HD
ATOM     12  H   UNL     1      32.727 -25.081 -13.641  0.00  0.00    +0.166 HD
ATOM     13  H   UNL     1      37.621 -25.350 -13.003  0.00  0.00    +0.150 HD
ENDROOT
BRANCH   4  14
ATOM     14  C   UNL     1      31.564 -24.171 -15.012  0.00  0.00    +0.059 C 
ATOM     15  C   UNL     1      29.102 -23.479 -16.139  0.00  0.00    +0.122 C 
ATOM     16  C   UNL     1      30.395 -24.810 -14.591  0.00  0.00    +0.017 C 
ATOM     17  C   UNL     1      31.495 -23.185 -16.000  0.00  0.00    +0.017 C 
ATOM     18  C   UNL     1      29.165 -24.465 -15.153  0.00  0.00    +0.021 C 
ATOM     19  C   UNL     1      30.266 -22.840 -16.562  0.00  0.00    +0.021 C 
BRANCH  15  20
ATOM     20  S   UNL     1      27.563 -23.048 -16.842  0.00  0.00    +0.057 S 
ATOM     21  O   UNL     1      27.688 -21.731 -17.451  0.00  0.00    -0.153 OA
ATOM     22  O   UNL     1      27.089 -24.171 -17.640  0.00  0.00    -0.153 OA
BRANCH  20  23
ATOM     23  N   UNL     1      26.590 -22.920 -15.444  0.00  0.00    -0.203 NA
ATOM     24  H   UNL     1      27.148 -22.553 -14.673  0.00  0.00    +0.144 HD
ATOM     25  H   UNL     1      26.231 -23.842 -15.194  0.00  0.00    +0.144 HD
ENDBRANCH  20  23
ENDBRANCH  15  20
ENDBRANCH   4  14
BRANCH   6  26
ATOM     26  O   UNL     1      35.727 -22.358 -17.403  0.00  0.00    -0.453 OA
BRANCH  26  27
ATOM     27  C   UNL     1      34.934 -22.657 -18.536  0.00  0.00    +0.208 C 
BRANCH  27  28
ATOM     28  C   UNL     1      34.465 -21.343 -19.159  0.00  0.00    +0.044 C 
ATOM     29  C   UNL     1      35.420 -20.900 -20.276  0.00  0.00    +0.004 C 
ATOM     30  C   UNL     1      33.030 -21.476 -19.687  0.00  0.00    +0.004 C 
ATOM     31  C   UNL     1      34.943 -19.616 -20.950  0.00  0.00    +0.000 C 
ATOM     32  C   UNL     1      32.557 -20.190 -20.363  0.00  0.00    +0.000 C 
ATOM     33  C   UNL     1      33.514 -19.749 -21.467  0.00  0.00    +0.000 C 
ENDBRANCH  27  28
ENDBRANCH  26  27
ENDBRANCH   6  26
TORSDOF 6
ENDMDL
MODEL 5
REMARK VINA RESULT:     -11.2      3.642      7.728
REMARK  Name = 4566
REMARK  6 active torsions:
REMARK  status: ('A' for Active; 'I' for Inactive)
REMARK    1  A    between atoms: N_4  and  C_14
REMARK    2  A    between atoms: C_6  and  O_26
REMARK    3  A    between atoms: C_15  and  S_20
REMARK    4  A    between atoms: S_20  and  N_23
REMARK    5  A    between atoms: O_26  and  C_27
REMARK    6  A    between atoms: C_27  and  C_28
REMARK                            x       y       z     vdW  Elec       q    Type
REMARK                         _______ _______ _______ _____ _____    ______ ____
ROOT
ATOM      1  N   UNL     1      34.764 -22.939 -16.539  0.00  0.00    -0.293 NA
ATOM      2  N   UNL     1      34.877 -24.934 -13.452  0.00  0.00    -0.266 NA
ATOM      3  N   UNL     1      37.007 -23.237 -15.626  0.00  0.00    -0.316 NA
ATOM      4  N   UNL     1      36.642 -22.009 -17.584  0.00  0.00    -0.238 N 
ATOM      5  N   UNL     1      37.070 -24.557 -13.585  0.00  0.00    -0.296 N 
ATOM      6  C   UNL     1      34.214 -23.663 -15.539  0.00  0.00    +0.288 C 
ATOM      7  C   UNL     1      35.056 -24.179 -14.576  0.00  0.00    +0.215 C 
ATOM      8  C   UNL     1      36.425 -23.958 -14.637  0.00  0.00    +0.196 C 
ATOM      9  C   UNL     1      36.108 -22.773 -16.520  0.00  0.00    +0.207 C 
ATOM     10  C   UNL     1      36.112 -25.135 -12.892  0.00  0.00    +0.164 C 
ATOM     11  H   UNL     1      34.020 -25.273 -13.107  0.00  0.00    +0.126 HD
ATOM     12  H   UNL     1      37.621 -21.906 -17.545  0.00  0.00    +0.166 HD
ATOM     13  H   UNL     1      38.035 -24.555 -13.392  0.00  0.00    +0.150 HD
ENDROOT
BRANCH   4  14
ATOM     14  C   UNL     1      36.049 -21.369 -18.686  0.00  0.00    +0.059 C 
ATOM     15  C   UNL     1      34.869 -20.096 -20.876  0.00  0.00    +0.122 C 
ATOM     16  C   UNL     1      36.778 -20.443 -19.435  0.00  0.00    +0.017 C 
ATOM     17  C   UNL     1      34.727 -21.656 -19.037  0.00  0.00    +0.017 C 
ATOM     18  C   UNL     1      36.189 -19.807 -20.529  0.00  0.00    +0.021 C 
ATOM     19  C   UNL     1      34.139 -21.020 -20.130  0.00  0.00    +0.021 C 
BRANCH  15  20
ATOM     20  S   UNL     1      34.132 -19.300 -22.244  0.00  0.00    +0.057 S 
ATOM     21  O   UNL     1      34.820 -19.732 -23.453  0.00  0.00    -0.153 OA
ATOM     22  O   UNL     1      32.687 -19.448 -22.141  0.00  0.00    -0.153 OA
BRANCH  20  23
ATOM     23  N   UNL     1      34.538 -17.670 -21.930  0.00  0.00    -0.203 NA
ATOM     24  H   UNL     1      34.739 -17.555 -20.936  0.00  0.00    +0.144 HD
ATOM     25  H   UNL     1      33.756 -17.069 -22.190  0.00  0.00    +0.144 HD
ENDBRANCH  20  23
ENDBRANCH  15  20
ENDBRANCH   4  14
BRANCH   6  26
ATOM     26  O   UNL     1      32.854 -23.849 -15.527  0.00  0.00    -0.453 OA
BRANCH  26  27
ATOM     27  C   UNL     1      32.138 -23.293 -14.441  0.00  0.00    +0.208 C 
BRANCH  27  28
ATOM     28  C   UNL     1      30.644 -23.391 -14.745  0.00  0.00    +0.044 C 
ATOM     29  C   UNL     1      30.339 -22.848 -16.147  0.00  0.00    +0.004 C 
ATOM     30  C   UNL     1      30.155 -24.839 -14.601  0.00  0.00    +0.004 C 
ATOM     31  C   UNL     1      28.858 -22.984 -16.496  0.00  0.00    +0.000 C 
ATOM     32  C   UNL     1      28.675 -24.971 -14.952  0.00  0.00    +0.000 C 
ATOM     33  C   UNL     1      28.375 -24.423 -16.344  0.00  0.00    +0.000 C 
ENDBRANCH  27  28
ENDBRANCH  26  27
ENDBRANCH   6  26
TORSDOF 6
ENDMDL
MODEL 6
REMARK VINA RESULT:     -10.3      4.742      9.122
REMARK  Name = 4566
REMARK  6 active torsions:
REMARK  status: ('A' for Active; 'I' for Inactive)
REMARK    1  A    between atoms: N_4  and  C_14
REMARK    2  A    between atoms: C_6  and  O_26
REMARK    3  A    between atoms: C_15  and  S_20
REMARK    4  A    between atoms: S_20  and  N_23
REMARK    5  A    between atoms: O_26  and  C_27
REMARK    6  A    between atoms: C_27  and  C_28
REMARK                            x       y       z     vdW  Elec       q    Type
REMARK                         _______ _______ _______ _____ _____    ______ ____
ROOT
ATOM      1  N   UNL     1      34.590 -21.479 -19.233  0.00  0.00    -0.293 NA
ATOM      2  N   UNL     1      35.190 -23.438 -16.178  0.00  0.00    -0.266 NA
ATOM      3  N   UNL     1      36.756 -21.063 -18.191  0.00  0.00    -0.316 NA
ATOM      4  N   UNL     1      36.112 -19.953 -20.146  0.00  0.00    -0.238 N 
ATOM      5  N   UNL     1      37.142 -22.363 -16.172  0.00  0.00    -0.296 N 
ATOM      6  C   UNL     1      34.256 -22.378 -18.280  0.00  0.00    +0.288 C 
ATOM      7  C   UNL     1      35.170 -22.625 -17.276  0.00  0.00    +0.215 C 
ATOM      8  C   UNL     1      36.393 -21.969 -17.251  0.00  0.00    +0.196 C 
ATOM      9  C   UNL     1      35.803 -20.885 -19.130  0.00  0.00    +0.207 C 
ATOM     10  C   UNL     1      36.392 -23.245 -15.548  0.00  0.00    +0.164 C 
ATOM     11  H   UNL     1      34.473 -24.049 -15.891  0.00  0.00    +0.126 HD
ATOM     12  H   UNL     1      37.000 -19.538 -20.047  0.00  0.00    +0.166 HD
ATOM     13  H   UNL     1      38.043 -22.054 -15.921  0.00  0.00    +0.150 HD
ENDROOT
BRANCH   4  14
ATOM     14  C   UNL     1      35.401 -19.501 -21.272  0.00  0.00    +0.059 C 
ATOM     15  C   UNL     1      33.989 -18.605 -23.510  0.00  0.00    +0.122 C 
ATOM     16  C   UNL     1      34.037 -19.775 -21.397  0.00  0.00    +0.017 C 
ATOM     17  C   UNL     1      36.056 -18.777 -22.272  0.00  0.00    +0.017 C 
ATOM     18  C   UNL     1      33.331 -19.328 -22.514  0.00  0.00    +0.021 C 
ATOM     19  C   UNL     1      35.350 -18.330 -23.389  0.00  0.00    +0.021 C 
BRANCH  15  20
ATOM     20  S   UNL     1      33.105 -18.046 -24.909  0.00  0.00    +0.057 S 
ATOM     21  O   UNL     1      31.868 -18.808 -25.007  0.00  0.00    -0.153 OA
ATOM     22  O   UNL     1      33.058 -16.591 -24.874  0.00  0.00    -0.153 OA
BRANCH  20  23
ATOM     23  N   UNL     1      34.152 -18.529 -26.170  0.00  0.00    -0.203 NA
ATOM     24  H   UNL     1      34.762 -17.751 -26.422  0.00  0.00    +0.144 HD
ATOM     25  H   UNL     1      33.601 -18.806 -26.982  0.00  0.00    +0.144 HD
ENDBRANCH  20  23
ENDBRANCH  15  20
ENDBRANCH   4  14
BRANCH   6  26
ATOM     26  O   UNL     1      33.033 -22.997 -18.354  0.00  0.00    -0.453 OA
BRANCH  26  27
ATOM     27  C   UNL     1      31.972 -22.415 -17.619  0.00  0.00    +0.208 C 
BRANCH  27  28
ATOM     28  C   UNL     1      31.506 -23.419 -16.566  0.00  0.00    +0.044 C 
ATOM     29  C   UNL     1      32.232 -23.184 -15.234  0.00  0.00    +0.004 C 
ATOM     30  C   UNL     1      29.985 -23.342 -16.380  0.00  0.00    +0.004 C 
ATOM     31  C   UNL     1      31.744 -24.141 -14.149  0.00  0.00    +0.000 C 
ATOM     32  C   UNL     1      29.501 -24.299 -15.293  0.00  0.00    +0.000 C 
ATOM     33  C   UNL     1      30.230 -24.067 -13.973  0.00  0.00    +0.000 C 
ENDBRANCH  27  28
ENDBRANCH  26  27
ENDBRANCH   6  26
TORSDOF 6
ENDMDL
MODEL 7
REMARK VINA RESULT:     -10.0      9.662     13.166
REMARK  Name = 4566
REMARK  6 active torsions:
REMARK  status: ('A' for Active; 'I' for Inactive)
REMARK    1  A    between atoms: N_4  and  C_14
REMARK    2  A    between atoms: C_6  and  O_26
REMARK    3  A    between atoms: C_15  and  S_20
REMARK    4  A    between atoms: S_20  and  N_23
REMARK    5  A    between atoms: O_26  and  C_27
REMARK    6  A    between atoms: C_27  and  C_28
REMARK                            x       y       z     vdW  Elec       q    Type
REMARK                         _______ _______ _______ _____ _____    ______ ____
ROOT
ATOM      1  N   UNL     1      33.558 -12.483 -24.668  0.00  0.00    -0.293 NA
ATOM      2  N   UNL     1      32.612  -9.367 -26.377  0.00  0.00    -0.266 NA
ATOM      3  N   UNL     1      32.783 -10.720 -23.170  0.00  0.00    -0.316 NA
ATOM      4  N   UNL     1      33.449 -12.808 -22.351  0.00  0.00    -0.238 N 
ATOM      5  N   UNL     1      32.161  -8.665 -24.310  0.00  0.00    -0.296 N 
ATOM      6  C   UNL     1      33.383 -11.697 -25.753  0.00  0.00    +0.288 C 
ATOM      7  C   UNL     1      32.907 -10.418 -25.555  0.00  0.00    +0.215 C 
ATOM      8  C   UNL     1      32.618  -9.957 -24.277  0.00  0.00    +0.196 C 
ATOM      9  C   UNL     1      33.252 -11.953 -23.460  0.00  0.00    +0.207 C 
ATOM     10  C   UNL     1      32.169  -8.340 -25.585  0.00  0.00    +0.164 C 
ATOM     11  H   UNL     1      32.701  -9.350 -27.357  0.00  0.00    +0.126 HD
ATOM     12  H   UNL     1      33.217 -12.396 -21.487  0.00  0.00    +0.166 HD
ATOM     13  H   UNL     1      31.887  -8.105 -23.548  0.00  0.00    +0.150 HD
ENDROOT
BRANCH   4  14
ATOM     14  C   UNL     1      33.911 -14.131 -22.241  0.00  0.00    +0.059 C 
ATOM     15  C   UNL     1      34.832 -16.760 -22.025  0.00  0.00    +0.122 C 
ATOM     16  C   UNL     1      34.185 -14.677 -20.986  0.00  0.00    +0.017 C 
ATOM     17  C   UNL     1      34.100 -14.906 -23.389  0.00  0.00    +0.017 C 
ATOM     18  C   UNL     1      34.644 -15.990 -20.877  0.00  0.00    +0.021 C 
ATOM     19  C   UNL     1      34.560 -16.218 -23.280  0.00  0.00    +0.021 C 
BRANCH  15  20
ATOM     20  S   UNL     1      35.407 -18.403 -21.889  0.00  0.00    +0.057 S 
ATOM     21  O   UNL     1      36.133 -18.739 -23.106  0.00  0.00    -0.153 OA
ATOM     22  O   UNL     1      36.055 -18.560 -20.594  0.00  0.00    -0.153 OA
BRANCH  20  23
ATOM     23  N   UNL     1      33.932 -19.265 -21.870  0.00  0.00    -0.203 NA
ATOM     24  H   UNL     1      33.744 -19.637 -22.801  0.00  0.00    +0.144 HD
ATOM     25  H   UNL     1      33.175 -18.637 -21.597  0.00  0.00    +0.144 HD
ENDBRANCH  20  23
ENDBRANCH  15  20
ENDBRANCH   4  14
BRANCH   6  26
ATOM     26  O   UNL     1      33.685 -12.204 -26.993  0.00  0.00    -0.453 OA
BRANCH  26  27
ATOM     27  C   UNL     1      32.605 -12.670 -27.779  0.00  0.00    +0.208 C 
BRANCH  27  28
ATOM     28  C   UNL     1      32.111 -13.990 -27.188  0.00  0.00    +0.044 C 
ATOM     29  C   UNL     1      30.901 -14.516 -27.972  0.00  0.00    +0.004 C 
ATOM     30  C   UNL     1      33.241 -15.029 -27.164  0.00  0.00    +0.004 C 
ATOM     31  C   UNL     1      30.422 -15.863 -27.434  0.00  0.00    +0.000 C 
ATOM     32  C   UNL     1      32.757 -16.374 -26.626  0.00  0.00    +0.000 C 
ATOM     33  C   UNL     1      31.550 -16.890 -27.404  0.00  0.00    +0.000 C 
ENDBRANCH  27  28
ENDBRANCH  26  27
ENDBRANCH   6  26
TORSDOF 6
ENDMDL
MODEL 8
REMARK VINA RESULT:      -9.9     11.478     15.508
REMARK  Name = 4566
REMARK  6 active torsions:
REMARK  status: ('A' for Active; 'I' for Inactive)
REMARK    1  A    between atoms: N_4  and  C_14
REMARK    2  A    between atoms: C_6  and  O_26
REMARK    3  A    between atoms: C_15  and  S_20
REMARK    4  A    between atoms: S_20  and  N_23
REMARK    5  A    between atoms: O_26  and  C_27
REMARK    6  A    between atoms: C_27  and  C_28
REMARK                            x       y       z     vdW  Elec       q    Type
REMARK                         _______ _______ _______ _____ _____    ______ ____
ROOT
ATOM      1  N   UNL     1      32.784 -11.733 -24.142  0.00  0.00    -0.293 NA
ATOM      2  N   UNL     1      33.263 -14.718 -26.236  0.00  0.00    -0.266 NA
ATOM      3  N   UNL     1      32.897 -11.266 -26.533  0.00  0.00    -0.316 NA
ATOM      4  N   UNL     1      32.597  -9.552 -24.970  0.00  0.00    -0.238 N 
ATOM      5  N   UNL     1      33.215 -13.246 -27.908  0.00  0.00    -0.296 N 
ATOM      6  C   UNL     1      32.946 -13.059 -24.350  0.00  0.00    +0.288 C 
ATOM      7  C   UNL     1      33.086 -13.497 -25.650  0.00  0.00    +0.215 C 
ATOM      8  C   UNL     1      33.058 -12.599 -26.709  0.00  0.00    +0.196 C 
ATOM      9  C   UNL     1      32.769 -10.930 -25.232  0.00  0.00    +0.207 C 
ATOM     10  C   UNL     1      33.335 -14.516 -27.590  0.00  0.00    +0.164 C 
ATOM     11  H   UNL     1      33.328 -15.584 -25.772  0.00  0.00    +0.126 HD
ATOM     12  H   UNL     1      32.589  -8.992 -25.781  0.00  0.00    +0.166 HD
ATOM     13  H   UNL     1      33.232 -12.846 -28.809  0.00  0.00    +0.150 HD
ENDROOT
BRANCH   4  14
ATOM     14  C   UNL     1      32.433  -8.823 -23.779  0.00  0.00    +0.059 C 
ATOM     15  C   UNL     1      32.106  -7.377 -21.411  0.00  0.00    +0.122 C 
ATOM     16  C   UNL     1      33.547  -8.319 -23.105  0.00  0.00    +0.017 C 
ATOM     17  C   UNL     1      31.153  -8.601 -23.263  0.00  0.00    +0.017 C 
ATOM     18  C   UNL     1      33.385  -7.596 -21.923  0.00  0.00    +0.021 C 
ATOM     19  C   UNL     1      30.991  -7.878 -22.080  0.00  0.00    +0.021 C 
BRANCH  15  20
ATOM     20  S   UNL     1      31.902  -6.473 -19.930  0.00  0.00    +0.057 S 
ATOM     21  O   UNL     1      30.753  -7.012 -19.217  0.00  0.00    -0.153 OA
ATOM     22  O   UNL     1      33.193  -6.386 -19.262  0.00  0.00    -0.153 OA
BRANCH  20  23
ATOM     23  N   UNL     1      31.498  -4.930 -20.543  0.00  0.00    -0.203 NA
ATOM     24  H   UNL     1      31.791  -4.213 -19.880  0.00  0.00    +0.144 HD
ATOM     25  H   UNL     1      30.489  -4.873 -20.681  0.00  0.00    +0.144 HD
ENDBRANCH  20  23
ENDBRANCH  15  20
ENDBRANCH   4  14
BRANCH   6  26
ATOM     26  O   UNL     1      32.967 -13.901 -23.266  0.00  0.00    -0.453 OA
BRANCH  26  27
ATOM     27  C   UNL     1      34.237 -14.287 -22.774  0.00  0.00    +0.208 C 
BRANCH  27  28
ATOM     28  C   UNL     1      34.251 -15.806 -22.609  0.00  0.00    +0.044 C 
ATOM     29  C   UNL     1      35.033 -16.469 -23.751  0.00  0.00    +0.004 C 
ATOM     30  C   UNL     1      34.837 -16.197 -21.246  0.00  0.00    +0.004 C 
ATOM     31  C   UNL     1      35.106 -17.984 -23.580  0.00  0.00    +0.000 C 
ATOM     32  C   UNL     1      34.911 -17.713 -21.079  0.00  0.00    +0.000 C 
ATOM     33  C   UNL     1      35.682 -18.369 -22.220  0.00  0.00    +0.000 C 
ENDBRANCH  27  28
ENDBRANCH  26  27
ENDBRANCH   6  26
TORSDOF 6
ENDMDL
