MODEL 1
REMARK VINA RESULT:     -13.3      0.000      0.000
REMARK  Name = 5288641
REMARK  1 active torsions:
REMARK  status: ('A' for Active; 'I' for Inactive)
REMARK    1  A    between atoms: C_14  and  S_23
REMARK                            x       y       z     vdW  Elec       q    Type
REMARK                         _______ _______ _______ _____ _____    ______ ____
ROOT
ATOM      1  O   UNL     1      34.953 -24.388 -14.551  0.00  0.00    -0.270 OA
ATOM      2  O   UNL     1      31.585 -22.336 -18.043  0.00  0.00    -0.285 OA
ATOM      3  N   UNL     1      34.908 -22.807 -17.065  0.00  0.00    -0.310 N 
ATOM      4  N   UNL     1      32.746 -24.907 -13.883  0.00  0.00    -0.280 N 
ATOM      5  C   UNL     1      32.987 -23.687 -15.804  0.00  0.00    +0.071 C 
ATOM      6  C   UNL     1      31.561 -23.894 -15.573  0.00  0.00    +0.020 C 
ATOM      7  C   UNL     1      33.580 -23.031 -16.803  0.00  0.00    +0.092 C 
ATOM      8  C   UNL     1      31.473 -24.641 -14.394  0.00  0.00    +0.051 C 
ATOM      9  C   UNL     1      33.744 -24.353 -14.692  0.00  0.00    +0.251 C 
ATOM     10  C   UNL     1      33.799 -21.771 -18.790  0.00  0.00    +0.054 C 
ATOM     11  C   UNL     1      35.051 -22.067 -18.231  0.00  0.00    +0.051 C 
ATOM     12  C   UNL     1      32.789 -22.373 -17.902  0.00  0.00    +0.210 C 
ATOM     13  C   UNL     1      30.421 -23.515 -16.255  0.00  0.00    +0.020 C 
ATOM     14  C   UNL     1      29.184 -23.902 -15.729  0.00  0.00    +0.112 C 
ATOM     15  C   UNL     1      30.262 -25.033 -13.857  0.00  0.00    +0.016 C 
ATOM     16  C   UNL     1      29.105 -24.653 -14.542  0.00  0.00    +0.020 C 
ATOM     17  C   UNL     1      33.642 -21.045 -19.952  0.00  0.00    +0.004 C 
ATOM     18  C   UNL     1      36.203 -21.626 -18.848  0.00  0.00    +0.015 C 
ATOM     19  C   UNL     1      34.808 -20.600 -20.575  0.00  0.00    +0.000 C 
ATOM     20  C   UNL     1      36.075 -20.888 -20.030  0.00  0.00    +0.001 C 
ATOM     21  H   UNL     1      35.654 -23.125 -16.507  0.00  0.00    +0.152 HD
ATOM     22  H   UNL     1      32.920 -25.419 -13.059  0.00  0.00    +0.155 HD
ENDROOT
BRANCH  14  23
ATOM     23  S   UNL     1      27.713 -23.445 -16.556  0.00  0.00    +0.042 S 
ATOM     24  O   UNL     1      28.081 -22.064 -17.351  0.00  0.00    -0.065 OA
ATOM     25  O   UNL     1      27.435 -24.456 -17.565  0.00  0.00    -0.065 OA
ATOM     26  O   UNL     1      26.732 -23.129 -15.530  0.00  0.00    -0.065 OA
ENDBRANCH  14  23
TORSDOF 1
ENDMDL
MODEL 2
REMARK VINA RESULT:     -11.6      3.564      6.953
REMARK  Name = 5288641
REMARK  1 active torsions:
REMARK  status: ('A' for Active; 'I' for Inactive)
REMARK    1  A    between atoms: C_14  and  S_23
REMARK                            x       y       z     vdW  Elec       q    Type
REMARK                         _______ _______ _______ _____ _____    ______ ____
ROOT
ATOM      1  O   UNL     1      34.102 -22.073 -18.310  0.00  0.00    -0.270 OA
ATOM      2  O   UNL     1      32.713 -24.574 -13.886  0.00  0.00    -0.285 OA
ATOM      3  N   UNL     1      31.704 -23.108 -16.895  0.00  0.00    -0.310 N 
ATOM      4  N   UNL     1      36.044 -22.513 -17.037  0.00  0.00    -0.280 N 
ATOM      5  C   UNL     1      34.049 -23.215 -16.160  0.00  0.00    +0.071 C 
ATOM      6  C   UNL     1      35.110 -23.579 -15.226  0.00  0.00    +0.020 C 
ATOM      7  C   UNL     1      32.737 -23.429 -16.052  0.00  0.00    +0.092 C 
ATOM      8  C   UNL     1      36.299 -23.129 -15.808  0.00  0.00    +0.051 C 
ATOM      9  C   UNL     1      34.676 -22.520 -17.334  0.00  0.00    +0.251 C 
ATOM     10  C   UNL     1      30.693 -24.166 -15.124  0.00  0.00    +0.054 C 
ATOM     11  C   UNL     1      30.495 -23.536 -16.361  0.00  0.00    +0.051 C 
ATOM     12  C   UNL     1      32.142 -24.130 -14.859  0.00  0.00    +0.210 C 
ATOM     13  C   UNL     1      35.122 -24.223 -14.004  0.00  0.00    +0.020 C 
ATOM     14  C   UNL     1      36.358 -24.408 -13.374  0.00  0.00    +0.112 C 
ATOM     15  C   UNL     1      37.529 -23.301 -15.203  0.00  0.00    +0.016 C 
ATOM     16  C   UNL     1      37.549 -23.952 -13.968  0.00  0.00    +0.020 C 
ATOM     17  C   UNL     1      29.665 -24.687 -14.368  0.00  0.00    +0.004 C 
ATOM     18  C   UNL     1      29.223 -23.415 -16.878  0.00  0.00    +0.015 C 
ATOM     19  C   UNL     1      28.377 -24.565 -14.891  0.00  0.00    +0.000 C 
ATOM     20  C   UNL     1      28.158 -23.936 -16.133  0.00  0.00    +0.001 C 
ATOM     21  H   UNL     1      31.803 -22.641 -17.756  0.00  0.00    +0.152 HD
ATOM     22  H   UNL     1      36.736 -22.122 -17.619  0.00  0.00    +0.155 HD
ENDROOT
BRANCH  14  23
ATOM     23  S   UNL     1      36.424 -25.216 -11.825  0.00  0.00    +0.042 S 
ATOM     24  O   UNL     1      34.914 -25.091 -11.212  0.00  0.00    -0.065 OA
ATOM     25  O   UNL     1      36.669 -26.629 -12.068  0.00  0.00    -0.065 OA
ATOM     26  O   UNL     1      37.320 -24.441 -10.982  0.00  0.00    -0.065 OA
ENDBRANCH  14  23
TORSDOF 1
ENDMDL
MODEL 3
REMARK VINA RESULT:     -11.3      9.816     13.349
REMARK  Name = 5288641
REMARK  1 active torsions:
REMARK  status: ('A' for Active; 'I' for Inactive)
REMARK    1  A    between atoms: C_14  and  S_23
REMARK                            x       y       z     vdW  Elec       q    Type
REMARK                         _______ _______ _______ _____ _____    ______ ____
ROOT
ATOM      1  O   UNL     1      32.574 -16.720 -27.612  0.00  0.00    -0.270 OA
ATOM      2  O   UNL     1      34.162 -14.242 -23.243  0.00  0.00    -0.285 OA
ATOM      3  N   UNL     1      33.711 -17.273 -24.924  0.00  0.00    -0.310 N 
ATOM      4  N   UNL     1      32.279 -14.393 -27.902  0.00  0.00    -0.280 N 
ATOM      5  C   UNL     1      33.147 -15.086 -25.900  0.00  0.00    +0.071 C 
ATOM      6  C   UNL     1      33.046 -13.630 -25.872  0.00  0.00    +0.020 C 
ATOM      7  C   UNL     1      33.596 -15.906 -24.949  0.00  0.00    +0.092 C 
ATOM      8  C   UNL     1      32.514 -13.263 -27.112  0.00  0.00    +0.051 C 
ATOM      9  C   UNL     1      32.642 -15.566 -27.230  0.00  0.00    +0.251 C 
ATOM     10  C   UNL     1      34.494 -16.594 -22.874  0.00  0.00    +0.054 C 
ATOM     11  C   UNL     1      34.238 -17.690 -23.709  0.00  0.00    +0.051 C 
ATOM     12  C   UNL     1      34.095 -15.390 -23.626  0.00  0.00    +0.210 C 
ATOM     13  C   UNL     1      33.358 -12.673 -24.927  0.00  0.00    +0.020 C 
ATOM     14  C   UNL     1      33.124 -11.332 -25.251  0.00  0.00    +0.112 C 
ATOM     15  C   UNL     1      32.275 -11.946 -27.452  0.00  0.00    +0.016 C 
ATOM     16  C   UNL     1      32.588 -10.972 -26.501  0.00  0.00    +0.020 C 
ATOM     17  C   UNL     1      35.019 -16.715 -21.605  0.00  0.00    +0.004 C 
ATOM     18  C   UNL     1      34.512 -18.969 -23.272  0.00  0.00    +0.015 C 
ATOM     19  C   UNL     1      35.297 -18.009 -21.163  0.00  0.00    +0.000 C 
ATOM     20  C   UNL     1      35.047 -19.125 -21.987  0.00  0.00    +0.001 C 
ATOM     21  H   UNL     1      33.456 -17.873 -25.662  0.00  0.00    +0.152 HD
ATOM     22  H   UNL     1      31.906 -14.367 -28.813  0.00  0.00    +0.155 HD
ENDROOT
BRANCH  14  23
ATOM     23  S   UNL     1      33.502 -10.084 -24.086  0.00  0.00    +0.042 S 
ATOM     24  O   UNL     1      33.013  -8.688 -24.780  0.00  0.00    -0.065 OA
ATOM     25  O   UNL     1      32.663 -10.295 -22.916  0.00  0.00    -0.065 OA
ATOM     26  O   UNL     1      34.951 -10.046 -23.964  0.00  0.00    -0.065 OA
ENDBRANCH  14  23
TORSDOF 1
ENDMDL
MODEL 4
REMARK VINA RESULT:     -10.8      8.781     11.867
REMARK  Name = 5288641
REMARK  1 active torsions:
REMARK  status: ('A' for Active; 'I' for Inactive)
REMARK    1  A    between atoms: C_14  and  S_23
REMARK                            x       y       z     vdW  Elec       q    Type
REMARK                         _______ _______ _______ _____ _____    ______ ____
ROOT
ATOM      1  O   UNL     1      32.272 -16.248 -27.796  0.00  0.00    -0.270 OA
ATOM      2  O   UNL     1      34.231 -14.683 -23.163  0.00  0.00    -0.285 OA
ATOM      3  N   UNL     1      32.766 -13.787 -26.208  0.00  0.00    -0.310 N 
ATOM      4  N   UNL     1      32.993 -18.147 -26.588  0.00  0.00    -0.280 N 
ATOM      5  C   UNL     1      33.265 -16.112 -25.577  0.00  0.00    +0.071 C 
ATOM      6  C   UNL     1      33.770 -17.140 -24.673  0.00  0.00    +0.020 C 
ATOM      7  C   UNL     1      33.227 -14.791 -25.395  0.00  0.00    +0.092 C 
ATOM      8  C   UNL     1      33.580 -18.356 -25.337  0.00  0.00    +0.051 C 
ATOM      9  C   UNL     1      32.763 -16.787 -26.821  0.00  0.00    +0.251 C 
ATOM     10  C   UNL     1      33.519 -12.704 -24.328  0.00  0.00    +0.054 C 
ATOM     11  C   UNL     1      32.933 -12.554 -25.592  0.00  0.00    +0.051 C 
ATOM     12  C   UNL     1      33.740 -14.148 -24.134  0.00  0.00    +0.210 C 
ATOM     13  C   UNL     1      34.337 -17.105 -23.414  0.00  0.00    +0.020 C 
ATOM     14  C   UNL     1      34.713 -18.320 -22.831  0.00  0.00    +0.112 C 
ATOM     15  C   UNL     1      33.943 -19.566 -24.780  0.00  0.00    +0.016 C 
ATOM     16  C   UNL     1      34.517 -19.539 -23.507  0.00  0.00    +0.020 C 
ATOM     17  C   UNL     1      33.801 -11.642 -23.493  0.00  0.00    +0.004 C 
ATOM     18  C   UNL     1      32.608 -11.297 -26.057  0.00  0.00    +0.015 C 
ATOM     19  C   UNL     1      33.472 -10.371 -23.964  0.00  0.00    +0.000 C 
ATOM     20  C   UNL     1      32.881 -10.199 -25.232  0.00  0.00    +0.001 C 
ATOM     21  H   UNL     1      32.375 -13.920 -27.101  0.00  0.00    +0.152 HD
ATOM     22  H   UNL     1      32.770 -18.865 -27.226  0.00  0.00    +0.155 HD
ENDROOT
BRANCH  14  23
ATOM     23  S   UNL     1      35.436 -18.326 -21.239  0.00  0.00    +0.042 S 
ATOM     24  O   UNL     1      34.699 -19.546 -20.438  0.00  0.00    -0.065 OA
ATOM     25  O   UNL     1      36.836 -18.696 -21.385  0.00  0.00    -0.065 OA
ATOM     26  O   UNL     1      35.061 -17.074 -20.601  0.00  0.00    -0.065 OA
ENDBRANCH  14  23
TORSDOF 1
ENDMDL
MODEL 5
REMARK VINA RESULT:     -10.8      3.295      7.137
REMARK  Name = 5288641
REMARK  1 active torsions:
REMARK  status: ('A' for Active; 'I' for Inactive)
REMARK    1  A    between atoms: C_14  and  S_23
REMARK                            x       y       z     vdW  Elec       q    Type
REMARK                         _______ _______ _______ _____ _____    ______ ____
ROOT
ATOM      1  O   UNL     1      32.622 -21.761 -19.458  0.00  0.00    -0.270 OA
ATOM      2  O   UNL     1      32.934 -24.123 -14.759  0.00  0.00    -0.285 OA
ATOM      3  N   UNL     1      30.918 -23.094 -17.423  0.00  0.00    -0.310 N 
ATOM      4  N   UNL     1      34.874 -21.749 -18.743  0.00  0.00    -0.280 N 
ATOM      5  C   UNL     1      33.349 -22.725 -17.344  0.00  0.00    +0.071 C 
ATOM      6  C   UNL     1      34.665 -22.823 -16.721  0.00  0.00    +0.020 C 
ATOM      7  C   UNL     1      32.176 -23.161 -16.881  0.00  0.00    +0.092 C 
ATOM      8  C   UNL     1      35.553 -22.215 -17.613  0.00  0.00    +0.051 C 
ATOM      9  C   UNL     1      33.504 -22.022 -18.661  0.00  0.00    +0.251 C 
ATOM     10  C   UNL     1      30.623 -24.176 -15.418  0.00  0.00    +0.054 C 
ATOM     11  C   UNL     1      29.994 -23.688 -16.572  0.00  0.00    +0.051 C 
ATOM     12  C   UNL     1      32.057 -23.863 -15.554  0.00  0.00    +0.210 C 
ATOM     13  C   UNL     1      35.117 -23.360 -15.531  0.00  0.00    +0.020 C 
ATOM     14  C   UNL     1      36.485 -23.273 -15.251  0.00  0.00    +0.112 C 
ATOM     15  C   UNL     1      36.907 -22.119 -17.357  0.00  0.00    +0.016 C 
ATOM     16  C   UNL     1      37.371 -22.659 -16.156  0.00  0.00    +0.020 C 
ATOM     17  C   UNL     1      29.946 -24.813 -14.400  0.00  0.00    +0.004 C 
ATOM     18  C   UNL     1      28.632 -23.835 -16.731  0.00  0.00    +0.015 C 
ATOM     19  C   UNL     1      28.568 -24.962 -14.560  0.00  0.00    +0.000 C 
ATOM     20  C   UNL     1      27.917 -24.478 -15.714  0.00  0.00    +0.001 C 
ATOM     21  H   UNL     1      30.699 -22.684 -18.291  0.00  0.00    +0.152 HD
ATOM     22  H   UNL     1      35.304 -21.287 -19.500  0.00  0.00    +0.155 HD
ENDROOT
BRANCH  14  23
ATOM     23  S   UNL     1      37.104 -23.936 -13.757  0.00  0.00    +0.042 S 
ATOM     24  O   UNL     1      38.550 -24.592 -14.146  0.00  0.00    -0.065 OA
ATOM     25  O   UNL     1      37.369 -22.828 -12.852  0.00  0.00    -0.065 OA
ATOM     26  O   UNL     1      36.207 -25.013 -13.370  0.00  0.00    -0.065 OA
ENDBRANCH  14  23
TORSDOF 1
ENDMDL
MODEL 6
REMARK VINA RESULT:     -10.5      2.417      3.164
REMARK  Name = 5288641
REMARK  1 active torsions:
REMARK  status: ('A' for Active; 'I' for Inactive)
REMARK    1  A    between atoms: C_14  and  S_23
REMARK                            x       y       z     vdW  Elec       q    Type
REMARK                         _______ _______ _______ _____ _____    ______ ____
ROOT
ATOM      1  O   UNL     1      37.765 -22.583 -16.402  0.00  0.00    -0.270 OA
ATOM      2  O   UNL     1      32.646 -22.351 -17.622  0.00  0.00    -0.285 OA
ATOM      3  N   UNL     1      35.934 -21.554 -18.502  0.00  0.00    -0.310 N 
ATOM      4  N   UNL     1      36.524 -23.662 -14.705  0.00  0.00    -0.280 N 
ATOM      5  C   UNL     1      35.339 -22.776 -16.451  0.00  0.00    +0.071 C 
ATOM      6  C   UNL     1      34.393 -23.388 -15.524  0.00  0.00    +0.020 C 
ATOM      7  C   UNL     1      35.087 -22.145 -17.599  0.00  0.00    +0.092 C 
ATOM      8  C   UNL     1      35.166 -23.911 -14.483  0.00  0.00    +0.051 C 
ATOM      9  C   UNL     1      36.723 -22.963 -15.901  0.00  0.00    +0.251 C 
ATOM     10  C   UNL     1      33.838 -21.240 -19.389  0.00  0.00    +0.054 C 
ATOM     11  C   UNL     1      35.211 -21.017 -19.560  0.00  0.00    +0.051 C 
ATOM     12  C   UNL     1      33.685 -21.974 -18.120  0.00  0.00    +0.210 C 
ATOM     13  C   UNL     1      33.017 -23.519 -15.515  0.00  0.00    +0.020 C 
ATOM     14  C   UNL     1      32.430 -24.187 -14.434  0.00  0.00    +0.112 C 
ATOM     15  C   UNL     1      34.607 -24.574 -13.408  0.00  0.00    +0.016 C 
ATOM     16  C   UNL     1      33.217 -24.710 -13.392  0.00  0.00    +0.020 C 
ATOM     17  C   UNL     1      32.885 -20.813 -20.289  0.00  0.00    +0.004 C 
ATOM     18  C   UNL     1      35.668 -20.342 -20.672  0.00  0.00    +0.015 C 
ATOM     19  C   UNL     1      33.346 -20.130 -21.414  0.00  0.00    +0.000 C 
ATOM     20  C   UNL     1      34.723 -19.896 -21.605  0.00  0.00    +0.001 C 
ATOM     21  H   UNL     1      36.913 -21.515 -18.413  0.00  0.00    +0.152 HD
ATOM     22  H   UNL     1      37.248 -23.942 -14.098  0.00  0.00    +0.155 HD
ENDROOT
BRANCH  14  23
ATOM     23  S   UNL     1      30.693 -24.375 -14.378  0.00  0.00    +0.042 S 
ATOM     24  O   UNL     1      30.320 -24.436 -12.788  0.00  0.00    -0.065 OA
ATOM     25  O   UNL     1      30.094 -23.161 -14.910  0.00  0.00    -0.065 OA
ATOM     26  O   UNL     1      30.390 -25.671 -14.965  0.00  0.00    -0.065 OA
ENDBRANCH  14  23
TORSDOF 1
ENDMDL
MODEL 7
REMARK VINA RESULT:     -10.3      2.960      6.408
REMARK  Name = 5288641
REMARK  1 active torsions:
REMARK  status: ('A' for Active; 'I' for Inactive)
REMARK    1  A    between atoms: C_14  and  S_23
REMARK                            x       y       z     vdW  Elec       q    Type
REMARK                         _______ _______ _______ _____ _____    ______ ____
ROOT
ATOM      1  O   UNL     1      34.737 -24.489 -12.906  0.00  0.00    -0.270 OA
ATOM      2  O   UNL     1      32.361 -22.903 -17.332  0.00  0.00    -0.285 OA
ATOM      3  N   UNL     1      32.071 -24.461 -14.216  0.00  0.00    -0.310 N 
ATOM      4  N   UNL     1      36.337 -23.457 -14.306  0.00  0.00    -0.280 N 
ATOM      5  C   UNL     1      34.189 -23.565 -15.091  0.00  0.00    +0.071 C 
ATOM      6  C   UNL     1      35.008 -22.898 -16.098  0.00  0.00    +0.020 C 
ATOM      7  C   UNL     1      32.885 -23.840 -15.130  0.00  0.00    +0.092 C 
ATOM      8  C   UNL     1      36.302 -22.860 -15.570  0.00  0.00    +0.051 C 
ATOM      9  C   UNL     1      35.072 -23.923 -13.931  0.00  0.00    +0.251 C 
ATOM     10  C   UNL     1      30.676 -23.936 -15.964  0.00  0.00    +0.054 C 
ATOM     11  C   UNL     1      30.769 -24.524 -14.695  0.00  0.00    +0.051 C 
ATOM     12  C   UNL     1      32.029 -23.466 -16.311  0.00  0.00    +0.210 C 
ATOM     13  C   UNL     1      34.738 -22.361 -17.342  0.00  0.00    +0.020 C 
ATOM     14  C   UNL     1      35.797 -21.783 -18.050  0.00  0.00    +0.112 C 
ATOM     15  C   UNL     1      37.362 -22.294 -16.252  0.00  0.00    +0.016 C 
ATOM     16  C   UNL     1      37.096 -21.749 -17.510  0.00  0.00    +0.020 C 
ATOM     17  C   UNL     1      29.499 -23.859 -16.678  0.00  0.00    +0.004 C 
ATOM     18  C   UNL     1      29.648 -25.063 -14.100  0.00  0.00    +0.015 C 
ATOM     19  C   UNL     1      28.364 -24.404 -16.076  0.00  0.00    +0.000 C 
ATOM     20  C   UNL     1      28.437 -24.999 -14.800  0.00  0.00    +0.001 C 
ATOM     21  H   UNL     1      32.367 -24.812 -13.346  0.00  0.00    +0.152 HD
ATOM     22  H   UNL     1      37.147 -23.541 -13.752  0.00  0.00    +0.155 HD
ENDROOT
BRANCH  14  23
ATOM     23  S   UNL     1      35.504 -21.093 -19.629  0.00  0.00    +0.042 S 
ATOM     24  O   UNL     1      36.450 -19.761 -19.697  0.00  0.00    -0.065 OA
ATOM     25  O   UNL     1      36.009 -22.025 -20.626  0.00  0.00    -0.065 OA
ATOM     26  O   UNL     1      34.115 -20.663 -19.650  0.00  0.00    -0.065 OA
ENDBRANCH  14  23
TORSDOF 1
ENDMDL
