MODEL 1
REMARK VINA RESULT:     -13.8      0.000      0.000
REMARK  Name = 11167118
REMARK  6 active torsions:
REMARK  status: ('A' for Active; 'I' for Inactive)
REMARK    1  A    between atoms: N_2  and  C_6
REMARK    2  A    between atoms: N_2  and  C_15
REMARK    3  A    between atoms: C_8  and  O_25
REMARK    4  A    between atoms: C_17  and  C_24
REMARK    5  A    between atoms: O_25  and  C_27
REMARK    6  A    between atoms: C_30  and  C_34
REMARK                            x       y       z     vdW  Elec       q    Type
REMARK                         _______ _______ _______ _____ _____    ______ ____
ROOT
ATOM      1  N   UNL     1      32.970 -21.328 -19.830  0.00  0.00    -0.302 N 
ATOM      2  N   UNL     1      35.009 -21.953 -19.207  0.00  0.00    -0.302 N 
ATOM      3  C   UNL     1      33.821 -20.414 -20.396  0.00  0.00    +0.063 C 
ATOM      4  C   UNL     1      35.088 -20.826 -19.992  0.00  0.00    +0.060 C 
ATOM      5  C   UNL     1      33.725 -22.226 -19.130  0.00  0.00    +0.225 C 
ATOM      6  C   UNL     1      33.600 -19.296 -21.203  0.00  0.00    +0.053 C 
ATOM      7  C   UNL     1      34.729 -18.578 -21.607  0.00  0.00    +0.147 C 
ATOM      8  C   UNL     1      36.212 -20.092 -20.407  0.00  0.00    +0.019 C 
ATOM      9  C   UNL     1      36.013 -18.967 -21.217  0.00  0.00    +0.039 C 
ATOM     10  H   UNL     1      31.989 -21.335 -19.913  0.00  0.00    +0.150 HD
ATOM     11  H   UNL     1      35.752 -22.448 -18.791  0.00  0.00    +0.150 HD
ENDROOT
BRANCH   5  12
ATOM     12  N   UNL     1      33.092 -23.229 -18.482  0.00  0.00    -0.303 N 
ATOM     13  H   UNL     1      33.012 -24.066 -18.993  0.00  0.00    +0.150 HD
BRANCH  12  15
ATOM     14 CL   UNL     1      30.757 -23.396 -13.039  0.00  0.00    -0.082 Cl
ATOM     15  C   UNL     1      32.522 -23.267 -17.178  0.00  0.00    +0.047 C 
ATOM     16  C   UNL     1      31.152 -23.105 -17.026  0.00  0.00    +0.019 C 
ATOM     17  C   UNL     1      30.593 -23.143 -15.748  0.00  0.00    +0.083 C 
ATOM     18  C   UNL     1      33.345 -23.466 -16.079  0.00  0.00    +0.015 C 
ATOM     19  C   UNL     1      31.411 -23.342 -14.635  0.00  0.00    +0.062 C 
ATOM     20  C   UNL     1      32.787 -23.503 -14.800  0.00  0.00    +0.013 C 
BRANCH  17  24
ATOM     21  F   UNL     1      28.508 -24.085 -15.150  0.00  0.00    -0.166 F 
ATOM     22  F   UNL     1      28.791 -21.965 -14.760  0.00  0.00    -0.166 F 
ATOM     23  F   UNL     1      28.550 -22.670 -16.808  0.00  0.00    -0.166 F 
ATOM     24  C   UNL     1      29.116 -22.966 -15.613  0.00  0.00    +0.419 C 
ENDBRANCH  17  24
ENDBRANCH  12  15
ENDBRANCH   5  12
BRANCH   7  25
ATOM     25  O   UNL     1      34.573 -17.477 -22.395  0.00  0.00    -0.453 OA
BRANCH  25  27
ATOM     26  N   UNL     1      33.496 -18.083 -26.363  0.00  0.00    -0.239 NA
ATOM     27  C   UNL     1      34.214 -17.679 -23.716  0.00  0.00    +0.149 C 
ATOM     28  C   UNL     1      33.796 -16.605 -24.473  0.00  0.00    +0.061 C 
ATOM     29  C   UNL     1      34.283 -18.949 -24.248  0.00  0.00    +0.058 C 
ATOM     30  C   UNL     1      33.448 -16.859 -25.790  0.00  0.00    +0.137 C 
ATOM     31  C   UNL     1      33.913 -19.099 -25.574  0.00  0.00    +0.102 C 
BRANCH  30  34
ATOM     32  O   UNL     1      32.787 -15.979 -27.860  0.00  0.00    -0.268 OA
ATOM     33  N   UNL     1      32.792 -14.531 -26.050  0.00  0.00    -0.298 N 
ATOM     34  C   UNL     1      32.997 -15.779 -26.650  0.00  0.00    +0.264 C 
ATOM     35  C   UNL     1      32.324 -13.365 -26.767  0.00  0.00    +0.111 C 
ATOM     36  H   UNL     1      32.978 -14.441 -25.087  0.00  0.00    +0.150 HD
ENDBRANCH  30  34
ENDBRANCH  25  27
ENDBRANCH   7  25
TORSDOF 6
ENDMDL
MODEL 2
REMARK VINA RESULT:     -13.5      1.113      1.879
REMARK  Name = 11167118
REMARK  6 active torsions:
REMARK  status: ('A' for Active; 'I' for Inactive)
REMARK    1  A    between atoms: N_2  and  C_6
REMARK    2  A    between atoms: N_2  and  C_15
REMARK    3  A    between atoms: C_8  and  O_25
REMARK    4  A    between atoms: C_17  and  C_24
REMARK    5  A    between atoms: O_25  and  C_27
REMARK    6  A    between atoms: C_30  and  C_34
REMARK                            x       y       z     vdW  Elec       q    Type
REMARK                         _______ _______ _______ _____ _____    ______ ____
ROOT
ATOM      1  N   UNL     1      34.860 -21.878 -18.944  0.00  0.00    -0.302 N 
ATOM      2  N   UNL     1      32.651 -21.872 -19.185  0.00  0.00    -0.302 N 
ATOM      3  C   UNL     1      34.602 -20.961 -19.930  0.00  0.00    +0.063 C 
ATOM      4  C   UNL     1      33.216 -20.976 -20.062  0.00  0.00    +0.060 C 
ATOM      5  C   UNL     1      33.664 -22.395 -18.530  0.00  0.00    +0.225 C 
ATOM      6  C   UNL     1      35.436 -20.144 -20.697  0.00  0.00    +0.053 C 
ATOM      7  C   UNL     1      34.814 -19.312 -21.632  0.00  0.00    +0.147 C 
ATOM      8  C   UNL     1      32.608 -20.133 -21.008  0.00  0.00    +0.019 C 
ATOM      9  C   UNL     1      33.426 -19.304 -21.787  0.00  0.00    +0.039 C 
ATOM     10  H   UNL     1      35.749 -22.121 -18.597  0.00  0.00    +0.150 HD
ATOM     11  H   UNL     1      31.695 -22.078 -19.070  0.00  0.00    +0.150 HD
ENDROOT
BRANCH   5  12
ATOM     12  N   UNL     1      33.674 -23.328 -17.553  0.00  0.00    -0.303 N 
ATOM     13  H   UNL     1      34.355 -24.031 -17.659  0.00  0.00    +0.150 HD
BRANCH  12  15
ATOM     14 CL   UNL     1      30.304 -23.874 -12.709  0.00  0.00    -0.082 Cl
ATOM     15  C   UNL     1      32.856 -23.456 -16.395  0.00  0.00    +0.047 C 
ATOM     16  C   UNL     1      31.488 -23.242 -16.495  0.00  0.00    +0.019 C 
ATOM     17  C   UNL     1      30.687 -23.369 -15.360  0.00  0.00    +0.083 C 
ATOM     18  C   UNL     1      33.439 -23.793 -15.181  0.00  0.00    +0.015 C 
ATOM     19  C   UNL     1      31.263 -23.707 -14.134  0.00  0.00    +0.062 C 
ATOM     20  C   UNL     1      32.639 -23.919 -14.045  0.00  0.00    +0.013 C 
BRANCH  17  24
ATOM     21  F   UNL     1      28.492 -24.216 -15.128  0.00  0.00    -0.166 F 
ATOM     22  F   UNL     1      28.788 -22.098 -14.739  0.00  0.00    -0.166 F 
ATOM     23  F   UNL     1      28.889 -22.852 -16.781  0.00  0.00    -0.166 F 
ATOM     24  C   UNL     1      29.218 -23.134 -15.498  0.00  0.00    +0.419 C 
ENDBRANCH  17  24
ENDBRANCH  12  15
ENDBRANCH   5  12
BRANCH   7  25
ATOM     25  O   UNL     1      35.579 -18.493 -22.409  0.00  0.00    -0.453 OA
BRANCH  25  27
ATOM     26  N   UNL     1      33.845 -14.981 -23.797  0.00  0.00    -0.239 NA
ATOM     27  C   UNL     1      35.002 -17.324 -22.871  0.00  0.00    +0.149 C 
ATOM     28  C   UNL     1      34.526 -17.271 -24.164  0.00  0.00    +0.061 C 
ATOM     29  C   UNL     1      34.913 -16.236 -22.029  0.00  0.00    +0.058 C 
ATOM     30  C   UNL     1      33.957 -16.078 -24.579  0.00  0.00    +0.137 C 
ATOM     31  C   UNL     1      34.327 -15.088 -22.539  0.00  0.00    +0.102 C 
BRANCH  30  34
ATOM     32  O   UNL     1      33.627 -16.841 -26.772  0.00  0.00    -0.268 OA
ATOM     33  N   UNL     1      32.694 -14.793 -26.214  0.00  0.00    -0.298 N 
ATOM     34  C   UNL     1      33.434 -15.947 -25.928  0.00  0.00    +0.264 C 
ATOM     35  C   UNL     1      32.090 -14.528 -27.501  0.00  0.00    +0.111 C 
ATOM     36  H   UNL     1      32.580 -14.124 -25.500  0.00  0.00    +0.150 HD
ENDBRANCH  30  34
ENDBRANCH  25  27
ENDBRANCH   7  25
TORSDOF 6
ENDMDL
MODEL 3
REMARK VINA RESULT:     -13.0      3.250      4.047
REMARK  Name = 11167118
REMARK  6 active torsions:
REMARK  status: ('A' for Active; 'I' for Inactive)
REMARK    1  A    between atoms: N_2  and  C_6
REMARK    2  A    between atoms: N_2  and  C_15
REMARK    3  A    between atoms: C_8  and  O_25
REMARK    4  A    between atoms: C_17  and  C_24
REMARK    5  A    between atoms: O_25  and  C_27
REMARK    6  A    between atoms: C_30  and  C_34
REMARK                            x       y       z     vdW  Elec       q    Type
REMARK                         _______ _______ _______ _____ _____    ______ ____
ROOT
ATOM      1  N   UNL     1      34.497 -22.393 -18.604  0.00  0.00    -0.302 N 
ATOM      2  N   UNL     1      32.306 -22.078 -18.800  0.00  0.00    -0.302 N 
ATOM      3  C   UNL     1      34.352 -21.397 -19.535  0.00  0.00    +0.063 C 
ATOM      4  C   UNL     1      32.975 -21.219 -19.640  0.00  0.00    +0.060 C 
ATOM      5  C   UNL     1      33.247 -22.767 -18.194  0.00  0.00    +0.225 C 
ATOM      6  C   UNL     1      35.279 -20.659 -20.274  0.00  0.00    +0.053 C 
ATOM      7  C   UNL     1      34.763 -19.701 -21.152  0.00  0.00    +0.147 C 
ATOM      8  C   UNL     1      32.475 -20.252 -20.528  0.00  0.00    +0.019 C 
ATOM      9  C   UNL     1      33.387 -19.499 -21.279  0.00  0.00    +0.039 C 
ATOM     10  H   UNL     1      35.349 -22.771 -18.287  0.00  0.00    +0.150 HD
ATOM     11  H   UNL     1      31.332 -22.160 -18.678  0.00  0.00    +0.150 HD
ENDROOT
BRANCH   5  12
ATOM     12  N   UNL     1      33.144 -23.744 -17.267  0.00  0.00    -0.303 N 
ATOM     13  H   UNL     1      32.662 -24.549 -17.567  0.00  0.00    +0.150 HD
BRANCH  12  15
ATOM     14 CL   UNL     1      35.086 -23.962 -11.673  0.00  0.00    -0.082 Cl
ATOM     15  C   UNL     1      33.620 -23.797 -15.927  0.00  0.00    +0.047 C 
ATOM     16  C   UNL     1      34.986 -23.772 -15.684  0.00  0.00    +0.019 C 
ATOM     17  C   UNL     1      35.453 -23.822 -14.371  0.00  0.00    +0.083 C 
ATOM     18  C   UNL     1      32.710 -23.872 -14.881  0.00  0.00    +0.015 C 
ATOM     19  C   UNL     1      34.547 -23.898 -13.311  0.00  0.00    +0.062 C 
ATOM     20  C   UNL     1      33.176 -23.923 -13.567  0.00  0.00    +0.013 C 
BRANCH  17  24
ATOM     21  F   UNL     1      37.621 -23.590 -15.287  0.00  0.00    -0.166 F 
ATOM     22  F   UNL     1      37.298 -22.809 -13.284  0.00  0.00    -0.166 F 
ATOM     23  F   UNL     1      37.363 -24.963 -13.613  0.00  0.00    -0.166 F 
ATOM     24  C   UNL     1      36.929 -23.793 -14.140  0.00  0.00    +0.419 C 
ENDBRANCH  17  24
ENDBRANCH  12  15
ENDBRANCH   5  12
BRANCH   7  25
ATOM     25  O   UNL     1      35.622 -18.950 -21.900  0.00  0.00    -0.453 OA
BRANCH  25  27
ATOM     26  N   UNL     1      34.120 -15.515 -23.691  0.00  0.00    -0.239 NA
ATOM     27  C   UNL     1      35.122 -17.806 -22.496  0.00  0.00    +0.149 C 
ATOM     28  C   UNL     1      34.715 -17.855 -23.813  0.00  0.00    +0.061 C 
ATOM     29  C   UNL     1      35.040 -16.643 -21.761  0.00  0.00    +0.058 C 
ATOM     30  C   UNL     1      34.222 -16.683 -24.364  0.00  0.00    +0.137 C 
ATOM     31  C   UNL     1      34.532 -15.525 -22.404  0.00  0.00    +0.102 C 
BRANCH  30  34
ATOM     32  O   UNL     1      34.202 -17.488 -26.566  0.00  0.00    -0.268 OA
ATOM     33  N   UNL     1      32.836 -15.676 -26.092  0.00  0.00    -0.298 N 
ATOM     34  C   UNL     1      33.774 -16.656 -25.746  0.00  0.00    +0.264 C 
ATOM     35  C   UNL     1      32.279 -15.534 -27.418  0.00  0.00    +0.111 C 
ATOM     36  H   UNL     1      32.540 -15.047 -25.393  0.00  0.00    +0.150 HD
ENDBRANCH  30  34
ENDBRANCH  25  27
ENDBRANCH   7  25
TORSDOF 6
ENDMDL
MODEL 4
REMARK VINA RESULT:     -13.0      1.750      2.271
REMARK  Name = 11167118
REMARK  6 active torsions:
REMARK  status: ('A' for Active; 'I' for Inactive)
REMARK    1  A    between atoms: N_2  and  C_6
REMARK    2  A    between atoms: N_2  and  C_15
REMARK    3  A    between atoms: C_8  and  O_25
REMARK    4  A    between atoms: C_17  and  C_24
REMARK    5  A    between atoms: O_25  and  C_27
REMARK    6  A    between atoms: C_30  and  C_34
REMARK                            x       y       z     vdW  Elec       q    Type
REMARK                         _______ _______ _______ _____ _____    ______ ____
ROOT
ATOM      1  N   UNL     1      32.634 -20.667 -20.538  0.00  0.00    -0.302 N 
ATOM      2  N   UNL     1      34.441 -21.293 -19.405  0.00  0.00    -0.302 N 
ATOM      3  C   UNL     1      33.671 -19.949 -21.076  0.00  0.00    +0.063 C 
ATOM      4  C   UNL     1      34.788 -20.358 -20.352  0.00  0.00    +0.060 C 
ATOM      5  C   UNL     1      33.143 -21.455 -19.544  0.00  0.00    +0.225 C 
ATOM      6  C   UNL     1      33.728 -19.005 -22.104  0.00  0.00    +0.053 C 
ATOM      7  C   UNL     1      34.984 -18.465 -22.394  0.00  0.00    +0.147 C 
ATOM      8  C   UNL     1      36.042 -19.804 -20.656  0.00  0.00    +0.019 C 
ATOM      9  C   UNL     1      36.122 -18.856 -21.684  0.00  0.00    +0.039 C 
ATOM     10  H   UNL     1      31.692 -20.622 -20.818  0.00  0.00    +0.150 HD
ATOM     11  H   UNL     1      35.034 -21.744 -18.762  0.00  0.00    +0.150 HD
ENDROOT
BRANCH   5  12
ATOM     12  N   UNL     1      32.295 -22.258 -18.866  0.00  0.00    -0.303 N 
ATOM     13  H   UNL     1      31.483 -22.514 -19.360  0.00  0.00    +0.150 HD
BRANCH  12  15
ATOM     14 CL   UNL     1      32.721 -24.490 -13.392  0.00  0.00    -0.082 Cl
ATOM     15  C   UNL     1      32.387 -22.793 -17.549  0.00  0.00    +0.047 C 
ATOM     16  C   UNL     1      31.233 -22.961 -16.796  0.00  0.00    +0.019 C 
ATOM     17  C   UNL     1      31.324 -23.486 -15.507  0.00  0.00    +0.083 C 
ATOM     18  C   UNL     1      33.630 -23.139 -17.038  0.00  0.00    +0.015 C 
ATOM     19  C   UNL     1      32.569 -23.837 -14.983  0.00  0.00    +0.062 C 
ATOM     20  C   UNL     1      33.722 -23.663 -15.749  0.00  0.00    +0.013 C 
BRANCH  17  24
ATOM     21  F   UNL     1      29.758 -24.961 -14.526  0.00  0.00    -0.166 F 
ATOM     22  F   UNL     1      30.144 -23.089 -13.492  0.00  0.00    -0.166 F 
ATOM     23  F   UNL     1      29.013 -23.087 -15.355  0.00  0.00    -0.166 F 
ATOM     24  C   UNL     1      30.066 -23.656 -14.720  0.00  0.00    +0.419 C 
ENDBRANCH  17  24
ENDBRANCH  12  15
ENDBRANCH   5  12
BRANCH   7  25
ATOM     25  O   UNL     1      35.099 -17.539 -23.387  0.00  0.00    -0.453 OA
BRANCH  25  27
ATOM     26  N   UNL     1      33.646 -13.718 -22.638  0.00  0.00    -0.239 NA
ATOM     27  C   UNL     1      34.615 -16.267 -23.138  0.00  0.00    +0.149 C 
ATOM     28  C   UNL     1      34.065 -15.539 -24.172  0.00  0.00    +0.061 C 
ATOM     29  C   UNL     1      34.692 -15.754 -21.861  0.00  0.00    +0.058 C 
ATOM     30  C   UNL     1      33.595 -14.271 -23.871  0.00  0.00    +0.137 C 
ATOM     31  C   UNL     1      34.195 -14.476 -21.662  0.00  0.00    +0.102 C 
BRANCH  30  34
ATOM     32  O   UNL     1      32.924 -12.211 -24.767  0.00  0.00    -0.268 OA
ATOM     33  N   UNL     1      32.556 -14.096 -26.064  0.00  0.00    -0.298 N 
ATOM     34  C   UNL     1      33.002 -13.444 -24.908  0.00  0.00    +0.264 C 
ATOM     35  C   UNL     1      31.965 -13.410 -27.192  0.00  0.00    +0.111 C 
ATOM     36  H   UNL     1      32.647 -15.075 -26.111  0.00  0.00    +0.150 HD
ENDBRANCH  30  34
ENDBRANCH  25  27
ENDBRANCH   7  25
TORSDOF 6
ENDMDL
MODEL 5
REMARK VINA RESULT:     -12.9      2.290      2.717
REMARK  Name = 11167118
REMARK  6 active torsions:
REMARK  status: ('A' for Active; 'I' for Inactive)
REMARK    1  A    between atoms: N_2  and  C_6
REMARK    2  A    between atoms: N_2  and  C_15
REMARK    3  A    between atoms: C_8  and  O_25
REMARK    4  A    between atoms: C_17  and  C_24
REMARK    5  A    between atoms: O_25  and  C_27
REMARK    6  A    between atoms: C_30  and  C_34
REMARK                            x       y       z     vdW  Elec       q    Type
REMARK                         _______ _______ _______ _____ _____    ______ ____
ROOT
ATOM      1  N   UNL     1      32.782 -20.852 -20.134  0.00  0.00    -0.302 N 
ATOM      2  N   UNL     1      34.712 -21.653 -19.377  0.00  0.00    -0.302 N 
ATOM      3  C   UNL     1      33.751 -20.058 -20.691  0.00  0.00    +0.063 C 
ATOM      4  C   UNL     1      34.947 -20.579 -20.203  0.00  0.00    +0.060 C 
ATOM      5  C   UNL     1      33.405 -21.790 -19.358  0.00  0.00    +0.225 C 
ATOM      6  C   UNL     1      33.688 -18.962 -21.554  0.00  0.00    +0.053 C 
ATOM      7  C   UNL     1      34.904 -18.384 -21.927  0.00  0.00    +0.147 C 
ATOM      8  C   UNL     1      36.160 -19.984 -20.588  0.00  0.00    +0.019 C 
ATOM      9  C   UNL     1      36.120 -18.883 -21.454  0.00  0.00    +0.039 C 
ATOM     10  H   UNL     1      31.811 -20.763 -20.269  0.00  0.00    +0.150 HD
ATOM     11  H   UNL     1      35.378 -22.202 -18.903  0.00  0.00    +0.150 HD
ENDROOT
BRANCH   5  12
ATOM     12  N   UNL     1      32.639 -22.690 -18.704  0.00  0.00    -0.303 N 
ATOM     13  H   UNL     1      31.980 -23.158 -19.266  0.00  0.00    +0.150 HD
BRANCH  12  15
ATOM     14 CL   UNL     1      32.576 -24.268 -12.993  0.00  0.00    -0.082 Cl
ATOM     15  C   UNL     1      32.634 -23.071 -17.332  0.00  0.00    +0.047 C 
ATOM     16  C   UNL     1      33.833 -23.373 -16.701  0.00  0.00    +0.019 C 
ATOM     17  C   UNL     1      33.827 -23.745 -15.357  0.00  0.00    +0.083 C 
ATOM     18  C   UNL     1      31.429 -23.134 -16.645  0.00  0.00    +0.015 C 
ATOM     19  C   UNL     1      32.622 -23.812 -14.656  0.00  0.00    +0.062 C 
ATOM     20  C   UNL     1      31.423 -23.507 -15.301  0.00  0.00    +0.013 C 
BRANCH  17  24
ATOM     21  F   UNL     1      35.364 -23.286 -13.619  0.00  0.00    -0.166 F 
ATOM     22  F   UNL     1      35.197 -25.350 -14.280  0.00  0.00    -0.166 F 
ATOM     23  F   UNL     1      36.165 -23.874 -15.559  0.00  0.00    -0.166 F 
ATOM     24  C   UNL     1      35.133 -24.064 -14.703  0.00  0.00    +0.419 C 
ENDBRANCH  17  24
ENDBRANCH  12  15
ENDBRANCH   5  12
BRANCH   7  25
ATOM     25  O   UNL     1      34.903 -17.310 -22.768  0.00  0.00    -0.453 OA
BRANCH  25  27
ATOM     26  N   UNL     1      33.283 -17.832 -26.559  0.00  0.00    -0.239 NA
ATOM     27  C   UNL     1      34.364 -17.484 -24.030  0.00  0.00    +0.149 C 
ATOM     28  C   UNL     1      33.941 -16.381 -24.741  0.00  0.00    +0.061 C 
ATOM     29  C   UNL     1      34.261 -18.756 -24.550  0.00  0.00    +0.058 C 
ATOM     30  C   UNL     1      33.408 -16.608 -26.000  0.00  0.00    +0.137 C 
ATOM     31  C   UNL     1      33.714 -18.878 -25.818  0.00  0.00    +0.102 C 
BRANCH  30  34
ATOM     32  O   UNL     1      32.738 -15.641 -28.027  0.00  0.00    -0.268 OA
ATOM     33  N   UNL     1      32.712 -14.281 -26.150  0.00  0.00    -0.298 N 
ATOM     34  C   UNL     1      32.941 -15.495 -26.809  0.00  0.00    +0.264 C 
ATOM     35  C   UNL     1      32.225 -13.091 -26.812  0.00  0.00    +0.111 C 
ATOM     36  H   UNL     1      32.893 -14.235 -25.183  0.00  0.00    +0.150 HD
ENDBRANCH  30  34
ENDBRANCH  25  27
ENDBRANCH   7  25
TORSDOF 6
ENDMDL
MODEL 6
REMARK VINA RESULT:     -12.7      6.055     11.057
REMARK  Name = 11167118
REMARK  6 active torsions:
REMARK  status: ('A' for Active; 'I' for Inactive)
REMARK    1  A    between atoms: N_2  and  C_6
REMARK    2  A    between atoms: N_2  and  C_15
REMARK    3  A    between atoms: C_8  and  O_25
REMARK    4  A    between atoms: C_17  and  C_24
REMARK    5  A    between atoms: O_25  and  C_27
REMARK    6  A    between atoms: C_30  and  C_34
REMARK                            x       y       z     vdW  Elec       q    Type
REMARK                         _______ _______ _______ _____ _____    ______ ____
ROOT
ATOM      1  N   UNL     1      33.545 -22.934 -17.237  0.00  0.00    -0.302 N 
ATOM      2  N   UNL     1      31.346 -22.615 -17.267  0.00  0.00    -0.302 N 
ATOM      3  C   UNL     1      33.102 -23.326 -16.000  0.00  0.00    +0.063 C 
ATOM      4  C   UNL     1      31.726 -23.117 -16.044  0.00  0.00    +0.060 C 
ATOM      5  C   UNL     1      32.461 -22.518 -17.958  0.00  0.00    +0.225 C 
ATOM      6  C   UNL     1      33.765 -23.830 -14.879  0.00  0.00    +0.053 C 
ATOM      7  C   UNL     1      32.978 -24.129 -13.764  0.00  0.00    +0.147 C 
ATOM      8  C   UNL     1      30.950 -23.423 -14.913  0.00  0.00    +0.019 C 
ATOM      9  C   UNL     1      31.595 -23.930 -13.778  0.00  0.00    +0.039 C 
ATOM     10  H   UNL     1      34.479 -22.951 -17.550  0.00  0.00    +0.150 HD
ATOM     11  H   UNL     1      30.437 -22.379 -17.562  0.00  0.00    +0.150 HD
ENDROOT
BRANCH   5  12
ATOM     12  N   UNL     1      32.660 -22.083 -19.221  0.00  0.00    -0.303 N 
ATOM     13  H   UNL     1      31.946 -22.318 -19.857  0.00  0.00    +0.150 HD
BRANCH  12  15
ATOM     14 CL   UNL     1      37.175 -19.007 -21.517  0.00  0.00    -0.082 Cl
ATOM     15  C   UNL     1      33.738 -21.340 -19.779  0.00  0.00    +0.047 C 
ATOM     16  C   UNL     1      33.491 -20.444 -20.809  0.00  0.00    +0.019 C 
ATOM     17  C   UNL     1      34.548 -19.715 -21.356  0.00  0.00    +0.083 C 
ATOM     18  C   UNL     1      35.022 -21.523 -19.285  0.00  0.00    +0.015 C 
ATOM     19  C   UNL     1      35.843 -19.891 -20.867  0.00  0.00    +0.062 C 
ATOM     20  C   UNL     1      36.080 -20.795 -19.831  0.00  0.00    +0.013 C 
BRANCH  17  24
ATOM     21  F   UNL     1      34.330 -17.467 -22.056  0.00  0.00    -0.166 F 
ATOM     22  F   UNL     1      35.109 -18.889 -23.504  0.00  0.00    -0.166 F 
ATOM     23  F   UNL     1      33.001 -18.947 -22.951  0.00  0.00    -0.166 F 
ATOM     24  C   UNL     1      34.251 -18.757 -22.463  0.00  0.00    +0.419 C 
ENDBRANCH  17  24
ENDBRANCH  12  15
ENDBRANCH   5  12
BRANCH   7  25
ATOM     25  O   UNL     1      33.572 -24.624 -12.640  0.00  0.00    -0.453 OA
BRANCH  25  27
ATOM     26  N   UNL     1      37.701 -24.274 -12.332  0.00  0.00    -0.239 NA
ATOM     27  C   UNL     1      34.946 -24.507 -12.538  0.00  0.00    +0.149 C 
ATOM     28  C   UNL     1      35.752 -25.317 -13.310  0.00  0.00    +0.061 C 
ATOM     29  C   UNL     1      35.483 -23.584 -11.666  0.00  0.00    +0.058 C 
ATOM     30  C   UNL     1      37.122 -25.163 -13.171  0.00  0.00    +0.137 C 
ATOM     31  C   UNL     1      36.865 -23.505 -11.600  0.00  0.00    +0.102 C 
BRANCH  30  34
ATOM     32  O   UNL     1      37.624 -26.991 -14.550  0.00  0.00    -0.268 OA
ATOM     33  N   UNL     1      39.369 -25.564 -14.011  0.00  0.00    -0.298 N 
ATOM     34  C   UNL     1      38.034 -25.981 -13.951  0.00  0.00    +0.264 C 
ATOM     35  C   UNL     1      40.391 -26.258 -14.763  0.00  0.00    +0.111 C 
ATOM     36  H   UNL     1      39.628 -24.755 -13.513  0.00  0.00    +0.150 HD
ENDBRANCH  30  34
ENDBRANCH  25  27
ENDBRANCH   7  25
TORSDOF 6
ENDMDL
MODEL 7
REMARK VINA RESULT:     -12.7      3.680      4.423
REMARK  Name = 11167118
REMARK  6 active torsions:
REMARK  status: ('A' for Active; 'I' for Inactive)
REMARK    1  A    between atoms: N_2  and  C_6
REMARK    2  A    between atoms: N_2  and  C_15
REMARK    3  A    between atoms: C_8  and  O_25
REMARK    4  A    between atoms: C_17  and  C_24
REMARK    5  A    between atoms: O_25  and  C_27
REMARK    6  A    between atoms: C_30  and  C_34
REMARK                            x       y       z     vdW  Elec       q    Type
REMARK                         _______ _______ _______ _____ _____    ______ ____
ROOT
ATOM      1  N   UNL     1      34.659 -22.420 -18.279  0.00  0.00    -0.302 N 
ATOM      2  N   UNL     1      32.452 -22.224 -18.448  0.00  0.00    -0.302 N 
ATOM      3  C   UNL     1      34.448 -21.532 -19.302  0.00  0.00    +0.063 C 
ATOM      4  C   UNL     1      33.063 -21.427 -19.388  0.00  0.00    +0.060 C 
ATOM      5  C   UNL     1      33.438 -22.805 -17.800  0.00  0.00    +0.225 C 
ATOM      6  C   UNL     1      35.323 -20.833 -20.136  0.00  0.00    +0.053 C 
ATOM      7  C   UNL     1      34.745 -19.994 -21.093  0.00  0.00    +0.147 C 
ATOM      8  C   UNL     1      32.499 -20.579 -20.356  0.00  0.00    +0.019 C 
ATOM      9  C   UNL     1      33.358 -19.867 -21.203  0.00  0.00    +0.039 C 
ATOM     10  H   UNL     1      35.535 -22.725 -17.948  0.00  0.00    +0.150 HD
ATOM     11  H   UNL     1      31.487 -22.336 -18.292  0.00  0.00    +0.150 HD
ENDROOT
BRANCH   5  12
ATOM     12  N   UNL     1      33.400 -23.686 -16.777  0.00  0.00    -0.303 N 
ATOM     13  H   UNL     1      32.586 -24.238 -16.736  0.00  0.00    +0.150 HD
BRANCH  12  15
ATOM     14 CL   UNL     1      37.343 -24.720 -12.475  0.00  0.00    -0.082 Cl
ATOM     15  C   UNL     1      34.350 -23.943 -15.748  0.00  0.00    +0.047 C 
ATOM     16  C   UNL     1      35.131 -25.089 -15.808  0.00  0.00    +0.019 C 
ATOM     17  C   UNL     1      36.062 -25.340 -14.800  0.00  0.00    +0.083 C 
ATOM     18  C   UNL     1      34.480 -23.044 -14.698  0.00  0.00    +0.015 C 
ATOM     19  C   UNL     1      36.202 -24.443 -13.740  0.00  0.00    +0.062 C 
ATOM     20  C   UNL     1      35.410 -23.296 -13.689  0.00  0.00    +0.013 C 
BRANCH  17  24
ATOM     21  F   UNL     1      36.745 -27.373 -13.803  0.00  0.00    -0.166 F 
ATOM     22  F   UNL     1      36.568 -27.337 -15.969  0.00  0.00    -0.166 F 
ATOM     23  F   UNL     1      38.207 -26.280 -14.996  0.00  0.00    -0.166 F 
ATOM     24  C   UNL     1      36.890 -26.581 -14.892  0.00  0.00    +0.419 C 
ENDBRANCH  17  24
ENDBRANCH  12  15
ENDBRANCH   5  12
BRANCH   7  25
ATOM     25  O   UNL     1      35.551 -19.287 -21.935  0.00  0.00    -0.453 OA
BRANCH  25  27
ATOM     26  N   UNL     1      33.725 -17.031 -24.909  0.00  0.00    -0.239 NA
ATOM     27  C   UNL     1      34.943 -18.536 -22.925  0.00  0.00    +0.149 C 
ATOM     28  C   UNL     1      34.819 -17.173 -22.758  0.00  0.00    +0.061 C 
ATOM     29  C   UNL     1      34.476 -19.166 -24.058  0.00  0.00    +0.058 C 
ATOM     30  C   UNL     1      34.203 -16.466 -23.778  0.00  0.00    +0.137 C 
ATOM     31  C   UNL     1      33.874 -18.371 -25.021  0.00  0.00    +0.102 C 
BRANCH  30  34
ATOM     32  O   UNL     1      34.660 -14.377 -22.815  0.00  0.00    -0.268 OA
ATOM     33  N   UNL     1      33.167 -14.419 -24.588  0.00  0.00    -0.298 N 
ATOM     34  C   UNL     1      34.035 -15.026 -23.673  0.00  0.00    +0.264 C 
ATOM     35  C   UNL     1      32.912 -12.996 -24.627  0.00  0.00    +0.111 C 
ATOM     36  H   UNL     1      32.703 -14.992 -25.241  0.00  0.00    +0.150 HD
ENDBRANCH  30  34
ENDBRANCH  25  27
ENDBRANCH   7  25
TORSDOF 6
ENDMDL
MODEL 8
REMARK VINA RESULT:     -12.7      2.743      3.395
REMARK  Name = 11167118
REMARK  6 active torsions:
REMARK  status: ('A' for Active; 'I' for Inactive)
REMARK    1  A    between atoms: N_2  and  C_6
REMARK    2  A    between atoms: N_2  and  C_15
REMARK    3  A    between atoms: C_8  and  O_25
REMARK    4  A    between atoms: C_17  and  C_24
REMARK    5  A    between atoms: O_25  and  C_27
REMARK    6  A    between atoms: C_30  and  C_34
REMARK                            x       y       z     vdW  Elec       q    Type
REMARK                         _______ _______ _______ _____ _____    ______ ____
ROOT
ATOM      1  N   UNL     1      32.689 -20.686 -20.477  0.00  0.00    -0.302 N 
ATOM      2  N   UNL     1      34.494 -21.374 -19.379  0.00  0.00    -0.302 N 
ATOM      3  C   UNL     1      33.733 -19.967 -21.001  0.00  0.00    +0.063 C 
ATOM      4  C   UNL     1      34.848 -20.415 -20.298  0.00  0.00    +0.060 C 
ATOM      5  C   UNL     1      33.194 -21.513 -19.513  0.00  0.00    +0.225 C 
ATOM      6  C   UNL     1      33.796 -18.992 -21.998  0.00  0.00    +0.053 C 
ATOM      7  C   UNL     1      35.058 -18.461 -22.281  0.00  0.00    +0.147 C 
ATOM      8  C   UNL     1      36.109 -19.870 -20.595  0.00  0.00    +0.019 C 
ATOM      9  C   UNL     1      36.195 -18.890 -21.593  0.00  0.00    +0.039 C 
ATOM     10  H   UNL     1      31.745 -20.618 -20.749  0.00  0.00    +0.150 HD
ATOM     11  H   UNL     1      35.086 -21.854 -18.755  0.00  0.00    +0.150 HD
ENDROOT
BRANCH   5  12
ATOM     12  N   UNL     1      32.338 -22.324 -18.854  0.00  0.00    -0.303 N 
ATOM     13  H   UNL     1      31.560 -22.619 -19.380  0.00  0.00    +0.150 HD
BRANCH  12  15
ATOM     14 CL   UNL     1      32.481 -24.385 -13.300  0.00  0.00    -0.082 Cl
ATOM     15  C   UNL     1      32.383 -22.821 -17.520  0.00  0.00    +0.047 C 
ATOM     16  C   UNL     1      33.600 -23.194 -16.969  0.00  0.00    +0.019 C 
ATOM     17  C   UNL     1      33.643 -23.680 -15.662  0.00  0.00    +0.083 C 
ATOM     18  C   UNL     1      31.206 -22.925 -16.791  0.00  0.00    +0.015 C 
ATOM     19  C   UNL     1      32.467 -23.789 -14.919  0.00  0.00    +0.062 C 
ATOM     20  C   UNL     1      31.249 -23.412 -15.484  0.00  0.00    +0.013 C 
BRANCH  17  24
ATOM     21  F   UNL     1      35.195 -23.504 -13.886  0.00  0.00    -0.166 F 
ATOM     22  F   UNL     1      35.079 -25.412 -14.920  0.00  0.00    -0.166 F 
ATOM     23  F   UNL     1      35.981 -23.693 -15.911  0.00  0.00    -0.166 F 
ATOM     24  C   UNL     1      34.969 -24.073 -15.094  0.00  0.00    +0.419 C 
ENDBRANCH  17  24
ENDBRANCH  12  15
ENDBRANCH   5  12
BRANCH   7  25
ATOM     25  O   UNL     1      35.180 -17.505 -23.245  0.00  0.00    -0.453 OA
BRANCH  25  27
ATOM     26  N   UNL     1      33.649 -13.730 -22.422  0.00  0.00    -0.239 NA
ATOM     27  C   UNL     1      34.670 -16.248 -22.971  0.00  0.00    +0.149 C 
ATOM     28  C   UNL     1      34.140 -15.497 -23.998  0.00  0.00    +0.061 C 
ATOM     29  C   UNL     1      34.703 -15.774 -21.677  0.00  0.00    +0.058 C 
ATOM     30  C   UNL     1      33.642 -14.245 -23.672  0.00  0.00    +0.137 C 
ATOM     31  C   UNL     1      34.181 -14.510 -21.454  0.00  0.00    +0.102 C 
BRANCH  30  34
ATOM     32  O   UNL     1      32.968 -12.167 -24.524  0.00  0.00    -0.268 OA
ATOM     33  N   UNL     1      32.664 -14.016 -25.888  0.00  0.00    -0.298 N 
ATOM     34  C   UNL     1      33.068 -13.395 -24.701  0.00  0.00    +0.264 C 
ATOM     35  C   UNL     1      32.096 -13.304 -27.011  0.00  0.00    +0.111 C 
ATOM     36  H   UNL     1      32.770 -14.992 -25.962  0.00  0.00    +0.150 HD
ENDBRANCH  30  34
ENDBRANCH  25  27
ENDBRANCH   7  25
TORSDOF 6
ENDMDL
MODEL 9
REMARK VINA RESULT:     -12.5      5.831     10.750
REMARK  Name = 11167118
REMARK  6 active torsions:
REMARK  status: ('A' for Active; 'I' for Inactive)
REMARK    1  A    between atoms: N_2  and  C_6
REMARK    2  A    between atoms: N_2  and  C_15
REMARK    3  A    between atoms: C_8  and  O_25
REMARK    4  A    between atoms: C_17  and  C_24
REMARK    5  A    between atoms: O_25  and  C_27
REMARK    6  A    between atoms: C_30  and  C_34
REMARK                            x       y       z     vdW  Elec       q    Type
REMARK                         _______ _______ _______ _____ _____    ______ ____
ROOT
ATOM      1  N   UNL     1      34.116 -18.769 -21.472  0.00  0.00    -0.302 N 
ATOM      2  N   UNL     1      36.238 -19.311 -21.098  0.00  0.00    -0.302 N 
ATOM      3  C   UNL     1      34.074 -19.903 -20.702  0.00  0.00    +0.063 C 
ATOM      4  C   UNL     1      35.411 -20.221 -20.483  0.00  0.00    +0.060 C 
ATOM      5  C   UNL     1      35.429 -18.454 -21.681  0.00  0.00    +0.225 C 
ATOM      6  C   UNL     1      33.013 -20.656 -20.195  0.00  0.00    +0.053 C 
ATOM      7  C   UNL     1      33.347 -21.779 -19.432  0.00  0.00    +0.147 C 
ATOM      8  C   UNL     1      35.729 -21.354 -19.714  0.00  0.00    +0.019 C 
ATOM      9  C   UNL     1      34.680 -22.124 -19.194  0.00  0.00    +0.039 C 
ATOM     10  H   UNL     1      33.338 -18.270 -21.812  0.00  0.00    +0.150 HD
ATOM     11  H   UNL     1      37.223 -19.301 -21.102  0.00  0.00    +0.150 HD
ENDROOT
BRANCH   5  12
ATOM     12  N   UNL     1      35.715 -17.361 -22.421  0.00  0.00    -0.303 N 
ATOM     13  H   UNL     1      36.589 -16.949 -22.231  0.00  0.00    +0.150 HD
BRANCH  12  15
ATOM     14 CL   UNL     1      32.550 -14.680 -26.653  0.00  0.00    -0.082 Cl
ATOM     15  C   UNL     1      34.954 -16.708 -23.432  0.00  0.00    +0.047 C 
ATOM     16  C   UNL     1      34.570 -15.387 -23.254  0.00  0.00    +0.019 C 
ATOM     17  C   UNL     1      33.825 -14.747 -24.245  0.00  0.00    +0.083 C 
ATOM     18  C   UNL     1      34.607 -17.404 -24.582  0.00  0.00    +0.015 C 
ATOM     19  C   UNL     1      33.470 -15.437 -25.405  0.00  0.00    +0.062 C 
ATOM     20  C   UNL     1      33.861 -16.766 -25.573  0.00  0.00    +0.013 C 
BRANCH  17  24
ATOM     21  F   UNL     1      33.896 -12.507 -25.001  0.00  0.00    -0.166 F 
ATOM     22  F   UNL     1      32.081 -13.163 -24.000  0.00  0.00    -0.166 F 
ATOM     23  F   UNL     1      33.907 -12.859 -22.848  0.00  0.00    -0.166 F 
ATOM     24  C   UNL     1      33.426 -13.324 -24.027  0.00  0.00    +0.419 C 
ENDBRANCH  17  24
ENDBRANCH  12  15
ENDBRANCH   5  12
BRANCH   7  25
ATOM     25  O   UNL     1      32.352 -22.552 -18.911  0.00  0.00    -0.453 OA
BRANCH  25  27
ATOM     26  N   UNL     1      32.542 -23.464 -14.861  0.00  0.00    -0.239 NA
ATOM     27  C   UNL     1      32.415 -22.855 -17.562  0.00  0.00    +0.149 C 
ATOM     28  C   UNL     1      33.633 -23.171 -16.998  0.00  0.00    +0.061 C 
ATOM     29  C   UNL     1      31.260 -22.836 -16.811  0.00  0.00    +0.058 C 
ATOM     30  C   UNL     1      33.644 -23.467 -15.644  0.00  0.00    +0.137 C 
ATOM     31  C   UNL     1      31.375 -23.148 -15.466  0.00  0.00    +0.102 C 
BRANCH  30  34
ATOM     32  O   UNL     1      35.742 -24.509 -15.553  0.00  0.00    -0.268 OA
ATOM     33  N   UNL     1      35.084 -23.296 -13.691  0.00  0.00    -0.298 N 
ATOM     34  C   UNL     1      34.889 -23.809 -14.979  0.00  0.00    +0.264 C 
ATOM     35  C   UNL     1      36.278 -23.528 -12.909  0.00  0.00    +0.111 C 
ATOM     36  H   UNL     1      34.368 -22.749 -13.294  0.00  0.00    +0.150 HD
ENDBRANCH  30  34
ENDBRANCH  25  27
ENDBRANCH   7  25
TORSDOF 6
ENDMDL
