MODEL 1
REMARK VINA RESULT:     -12.0      0.000      0.000
REMARK  Name = 54671008
REMARK  7 active torsions:
REMARK  status: ('A' for Active; 'I' for Inactive)
REMARK    1  A    between atoms: C_4  and  C_21
REMARK    2  A    between atoms: C_6  and  C_11
REMARK    3  A    between atoms: C_8  and  O_34
REMARK    4  A    between atoms: N_10  and  C_13
REMARK    5  A    between atoms: C_13  and  C_15
REMARK    6  A    between atoms: C_21  and  N_25
REMARK    7  A    between atoms: C_26  and  C_31
REMARK                            x       y       z     vdW  Elec       q    Type
REMARK                         _______ _______ _______ _____ _____    ______ ____
ROOT
ATOM      1  O   UNL     1      29.792 -22.528 -17.427  0.00  0.00    -0.271 OA
ATOM      2  N   UNL     1      30.948 -23.337 -15.558  0.00  0.00    -0.232 N 
ATOM      3  N   UNL     1      33.324 -23.406 -15.608  0.00  0.00    -0.386 NA
ATOM      4  C   UNL     1      32.195 -23.613 -15.003  0.00  0.00    +0.182 C 
ATOM      5  C   UNL     1      30.840 -22.804 -16.846  0.00  0.00    +0.265 C 
ATOM      6  C   UNL     1      33.265 -22.882 -16.870  0.00  0.00    +0.199 C 
ATOM      7  C   UNL     1      29.738 -23.609 -14.785  0.00  0.00    +0.122 C 
ATOM      8  C   UNL     1      32.141 -22.569 -17.530  0.00  0.00    +0.245 C 
ENDROOT
BRANCH   6  11
ATOM      9  O   UNL     1      35.602 -23.052 -17.026  0.00  0.00    -0.268 OA
ATOM     10  N   UNL     1      34.432 -21.977 -18.731  0.00  0.00    -0.295 N 
ATOM     11  C   UNL     1      34.556 -22.656 -17.534  0.00  0.00    +0.275 C 
ATOM     12  H   UNL     1      33.531 -21.713 -19.028  0.00  0.00    +0.150 HD
BRANCH  10  13
ATOM     13  C   UNL     1      35.559 -21.635 -19.569  0.00  0.00    +0.117 C 
BRANCH  13  15
ATOM     14  F   UNL     1      34.456 -17.225 -22.891  0.00  0.00    -0.204 F 
ATOM     15  C   UNL     1      35.264 -20.459 -20.455  0.00  0.00    -0.002 C 
ATOM     16  C   UNL     1      36.295 -19.600 -20.838  0.00  0.00    -0.000 C 
ATOM     17  C   UNL     1      33.962 -20.225 -20.895  0.00  0.00    -0.000 C 
ATOM     18  C   UNL     1      36.021 -18.507 -21.661  0.00  0.00    +0.029 C 
ATOM     19  C   UNL     1      33.688 -19.132 -21.717  0.00  0.00    +0.029 C 
ATOM     20  C   UNL     1      34.718 -18.273 -22.100  0.00  0.00    +0.140 C 
ENDBRANCH  13  15
ENDBRANCH  10  13
ENDBRANCH   6  11
BRANCH   4  21
ATOM     21  C   UNL     1      32.240 -24.189 -13.608  0.00  0.00    +0.117 C 
ATOM     22  C   UNL     1      32.049 -23.077 -12.586  0.00  0.00    +0.028 C 
ATOM     23  C   UNL     1      31.177 -25.269 -13.461  0.00  0.00    +0.028 C 
BRANCH  21  25
ATOM     24  O   UNL     1      34.249 -23.557 -11.656  0.00  0.00    -0.265 OA
ATOM     25  N   UNL     1      33.565 -24.748 -13.525  0.00  0.00    -0.293 N 
ATOM     26  C   UNL     1      34.472 -24.379 -12.540  0.00  0.00    +0.302 C 
ATOM     27  H   UNL     1      33.838 -25.419 -14.193  0.00  0.00    +0.150 HD
BRANCH  26  31
ATOM     28  O   UNL     1      36.644 -24.756 -13.646  0.00  0.00    -0.416 OA
ATOM     29  N   UNL     1      36.303 -25.882 -11.743  0.00  0.00    -0.102 NA
ATOM     30  N   UNL     1      37.558 -26.213 -12.216  0.00  0.00    -0.111 NA
ATOM     31  C   UNL     1      35.806 -25.029 -12.608  0.00  0.00    +0.304 A 
ATOM     32  C   UNL     1      37.715 -25.533 -13.327  0.00  0.00    +0.227 A 
ATOM     33  C   UNL     1      38.857 -25.496 -14.250  0.00  0.00    +0.097 C 
ENDBRANCH  26  31
ENDBRANCH  21  25
ENDBRANCH   4  21
BRANCH   8  34
ATOM     34  O   UNL     1      32.124 -22.044 -18.802  0.00  0.00    -0.370 OA
ATOM     35  H   UNL     1      31.319 -21.740 -19.173  0.00  0.00    +0.211 HD
ENDBRANCH   8  34
TORSDOF 7
ENDMDL
MODEL 2
REMARK VINA RESULT:     -11.7      1.219      1.279
REMARK  Name = 54671008
REMARK  7 active torsions:
REMARK  status: ('A' for Active; 'I' for Inactive)
REMARK    1  A    between atoms: C_4  and  C_21
REMARK    2  A    between atoms: C_6  and  C_11
REMARK    3  A    between atoms: C_8  and  O_34
REMARK    4  A    between atoms: N_10  and  C_13
REMARK    5  A    between atoms: C_13  and  C_15
REMARK    6  A    between atoms: C_21  and  N_25
REMARK    7  A    between atoms: C_26  and  C_31
REMARK                            x       y       z     vdW  Elec       q    Type
REMARK                         _______ _______ _______ _____ _____    ______ ____
ROOT
ATOM      1  O   UNL     1      29.660 -22.290 -16.920  0.00  0.00    -0.271 OA
ATOM      2  N   UNL     1      31.290 -23.248 -15.539  0.00  0.00    -0.232 N 
ATOM      3  N   UNL     1      33.509 -23.483 -16.358  0.00  0.00    -0.386 NA
ATOM      4  C   UNL     1      32.624 -23.632 -15.422  0.00  0.00    +0.182 C 
ATOM      5  C   UNL     1      30.815 -22.661 -16.715  0.00  0.00    +0.265 C 
ATOM      6  C   UNL     1      33.087 -22.910 -17.527  0.00  0.00    +0.199 C 
ATOM      7  C   UNL     1      30.377 -23.462 -14.418  0.00  0.00    +0.122 C 
ATOM      8  C   UNL     1      31.839 -22.493 -17.782  0.00  0.00    +0.245 C 
ENDROOT
BRANCH   6  11
ATOM      9  O   UNL     1      34.124 -23.489 -19.553  0.00  0.00    -0.268 OA
ATOM     10  N   UNL     1      34.991 -21.720 -18.306  0.00  0.00    -0.295 N 
ATOM     11  C   UNL     1      34.109 -22.750 -18.571  0.00  0.00    +0.275 C 
ATOM     12  H   UNL     1      34.869 -21.201 -17.478  0.00  0.00    +0.150 HD
BRANCH  10  13
ATOM     13  C   UNL     1      36.084 -21.367 -19.183  0.00  0.00    +0.117 C 
BRANCH  13  15
ATOM     14  F   UNL     1      34.535 -17.598 -23.068  0.00  0.00    -0.204 F 
ATOM     15  C   UNL     1      35.671 -20.362 -20.220  0.00  0.00    -0.002 C 
ATOM     16  C   UNL     1      36.629 -19.546 -20.821  0.00  0.00    -0.000 C 
ATOM     17  C   UNL     1      34.329 -20.244 -20.581  0.00  0.00    -0.000 C 
ATOM     18  C   UNL     1      36.245 -18.613 -21.783  0.00  0.00    +0.029 C 
ATOM     19  C   UNL     1      33.944 -19.310 -21.543  0.00  0.00    +0.029 C 
ATOM     20  C   UNL     1      34.903 -18.494 -22.144  0.00  0.00    +0.140 C 
ENDBRANCH  13  15
ENDBRANCH  10  13
ENDBRANCH   6  11
BRANCH   4  21
ATOM     21  C   UNL     1      33.072 -24.261 -14.125  0.00  0.00    +0.117 C 
ATOM     22  C   UNL     1      33.245 -23.184 -13.063  0.00  0.00    +0.028 C 
ATOM     23  C   UNL     1      32.064 -25.316 -13.688  0.00  0.00    +0.028 C 
BRANCH  21  25
ATOM     24  O   UNL     1      35.240 -24.836 -12.332  0.00  0.00    -0.265 OA
ATOM     25  N   UNL     1      34.336 -24.860 -14.468  0.00  0.00    -0.293 N 
ATOM     26  C   UNL     1      35.329 -25.101 -13.528  0.00  0.00    +0.302 C 
ATOM     27  H   UNL     1      34.502 -25.109 -15.407  0.00  0.00    +0.150 HD
BRANCH  26  31
ATOM     28  O   UNL     1      37.777 -25.081 -13.828  0.00  0.00    -0.416 OA
ATOM     29  N   UNL     1      36.692 -26.817 -14.730  0.00  0.00    -0.102 NA
ATOM     30  N   UNL     1      38.039 -26.971 -14.994  0.00  0.00    -0.111 NA
ATOM     31  C   UNL     1      36.585 -25.701 -14.047  0.00  0.00    +0.304 A 
ATOM     32  C   UNL     1      38.634 -25.936 -14.450  0.00  0.00    +0.227 A 
ATOM     33  C   UNL     1      40.059 -25.583 -14.419  0.00  0.00    +0.097 C 
ENDBRANCH  26  31
ENDBRANCH  21  25
ENDBRANCH   4  21
BRANCH   8  34
ATOM     34  O   UNL     1      31.454 -21.921 -18.973  0.00  0.00    -0.370 OA
ATOM     35  H   UNL     1      30.792 -21.259 -18.981  0.00  0.00    +0.211 HD
ENDBRANCH   8  34
TORSDOF 7
ENDMDL
MODEL 3
REMARK VINA RESULT:     -11.7      7.858     13.388
REMARK  Name = 54671008
REMARK  7 active torsions:
REMARK  status: ('A' for Active; 'I' for Inactive)
REMARK    1  A    between atoms: C_4  and  C_21
REMARK    2  A    between atoms: C_6  and  C_11
REMARK    3  A    between atoms: C_8  and  O_34
REMARK    4  A    between atoms: N_10  and  C_13
REMARK    5  A    between atoms: C_13  and  C_15
REMARK    6  A    between atoms: C_21  and  N_25
REMARK    7  A    between atoms: C_26  and  C_31
REMARK                            x       y       z     vdW  Elec       q    Type
REMARK                         _______ _______ _______ _____ _____    ______ ____
ROOT
ATOM      1  O   UNL     1      33.048 -15.671 -27.578  0.00  0.00    -0.271 OA
ATOM      2  N   UNL     1      33.264 -14.568 -25.525  0.00  0.00    -0.232 N 
ATOM      3  N   UNL     1      34.203 -15.732 -23.678  0.00  0.00    -0.386 NA
ATOM      4  C   UNL     1      33.682 -14.665 -24.200  0.00  0.00    +0.182 C 
ATOM      5  C   UNL     1      33.387 -15.653 -26.396  0.00  0.00    +0.265 C 
ATOM      6  C   UNL     1      34.344 -16.819 -24.496  0.00  0.00    +0.199 C 
ATOM      7  C   UNL     1      32.690 -13.314 -26.009  0.00  0.00    +0.122 C 
ATOM      8  C   UNL     1      33.988 -16.872 -25.787  0.00  0.00    +0.245 C 
ENDROOT
BRANCH   6  11
ATOM      9  O   UNL     1      34.869 -19.108 -24.439  0.00  0.00    -0.268 OA
ATOM     10  N   UNL     1      35.545 -17.750 -22.669  0.00  0.00    -0.295 N 
ATOM     11  C   UNL     1      34.939 -18.015 -23.882  0.00  0.00    +0.275 C 
ATOM     12  H   UNL     1      35.531 -16.825 -22.331  0.00  0.00    +0.150 HD
BRANCH  10  13
ATOM     13  C   UNL     1      36.199 -18.763 -21.872  0.00  0.00    +0.117 C 
BRANCH  13  15
ATOM     14  F   UNL     1      32.506 -21.912 -19.018  0.00  0.00    -0.204 F 
ATOM     15  C   UNL     1      35.214 -19.602 -21.110  0.00  0.00    -0.002 C 
ATOM     16  C   UNL     1      35.667 -20.628 -20.281  0.00  0.00    -0.000 C 
ATOM     17  C   UNL     1      33.846 -19.357 -21.233  0.00  0.00    -0.000 C 
ATOM     18  C   UNL     1      34.752 -21.408 -19.574  0.00  0.00    +0.029 C 
ATOM     19  C   UNL     1      32.932 -20.138 -20.527  0.00  0.00    +0.029 C 
ATOM     20  C   UNL     1      33.385 -21.163 -19.697  0.00  0.00    +0.140 C 
ENDBRANCH  13  15
ENDBRANCH  10  13
ENDBRANCH   6  11
BRANCH   4  21
ATOM     21  C   UNL     1      33.520 -13.455 -23.311  0.00  0.00    +0.117 C 
ATOM     22  C   UNL     1      32.042 -13.206 -23.047  0.00  0.00    +0.028 C 
ATOM     23  C   UNL     1      34.291 -13.662 -22.015  0.00  0.00    +0.028 C 
BRANCH  21  25
ATOM     24  O   UNL     1      32.898 -10.659 -23.123  0.00  0.00    -0.265 OA
ATOM     25  N   UNL     1      34.095 -12.392 -24.095  0.00  0.00    -0.293 N 
ATOM     26  C   UNL     1      33.730 -11.063 -23.931  0.00  0.00    +0.302 C 
ATOM     27  H   UNL     1      34.774 -12.618 -24.772  0.00  0.00    +0.150 HD
BRANCH  26  31
ATOM     28  O   UNL     1      33.786  -8.909 -25.132  0.00  0.00    -0.416 OA
ATOM     29  N   UNL     1      35.565 -10.237 -25.413  0.00  0.00    -0.102 NA
ATOM     30  N   UNL     1      35.769  -9.087 -26.152  0.00  0.00    -0.111 NA
ATOM     31  C   UNL     1      34.396 -10.089 -24.835  0.00  0.00    +0.304 A 
ATOM     32  C   UNL     1      34.707  -8.341 -25.959  0.00  0.00    +0.227 A 
ATOM     33  C   UNL     1      34.383  -7.014 -26.497  0.00  0.00    +0.097 C 
ENDBRANCH  26  31
ENDBRANCH  21  25
ENDBRANCH   4  21
BRANCH   8  34
ATOM     34  O   UNL     1      34.146 -17.987 -26.578  0.00  0.00    -0.370 OA
ATOM     35  H   UNL     1      33.398 -18.395 -26.967  0.00  0.00    +0.211 HD
ENDBRANCH   8  34
TORSDOF 7
ENDMDL
MODEL 4
REMARK VINA RESULT:     -11.7      5.946     10.114
REMARK  Name = 54671008
REMARK  7 active torsions:
REMARK  status: ('A' for Active; 'I' for Inactive)
REMARK    1  A    between atoms: C_4  and  C_21
REMARK    2  A    between atoms: C_6  and  C_11
REMARK    3  A    between atoms: C_8  and  O_34
REMARK    4  A    between atoms: N_10  and  C_13
REMARK    5  A    between atoms: C_13  and  C_15
REMARK    6  A    between atoms: C_21  and  N_25
REMARK    7  A    between atoms: C_26  and  C_31
REMARK                            x       y       z     vdW  Elec       q    Type
REMARK                         _______ _______ _______ _____ _____    ______ ____
ROOT
ATOM      1  O   UNL     1      32.871 -18.886 -26.487  0.00  0.00    -0.271 OA
ATOM      2  N   UNL     1      33.980 -18.327 -24.502  0.00  0.00    -0.232 N 
ATOM      3  N   UNL     1      34.053 -16.052 -23.818  0.00  0.00    -0.386 NA
ATOM      4  C   UNL     1      34.349 -17.302 -23.635  0.00  0.00    +0.182 C 
ATOM      5  C   UNL     1      33.244 -18.056 -25.659  0.00  0.00    +0.265 C 
ATOM      6  C   UNL     1      33.331 -15.742 -24.937  0.00  0.00    +0.199 C 
ATOM      7  C   UNL     1      34.366 -19.703 -24.197  0.00  0.00    +0.122 C 
ATOM      8  C   UNL     1      32.908 -16.620 -25.858  0.00  0.00    +0.245 C 
ENDROOT
BRANCH   6  11
ATOM      9  O   UNL     1      32.976 -13.823 -26.244  0.00  0.00    -0.268 OA
ATOM     10  N   UNL     1      32.761 -13.667 -23.928  0.00  0.00    -0.295 N 
ATOM     11  C   UNL     1      33.007 -14.320 -25.122  0.00  0.00    +0.275 C 
ATOM     12  H   UNL     1      32.819 -14.183 -23.092  0.00  0.00    +0.150 HD
BRANCH  10  13
ATOM     13  C   UNL     1      32.422 -12.265 -23.848  0.00  0.00    +0.117 C 
BRANCH  13  15
ATOM     14  F   UNL     1      31.137 -10.704 -18.593  0.00  0.00    -0.204 F 
ATOM     15  C   UNL     1      32.079 -11.848 -22.446  0.00  0.00    -0.002 C 
ATOM     16  C   UNL     1      32.043 -12.799 -21.426  0.00  0.00    -0.000 C 
ATOM     17  C   UNL     1      31.797 -10.512 -22.165  0.00  0.00    -0.000 C 
ATOM     18  C   UNL     1      31.724 -12.412 -20.125  0.00  0.00    +0.029 C 
ATOM     19  C   UNL     1      31.479 -10.125 -20.863  0.00  0.00    +0.029 C 
ATOM     20  C   UNL     1      31.442 -11.075 -19.843  0.00  0.00    +0.140 C 
ENDBRANCH  13  15
ENDBRANCH  10  13
ENDBRANCH   6  11
BRANCH   4  21
ATOM     21  C   UNL     1      35.144 -17.663 -22.403  0.00  0.00    +0.117 C 
ATOM     22  C   UNL     1      36.508 -18.202 -22.811  0.00  0.00    +0.028 C 
ATOM     23  C   UNL     1      35.274 -16.445 -21.499  0.00  0.00    +0.028 C 
BRANCH  21  25
ATOM     24  O   UNL     1      35.915 -19.346 -20.209  0.00  0.00    -0.265 OA
ATOM     25  N   UNL     1      34.344 -18.688 -21.783  0.00  0.00    -0.293 N 
ATOM     26  C   UNL     1      34.804 -19.454 -20.722  0.00  0.00    +0.302 C 
ATOM     27  H   UNL     1      33.435 -18.850 -22.126  0.00  0.00    +0.150 HD
BRANCH  26  31
ATOM     28  O   UNL     1      34.279 -21.370 -19.259  0.00  0.00    -0.416 OA
ATOM     29  N   UNL     1      32.622 -20.665 -20.586  0.00  0.00    -0.102 NA
ATOM     30  N   UNL     1      32.151 -21.733 -19.846  0.00  0.00    -0.111 NA
ATOM     31  C   UNL     1      33.867 -20.488 -20.211  0.00  0.00    +0.304 A 
ATOM     32  C   UNL     1      33.151 -22.112 -19.086  0.00  0.00    +0.227 A 
ATOM     33  C   UNL     1      33.220 -23.199 -18.101  0.00  0.00    +0.097 C 
ENDBRANCH  26  31
ENDBRANCH  21  25
ENDBRANCH   4  21
BRANCH   8  34
ATOM     34  O   UNL     1      32.183 -16.267 -26.973  0.00  0.00    -0.370 OA
ATOM     35  H   UNL     1      32.612 -15.862 -27.701  0.00  0.00    +0.211 HD
ENDBRANCH   8  34
TORSDOF 7
ENDMDL
MODEL 5
REMARK VINA RESULT:     -11.5      7.542     12.051
REMARK  Name = 54671008
REMARK  7 active torsions:
REMARK  status: ('A' for Active; 'I' for Inactive)
REMARK    1  A    between atoms: C_4  and  C_21
REMARK    2  A    between atoms: C_6  and  C_11
REMARK    3  A    between atoms: C_8  and  O_34
REMARK    4  A    between atoms: N_10  and  C_13
REMARK    5  A    between atoms: C_13  and  C_15
REMARK    6  A    between atoms: C_21  and  N_25
REMARK    7  A    between atoms: C_26  and  C_31
REMARK                            x       y       z     vdW  Elec       q    Type
REMARK                         _______ _______ _______ _____ _____    ______ ____
ROOT
ATOM      1  O   UNL     1      32.975 -12.342 -26.777  0.00  0.00    -0.271 OA
ATOM      2  N   UNL     1      33.126 -14.586 -26.129  0.00  0.00    -0.232 N 
ATOM      3  N   UNL     1      33.154 -15.123 -23.813  0.00  0.00    -0.386 NA
ATOM      4  C   UNL     1      33.183 -15.478 -25.061  0.00  0.00    +0.182 C 
ATOM      5  C   UNL     1      33.029 -13.210 -25.908  0.00  0.00    +0.265 C 
ATOM      6  C   UNL     1      33.058 -13.784 -23.551  0.00  0.00    +0.199 C 
ATOM      7  C   UNL     1      33.165 -15.097 -27.498  0.00  0.00    +0.122 C 
ATOM      8  C   UNL     1      32.994 -12.814 -24.473  0.00  0.00    +0.245 C 
ENDROOT
BRANCH   6  11
ATOM      9  O   UNL     1      33.926 -13.747 -21.369  0.00  0.00    -0.268 OA
ATOM     10  N   UNL     1      31.905 -12.667 -21.799  0.00  0.00    -0.295 N 
ATOM     11  C   UNL     1      33.024 -13.407 -22.130  0.00  0.00    +0.275 C 
ATOM     12  H   UNL     1      31.253 -12.461 -22.507  0.00  0.00    +0.150 HD
BRANCH  10  13
ATOM     13  C   UNL     1      31.645 -12.179 -20.463  0.00  0.00    +0.117 C 
BRANCH  13  15
ATOM     14  F   UNL     1      31.201  -6.569 -20.316  0.00  0.00    -0.204 F 
ATOM     15  C   UNL     1      31.527 -10.683 -20.424  0.00  0.00    -0.002 C 
ATOM     16  C   UNL     1      31.363 -10.028 -19.203  0.00  0.00    -0.000 C 
ATOM     17  C   UNL     1      31.580  -9.947 -21.608  0.00  0.00    -0.000 C 
ATOM     18  C   UNL     1      31.252  -8.639 -19.167  0.00  0.00    +0.029 C 
ATOM     19  C   UNL     1      31.470  -8.558 -21.571  0.00  0.00    +0.029 C 
ATOM     20  C   UNL     1      31.306  -7.903 -20.351  0.00  0.00    +0.140 C 
ENDBRANCH  13  15
ENDBRANCH  10  13
ENDBRANCH   6  11
BRANCH   4  21
ATOM     21  C   UNL     1      33.287 -16.952 -25.369  0.00  0.00    +0.117 C 
ATOM     22  C   UNL     1      31.999 -17.433 -26.022  0.00  0.00    +0.028 C 
ATOM     23  C   UNL     1      34.493 -17.208 -26.263  0.00  0.00    +0.028 C 
BRANCH  21  25
ATOM     24  O   UNL     1      34.419 -19.531 -24.810  0.00  0.00    -0.265 OA
ATOM     25  N   UNL     1      33.466 -17.549 -24.071  0.00  0.00    -0.293 N 
ATOM     26  C   UNL     1      34.026 -18.808 -23.898  0.00  0.00    +0.302 C 
ATOM     27  H   UNL     1      33.181 -17.044 -23.275  0.00  0.00    +0.150 HD
BRANCH  26  31
ATOM     28  O   UNL     1      33.026 -19.834 -21.890  0.00  0.00    -0.416 OA
ATOM     29  N   UNL     1      35.182 -19.258 -21.728  0.00  0.00    -0.102 NA
ATOM     30  N   UNL     1      34.796 -19.812 -20.522  0.00  0.00    -0.111 NA
ATOM     31  C   UNL     1      34.118 -19.292 -22.496  0.00  0.00    +0.304 A 
ATOM     32  C   UNL     1      33.531 -20.133 -20.662  0.00  0.00    +0.227 A 
ATOM     33  C   UNL     1      32.610 -20.754 -19.702  0.00  0.00    +0.097 C 
ENDBRANCH  26  31
ENDBRANCH  21  25
ENDBRANCH   4  21
BRANCH   8  34
ATOM     34  O   UNL     1      32.899 -11.475 -24.167  0.00  0.00    -0.370 OA
ATOM     35  H   UNL     1      32.058 -11.066 -24.113  0.00  0.00    +0.211 HD
ENDBRANCH   8  34
TORSDOF 7
ENDMDL
MODEL 6
REMARK VINA RESULT:     -11.5      6.583     10.811
REMARK  Name = 54671008
REMARK  7 active torsions:
REMARK  status: ('A' for Active; 'I' for Inactive)
REMARK    1  A    between atoms: C_4  and  C_21
REMARK    2  A    between atoms: C_6  and  C_11
REMARK    3  A    between atoms: C_8  and  O_34
REMARK    4  A    between atoms: N_10  and  C_13
REMARK    5  A    between atoms: C_13  and  C_15
REMARK    6  A    between atoms: C_21  and  N_25
REMARK    7  A    between atoms: C_26  and  C_31
REMARK                            x       y       z     vdW  Elec       q    Type
REMARK                         _______ _______ _______ _____ _____    ______ ____
ROOT
ATOM      1  O   UNL     1      32.101 -19.127 -26.504  0.00  0.00    -0.271 OA
ATOM      2  N   UNL     1      33.378 -18.162 -24.796  0.00  0.00    -0.232 N 
ATOM      3  N   UNL     1      33.908 -15.847 -24.914  0.00  0.00    -0.386 NA
ATOM      4  C   UNL     1      33.971 -16.996 -24.315  0.00  0.00    +0.182 C 
ATOM      5  C   UNL     1      32.658 -18.156 -25.994  0.00  0.00    +0.265 C 
ATOM      6  C   UNL     1      33.211 -15.796 -26.090  0.00  0.00    +0.199 C 
ATOM      7  C   UNL     1      33.511 -19.404 -24.037  0.00  0.00    +0.122 C 
ATOM      8  C   UNL     1      32.592 -16.833 -26.671  0.00  0.00    +0.245 C 
ENDROOT
BRANCH   6  11
ATOM      9  O   UNL     1      33.676 -14.308 -27.846  0.00  0.00    -0.268 OA
ATOM     10  N   UNL     1      32.475 -13.539 -26.001  0.00  0.00    -0.295 N 
ATOM     11  C   UNL     1      33.154 -14.483 -26.748  0.00  0.00    +0.275 C 
ATOM     12  H   UNL     1      32.102 -13.809 -25.132  0.00  0.00    +0.150 HD
BRANCH  10  13
ATOM     13  C   UNL     1      32.285 -12.173 -26.436  0.00  0.00    +0.117 C 
BRANCH  13  15
ATOM     14  F   UNL     1      35.791  -8.623 -23.827  0.00  0.00    -0.204 F 
ATOM     15  C   UNL     1      33.220 -11.227 -25.740  0.00  0.00    -0.002 C 
ATOM     16  C   UNL     1      32.847 -10.641 -24.531  0.00  0.00    -0.000 C 
ATOM     17  C   UNL     1      34.462 -10.932 -26.303  0.00  0.00    -0.000 C 
ATOM     18  C   UNL     1      33.715  -9.761 -23.885  0.00  0.00    +0.029 C 
ATOM     19  C   UNL     1      35.330 -10.053 -25.657  0.00  0.00    +0.029 C 
ATOM     20  C   UNL     1      34.956  -9.467 -24.448  0.00  0.00    +0.140 C 
ENDBRANCH  13  15
ENDBRANCH  10  13
ENDBRANCH   6  11
BRANCH   4  21
ATOM     21  C   UNL     1      34.735 -17.071 -23.015  0.00  0.00    +0.117 C 
ATOM     22  C   UNL     1      36.197 -17.387 -23.295  0.00  0.00    +0.028 C 
ATOM     23  C   UNL     1      34.584 -15.761 -22.253  0.00  0.00    +0.028 C 
BRANCH  21  25
ATOM     24  O   UNL     1      35.642 -18.329 -20.599  0.00  0.00    -0.265 OA
ATOM     25  N   UNL     1      34.093 -18.155 -22.317  0.00  0.00    -0.293 N 
ATOM     26  C   UNL     1      34.609 -18.701 -21.150  0.00  0.00    +0.302 C 
ATOM     27  H   UNL     1      33.255 -18.523 -22.683  0.00  0.00    +0.150 HD
BRANCH  26  31
ATOM     28  O   UNL     1      34.455 -20.707 -19.723  0.00  0.00    -0.416 OA
ATOM     29  N   UNL     1      32.575 -20.105 -20.776  0.00  0.00    -0.102 NA
ATOM     30  N   UNL     1      32.304 -21.237 -20.031  0.00  0.00    -0.111 NA
ATOM     31  C   UNL     1      33.841 -19.832 -20.566  0.00  0.00    +0.304 A 
ATOM     32  C   UNL     1      33.429 -21.553 -19.434  0.00  0.00    +0.227 A 
ATOM     33  C   UNL     1      33.725 -22.664 -18.520  0.00  0.00    +0.097 C 
ENDBRANCH  26  31
ENDBRANCH  21  25
ENDBRANCH   4  21
BRANCH   8  34
ATOM     34  O   UNL     1      31.900 -16.740 -27.858  0.00  0.00    -0.370 OA
ATOM     35  H   UNL     1      31.646 -17.519 -28.314  0.00  0.00    +0.211 HD
ENDBRANCH   8  34
TORSDOF 7
ENDMDL
MODEL 7
REMARK VINA RESULT:     -11.4      7.911     13.526
REMARK  Name = 54671008
REMARK  7 active torsions:
REMARK  status: ('A' for Active; 'I' for Inactive)
REMARK    1  A    between atoms: C_4  and  C_21
REMARK    2  A    between atoms: C_6  and  C_11
REMARK    3  A    between atoms: C_8  and  O_34
REMARK    4  A    between atoms: N_10  and  C_13
REMARK    5  A    between atoms: C_13  and  C_15
REMARK    6  A    between atoms: C_21  and  N_25
REMARK    7  A    between atoms: C_26  and  C_31
REMARK                            x       y       z     vdW  Elec       q    Type
REMARK                         _______ _______ _______ _____ _____    ______ ____
ROOT
ATOM      1  O   UNL     1      31.964 -17.861 -26.956  0.00  0.00    -0.271 OA
ATOM      2  N   UNL     1      32.418 -15.570 -26.793  0.00  0.00    -0.232 N 
ATOM      3  N   UNL     1      33.687 -14.769 -24.949  0.00  0.00    -0.386 NA
ATOM      4  C   UNL     1      33.033 -14.565 -26.051  0.00  0.00    +0.182 C 
ATOM      5  C   UNL     1      32.473 -16.903 -26.377  0.00  0.00    +0.265 C 
ATOM      6  C   UNL     1      33.768 -16.061 -24.506  0.00  0.00    +0.199 C 
ATOM      7  C   UNL     1      31.707 -15.226 -28.023  0.00  0.00    +0.122 C 
ATOM      8  C   UNL     1      33.227 -17.127 -25.113  0.00  0.00    +0.245 C 
ENDROOT
BRANCH   6  11
ATOM      9  O   UNL     1      34.510 -15.415 -22.374  0.00  0.00    -0.268 OA
ATOM     10  N   UNL     1      35.181 -17.478 -23.225  0.00  0.00    -0.295 N 
ATOM     11  C   UNL     1      34.515 -16.268 -23.257  0.00  0.00    +0.275 C 
ATOM     12  H   UNL     1      35.103 -18.076 -24.003  0.00  0.00    +0.150 HD
BRANCH  10  13
ATOM     13  C   UNL     1      35.985 -17.911 -22.104  0.00  0.00    +0.117 C 
BRANCH  13  15
ATOM     14  F   UNL     1      33.517 -22.068 -19.219  0.00  0.00    -0.204 F 
ATOM     15  C   UNL     1      35.326 -19.019 -21.334  0.00  0.00    -0.002 C 
ATOM     16  C   UNL     1      36.102 -19.905 -20.587  0.00  0.00    -0.000 C 
ATOM     17  C   UNL     1      33.939 -19.164 -21.367  0.00  0.00    -0.000 C 
ATOM     18  C   UNL     1      35.491 -20.935 -19.873  0.00  0.00    +0.029 C 
ATOM     19  C   UNL     1      33.328 -20.194 -20.653  0.00  0.00    +0.029 C 
ATOM     20  C   UNL     1      34.104 -21.080 -19.906  0.00  0.00    +0.140 C 
ENDBRANCH  13  15
ENDBRANCH  10  13
ENDBRANCH   6  11
BRANCH   4  21
ATOM     21  C   UNL     1      32.935 -13.145 -26.557  0.00  0.00    +0.117 C 
ATOM     22  C   UNL     1      34.202 -12.783 -27.320  0.00  0.00    +0.028 C 
ATOM     23  C   UNL     1      31.697 -12.993 -27.429  0.00  0.00    +0.028 C 
BRANCH  21  25
ATOM     24  O   UNL     1      32.891 -10.282 -26.351  0.00  0.00    -0.265 OA
ATOM     25  N   UNL     1      32.818 -12.372 -25.347  0.00  0.00    -0.293 N 
ATOM     26  C   UNL     1      32.805 -10.984 -25.347  0.00  0.00    +0.302 C 
ATOM     27  H   UNL     1      32.743 -12.847 -24.488  0.00  0.00    +0.150 HD
BRANCH  26  31
ATOM     28  O   UNL     1      33.093  -9.040 -23.856  0.00  0.00    -0.416 OA
ATOM     29  N   UNL     1      32.261 -10.888 -22.909  0.00  0.00    -0.102 NA
ATOM     30  N   UNL     1      32.352  -9.913 -21.934  0.00  0.00    -0.111 NA
ATOM     31  C   UNL     1      32.704 -10.335 -24.014  0.00  0.00    +0.304 A 
ATOM     32  C   UNL     1      32.842  -8.852 -22.532  0.00  0.00    +0.227 A 
ATOM     33  C   UNL     1      33.149  -7.525 -21.982  0.00  0.00    +0.097 C 
ENDBRANCH  26  31
ENDBRANCH  21  25
ENDBRANCH   4  21
BRANCH   8  34
ATOM     34  O   UNL     1      33.331 -18.412 -24.633  0.00  0.00    -0.370 OA
ATOM     35  H   UNL     1      32.612 -18.800 -24.174  0.00  0.00    +0.211 HD
ENDBRANCH   8  34
TORSDOF 7
ENDMDL
MODEL 8
REMARK VINA RESULT:     -11.1      9.646     14.145
REMARK  Name = 54671008
REMARK  7 active torsions:
REMARK  status: ('A' for Active; 'I' for Inactive)
REMARK    1  A    between atoms: C_4  and  C_21
REMARK    2  A    between atoms: C_6  and  C_11
REMARK    3  A    between atoms: C_8  and  O_34
REMARK    4  A    between atoms: N_10  and  C_13
REMARK    5  A    between atoms: C_13  and  C_15
REMARK    6  A    between atoms: C_21  and  N_25
REMARK    7  A    between atoms: C_26  and  C_31
REMARK                            x       y       z     vdW  Elec       q    Type
REMARK                         _______ _______ _______ _____ _____    ______ ____
ROOT
ATOM      1  O   UNL     1      30.906  -8.762 -21.232  0.00  0.00    -0.271 OA
ATOM      2  N   UNL     1      32.036  -9.665 -23.072  0.00  0.00    -0.232 N 
ATOM      3  N   UNL     1      32.893 -11.878 -22.933  0.00  0.00    -0.386 NA
ATOM      4  C   UNL     1      32.706 -10.773 -23.586  0.00  0.00    +0.182 C 
ATOM      5  C   UNL     1      31.509  -9.684 -21.778  0.00  0.00    +0.265 C 
ATOM      6  C   UNL     1      32.392 -11.941 -21.662  0.00  0.00    +0.199 C 
ATOM      7  C   UNL     1      31.881  -8.469 -23.898  0.00  0.00    +0.122 C 
ATOM      8  C   UNL     1      31.728 -10.957 -21.038  0.00  0.00    +0.245 C 
ENDROOT
BRANCH   6  11
ATOM      9  O   UNL     1      31.743 -13.677 -20.220  0.00  0.00    -0.268 OA
ATOM     10  N   UNL     1      33.865 -13.742 -21.182  0.00  0.00    -0.295 N 
ATOM     11  C   UNL     1      32.615 -13.204 -20.943  0.00  0.00    +0.275 C 
ATOM     12  H   UNL     1      34.475 -13.260 -21.786  0.00  0.00    +0.150 HD
BRANCH  10  13
ATOM     13  C   UNL     1      34.321 -14.979 -20.589  0.00  0.00    +0.117 C 
BRANCH  13  15
ATOM     14  F   UNL     1      35.203 -18.973 -24.457  0.00  0.00    -0.204 F 
ATOM     15  C   UNL     1      34.556 -16.044 -21.621  0.00  0.00    -0.002 C 
ATOM     16  C   UNL     1      34.848 -17.349 -21.222  0.00  0.00    -0.000 C 
ATOM     17  C   UNL     1      34.483 -15.730 -22.977  0.00  0.00    -0.000 C 
ATOM     18  C   UNL     1      35.067 -18.338 -22.180  0.00  0.00    +0.029 C 
ATOM     19  C   UNL     1      34.702 -16.719 -23.936  0.00  0.00    +0.029 C 
ATOM     20  C   UNL     1      34.994 -18.023 -23.537  0.00  0.00    +0.140 C 
ENDBRANCH  13  15
ENDBRANCH  10  13
ENDBRANCH   6  11
BRANCH   4  21
ATOM     21  C   UNL     1      33.251 -10.686 -24.992  0.00  0.00    +0.117 C 
ATOM     22  C   UNL     1      32.528  -9.586 -25.757  0.00  0.00    +0.028 C 
ATOM     23  C   UNL     1      34.753 -10.439 -24.948  0.00  0.00    +0.028 C 
BRANCH  21  25
ATOM     24  O   UNL     1      34.150 -11.728 -27.511  0.00  0.00    -0.265 OA
ATOM     25  N   UNL     1      32.953 -11.984 -25.541  0.00  0.00    -0.293 N 
ATOM     26  C   UNL     1      33.435 -12.402 -26.774  0.00  0.00    +0.302 C 
ATOM     27  H   UNL     1      32.385 -12.598 -25.021  0.00  0.00    +0.150 HD
BRANCH  26  31
ATOM     28  O   UNL     1      31.718 -14.145 -27.077  0.00  0.00    -0.416 OA
ATOM     29  N   UNL     1      33.787 -14.681 -27.737  0.00  0.00    -0.102 NA
ATOM     30  N   UNL     1      32.967 -15.766 -27.980  0.00  0.00    -0.111 NA
ATOM     31  C   UNL     1      33.016 -13.759 -27.210  0.00  0.00    +0.304 A 
ATOM     32  C   UNL     1      31.769 -15.409 -27.580  0.00  0.00    +0.227 A 
ATOM     33  C   UNL     1      30.511 -16.165 -27.600  0.00  0.00    +0.097 C 
ENDBRANCH  26  31
ENDBRANCH  21  25
ENDBRANCH   4  21
BRANCH   8  34
ATOM     34  O   UNL     1      31.240 -11.060 -19.756  0.00  0.00    -0.370 OA
ATOM     35  H   UNL     1      31.352 -10.351 -19.154  0.00  0.00    +0.211 HD
ENDBRANCH   8  34
TORSDOF 7
ENDMDL
MODEL 9
REMARK VINA RESULT:     -10.6     12.317     16.386
REMARK  Name = 54671008
REMARK  7 active torsions:
REMARK  status: ('A' for Active; 'I' for Inactive)
REMARK    1  A    between atoms: C_4  and  C_21
REMARK    2  A    between atoms: C_6  and  C_11
REMARK    3  A    between atoms: C_8  and  O_34
REMARK    4  A    between atoms: N_10  and  C_13
REMARK    5  A    between atoms: C_13  and  C_15
REMARK    6  A    between atoms: C_21  and  N_25
REMARK    7  A    between atoms: C_26  and  C_31
REMARK                            x       y       z     vdW  Elec       q    Type
REMARK                         _______ _______ _______ _____ _____    ______ ____
ROOT
ATOM      1  O   UNL     1      31.517 -12.173 -20.804  0.00  0.00    -0.271 OA
ATOM      2  N   UNL     1      31.721 -10.106 -21.885  0.00  0.00    -0.232 N 
ATOM      3  N   UNL     1      32.670 -10.028 -24.064  0.00  0.00    -0.386 NA
ATOM      4  C   UNL     1      32.141  -9.441 -23.035  0.00  0.00    +0.182 C 
ATOM      5  C   UNL     1      31.852 -11.493 -21.772  0.00  0.00    +0.265 C 
ATOM      6  C   UNL     1      32.815 -11.387 -23.997  0.00  0.00    +0.199 C 
ATOM      7  C   UNL     1      31.136  -9.343 -20.784  0.00  0.00    +0.122 C 
ATOM      8  C   UNL     1      32.459 -12.156 -22.959  0.00  0.00    +0.245 C 
ENDROOT
BRANCH   6  11
ATOM      9  O   UNL     1      34.501 -11.655 -25.609  0.00  0.00    -0.268 OA
ATOM     10  N   UNL     1      32.631 -13.045 -25.689  0.00  0.00    -0.295 N 
ATOM     11  C   UNL     1      33.415 -12.029 -25.175  0.00  0.00    +0.275 C 
ATOM     12  H   UNL     1      31.777 -13.247 -25.245  0.00  0.00    +0.150 HD
BRANCH  10  13
ATOM     13  C   UNL     1      33.006 -13.826 -26.846  0.00  0.00    +0.117 C 
BRANCH  13  15
ATOM     14  F   UNL     1      31.810 -19.287 -26.181  0.00  0.00    -0.204 F 
ATOM     15  C   UNL     1      32.687 -15.282 -26.669  0.00  0.00    -0.002 C 
ATOM     16  C   UNL     1      33.291 -16.008 -25.642  0.00  0.00    -0.000 C 
ATOM     17  C   UNL     1      31.787 -15.909 -27.530  0.00  0.00    -0.000 C 
ATOM     18  C   UNL     1      32.994 -17.361 -25.478  0.00  0.00    +0.029 C 
ATOM     19  C   UNL     1      31.491 -17.262 -27.366  0.00  0.00    +0.029 C 
ATOM     20  C   UNL     1      32.095 -17.988 -26.339  0.00  0.00    +0.140 C 
ENDBRANCH  13  15
ENDBRANCH  10  13
ENDBRANCH   6  11
BRANCH   4  21
ATOM     21  C   UNL     1      31.971  -7.942 -23.092  0.00  0.00    +0.117 C 
ATOM     22  C   UNL     1      30.492  -7.595 -23.188  0.00  0.00    +0.028 C 
ATOM     23  C   UNL     1      32.614  -7.304 -21.868  0.00  0.00    +0.028 C 
BRANCH  21  25
ATOM     24  O   UNL     1      32.264  -5.296 -24.168  0.00  0.00    -0.265 OA
ATOM     25  N   UNL     1      32.670  -7.576 -24.297  0.00  0.00    -0.293 N 
ATOM     26  C   UNL     1      32.759  -6.264 -24.740  0.00  0.00    +0.302 C 
ATOM     27  H   UNL     1      33.102  -8.286 -24.826  0.00  0.00    +0.150 HD
BRANCH  26  31
ATOM     28  O   UNL     1      34.372  -6.998 -26.456  0.00  0.00    -0.416 OA
ATOM     29  N   UNL     1      33.393  -5.018 -26.811  0.00  0.00    -0.102 NA
ATOM     30  N   UNL     1      34.256  -5.263 -27.863  0.00  0.00    -0.111 NA
ATOM     31  C   UNL     1      33.493  -6.056 -26.015  0.00  0.00    +0.304 A 
ATOM     32  C   UNL     1      34.805  -6.429 -27.614  0.00  0.00    +0.227 A 
ATOM     33  C   UNL     1      35.795  -7.184 -28.391  0.00  0.00    +0.097 C 
ENDBRANCH  26  31
ENDBRANCH  21  25
ENDBRANCH   4  21
BRANCH   8  34
ATOM     34  O   UNL     1      32.622 -13.522 -22.930  0.00  0.00    -0.370 OA
ATOM     35  H   UNL     1      33.142 -13.918 -22.258  0.00  0.00    +0.211 HD
ENDBRANCH   8  34
TORSDOF 7
ENDMDL
