MODEL 1
REMARK VINA RESULT:     -12.1      0.000      0.000
REMARK  Name = 10274777
REMARK  10 active torsions:
REMARK  status: ('A' for Active; 'I' for Inactive)
REMARK    1  A    between atoms: C_2  and  C_25
REMARK    2  A    between atoms: C_5  and  O_10
REMARK    3  A    between atoms: O_10  and  C_11
REMARK    4  A    between atoms: C_11  and  C_12
REMARK    5  A    between atoms: C_12  and  C_15
REMARK    6  A    between atoms: C_17  and  C_19
REMARK    7  A    between atoms: C_25  and  C_26
REMARK    8  A    between atoms: C_26  and  O_27
REMARK    9  A    between atoms: C_26  and  C_30
REMARK   10  A    between atoms: C_30  and  O_31
REMARK                            x       y       z     vdW  Elec       q    Type
REMARK                         _______ _______ _______ _____ _____    ______ ____
ROOT
ATOM      1  S   UNL     1      31.863 -24.035 -14.502  0.00  0.00    -0.087 S 
ATOM      2  C   UNL     1      34.635 -23.816 -14.109  0.00  0.00    -0.013 C 
ATOM      3  C   UNL     1      33.497 -23.684 -14.928  0.00  0.00    +0.029 C 
ATOM      4  C   UNL     1      33.592 -23.229 -16.246  0.00  0.00    +0.040 C 
ATOM      5  C   UNL     1      34.874 -22.897 -16.747  0.00  0.00    +0.139 C 
ATOM      6  C   UNL     1      35.885 -23.480 -14.633  0.00  0.00    -0.001 C 
ATOM      7  C   UNL     1      36.006 -23.026 -15.938  0.00  0.00    +0.037 C 
ATOM      8  C   UNL     1      32.303 -23.182 -16.874  0.00  0.00    +0.010 C 
ATOM      9  C   UNL     1      31.287 -23.590 -16.043  0.00  0.00    +0.036 C 
ENDROOT
BRANCH   5  10
ATOM     10  O   UNL     1      35.034 -22.444 -18.033  0.00  0.00    -0.475 OA
BRANCH  10  11
ATOM     11  C   UNL     1      36.172 -21.631 -18.285  0.00  0.00    +0.213 C 
BRANCH  11  12
ATOM     12  C   UNL     1      36.300 -21.373 -19.784  0.00  0.00    +0.105 C 
BRANCH  12  15
ATOM     13  O   UNL     1      33.654 -19.106 -20.873  0.00  0.00    -0.449 OA
ATOM     14  N   UNL     1      35.903 -19.084 -20.629  0.00  0.00    -0.373 NA
ATOM     15  C   UNL     1      35.387 -20.284 -20.268  0.00  0.00    +0.134 C 
ATOM     16  C   UNL     1      34.041 -20.325 -20.404  0.00  0.00    +0.216 C 
ATOM     17  C   UNL     1      34.825 -18.419 -20.982  0.00  0.00    +0.277 C 
ATOM     18  C   UNL     1      32.987 -21.318 -20.176  0.00  0.00    +0.055 C 
BRANCH  17  19
ATOM     19  C   UNL     1      34.702 -17.073 -21.466  0.00  0.00    +0.066 C 
ATOM     20  C   UNL     1      34.704 -16.817 -22.841  0.00  0.00    +0.006 C 
ATOM     21  C   UNL     1      34.580 -16.010 -20.567  0.00  0.00    +0.006 C 
ATOM     22  C   UNL     1      34.584 -15.511 -23.312  0.00  0.00    +0.000 C 
ATOM     23  C   UNL     1      34.461 -14.702 -21.039  0.00  0.00    +0.000 C 
ATOM     24  C   UNL     1      34.463 -14.452 -22.411  0.00  0.00    +0.000 C 
ENDBRANCH  17  19
ENDBRANCH  12  15
ENDBRANCH  11  12
ENDBRANCH  10  11
ENDBRANCH   5  10
BRANCH   2  25
ATOM     25  C   UNL     1      34.563 -24.299 -12.695  0.00  0.00    +0.068 C 
BRANCH  25  26
ATOM     26  C   UNL     1      35.951 -24.556 -12.090  0.00  0.00    +0.218 C 
BRANCH  26  27
ATOM     27  O   UNL     1      36.103 -25.955 -11.884  0.00  0.00    -0.342 OA
ATOM     28  C   UNL     1      37.164 -26.485 -12.666  0.00  0.00    +0.175 C 
ENDBRANCH  26  27
BRANCH  26  30
ATOM     29  O   UNL     1      35.601 -24.281  -9.699  0.00  0.00    -0.248 OA
ATOM     30  C   UNL     1      36.097 -23.878 -10.743  0.00  0.00    +0.342 C 
BRANCH  30  31
ATOM     31  O   UNL     1      36.867 -22.761 -10.812  0.00  0.00    -0.479 OA
ATOM     32  H   UNL     1      36.498 -21.956 -11.122  0.00  0.00    +0.295 HD
ENDBRANCH  30  31
ENDBRANCH  26  30
ENDBRANCH  25  26
ENDBRANCH   2  25
TORSDOF 10
ENDMDL
MODEL 2
REMARK VINA RESULT:     -11.8      1.506      2.295
REMARK  Name = 10274777
REMARK  10 active torsions:
REMARK  status: ('A' for Active; 'I' for Inactive)
REMARK    1  A    between atoms: C_2  and  C_25
REMARK    2  A    between atoms: C_5  and  O_10
REMARK    3  A    between atoms: O_10  and  C_11
REMARK    4  A    between atoms: C_11  and  C_12
REMARK    5  A    between atoms: C_12  and  C_15
REMARK    6  A    between atoms: C_17  and  C_19
REMARK    7  A    between atoms: C_25  and  C_26
REMARK    8  A    between atoms: C_26  and  O_27
REMARK    9  A    between atoms: C_26  and  C_30
REMARK   10  A    between atoms: C_30  and  O_31
REMARK                            x       y       z     vdW  Elec       q    Type
REMARK                         _______ _______ _______ _____ _____    ______ ____
ROOT
ATOM      1  S   UNL     1      30.999 -23.992 -13.432  0.00  0.00    -0.087 S 
ATOM      2  C   UNL     1      33.728 -23.939 -14.094  0.00  0.00    -0.013 C 
ATOM      3  C   UNL     1      32.373 -23.826 -14.461  0.00  0.00    +0.029 C 
ATOM      4  C   UNL     1      31.992 -23.552 -15.778  0.00  0.00    +0.040 C 
ATOM      5  C   UNL     1      33.009 -23.387 -16.748  0.00  0.00    +0.139 C 
ATOM      6  C   UNL     1      34.708 -23.770 -15.075  0.00  0.00    -0.001 C 
ATOM      7  C   UNL     1      34.355 -23.498 -16.388  0.00  0.00    +0.037 C 
ATOM      8  C   UNL     1      30.563 -23.486 -15.902  0.00  0.00    +0.010 C 
ATOM      9  C   UNL     1      29.911 -23.706 -14.712  0.00  0.00    +0.036 C 
ENDROOT
BRANCH   5  10
ATOM     10  O   UNL     1      32.700 -23.116 -18.058  0.00  0.00    -0.475 OA
BRANCH  10  11
ATOM     11  C   UNL     1      33.620 -22.304 -18.775  0.00  0.00    +0.213 C 
BRANCH  11  12
ATOM     12  C   UNL     1      32.871 -21.174 -19.477  0.00  0.00    +0.105 C 
BRANCH  12  15
ATOM     13  O   UNL     1      35.383 -19.616 -21.619  0.00  0.00    -0.449 OA
ATOM     14  N   UNL     1      33.129 -19.754 -21.484  0.00  0.00    -0.373 NA
ATOM     15  C   UNL     1      33.720 -20.449 -20.482  0.00  0.00    +0.134 C 
ATOM     16  C   UNL     1      35.069 -20.384 -20.539  0.00  0.00    +0.216 C 
ATOM     17  C   UNL     1      34.168 -19.277 -22.133  0.00  0.00    +0.277 C 
ATOM     18  C   UNL     1      36.186 -20.917 -19.752  0.00  0.00    +0.055 C 
BRANCH  17  19
ATOM     19  C   UNL     1      34.210 -18.449 -23.306  0.00  0.00    +0.066 C 
ATOM     20  C   UNL     1      34.559 -17.099 -23.201  0.00  0.00    +0.006 C 
ATOM     21  C   UNL     1      33.901 -18.986 -24.558  0.00  0.00    +0.006 C 
ATOM     22  C   UNL     1      34.599 -16.294 -24.339  0.00  0.00    +0.000 C 
ATOM     23  C   UNL     1      33.941 -18.181 -25.697  0.00  0.00    +0.000 C 
ATOM     24  C   UNL     1      34.290 -16.835 -25.587  0.00  0.00    +0.000 C 
ENDBRANCH  17  19
ENDBRANCH  12  15
ENDBRANCH  11  12
ENDBRANCH  10  11
ENDBRANCH   5  10
BRANCH   2  25
ATOM     25  C   UNL     1      34.165 -24.229 -12.694  0.00  0.00    +0.068 C 
BRANCH  25  26
ATOM     26  C   UNL     1      35.693 -24.271 -12.552  0.00  0.00    +0.218 C 
BRANCH  26  27
ATOM     27  O   UNL     1      36.126 -25.618 -12.697  0.00  0.00    -0.342 OA
ATOM     28  C   UNL     1      37.529 -25.695 -12.909  0.00  0.00    +0.175 C 
ENDBRANCH  26  27
BRANCH  26  30
ATOM     29  O   UNL     1      35.784 -24.303 -10.122  0.00  0.00    -0.248 OA
ATOM     30  C   UNL     1      36.130 -23.796 -11.181  0.00  0.00    +0.342 C 
BRANCH  30  31
ATOM     31  O   UNL     1      36.979 -22.739 -11.251  0.00  0.00    -0.479 OA
ATOM     32  H   UNL     1      36.982 -22.190 -12.011  0.00  0.00    +0.295 HD
ENDBRANCH  30  31
ENDBRANCH  26  30
ENDBRANCH  25  26
ENDBRANCH   2  25
TORSDOF 10
ENDMDL
MODEL 3
REMARK VINA RESULT:     -11.3      4.123     11.101
REMARK  Name = 10274777
REMARK  10 active torsions:
REMARK  status: ('A' for Active; 'I' for Inactive)
REMARK    1  A    between atoms: C_2  and  C_25
REMARK    2  A    between atoms: C_5  and  O_10
REMARK    3  A    between atoms: O_10  and  C_11
REMARK    4  A    between atoms: C_11  and  C_12
REMARK    5  A    between atoms: C_12  and  C_15
REMARK    6  A    between atoms: C_17  and  C_19
REMARK    7  A    between atoms: C_25  and  C_26
REMARK    8  A    between atoms: C_26  and  O_27
REMARK    9  A    between atoms: C_26  and  C_30
REMARK   10  A    between atoms: C_30  and  O_31
REMARK                            x       y       z     vdW  Elec       q    Type
REMARK                         _______ _______ _______ _____ _____    ______ ____
ROOT
ATOM      1  S   UNL     1      34.316 -14.758 -22.884  0.00  0.00    -0.087 S 
ATOM      2  C   UNL     1      34.670 -17.252 -24.124  0.00  0.00    -0.013 C 
ATOM      3  C   UNL     1      34.593 -16.458 -22.964  0.00  0.00    +0.029 C 
ATOM      4  C   UNL     1      34.745 -17.008 -21.688  0.00  0.00    +0.040 C 
ATOM      5  C   UNL     1      34.980 -18.401 -21.584  0.00  0.00    +0.139 C 
ATOM      6  C   UNL     1      34.903 -18.623 -23.988  0.00  0.00    -0.001 C 
ATOM      7  C   UNL     1      35.056 -19.193 -22.732  0.00  0.00    +0.037 C 
ATOM      8  C   UNL     1      34.627 -16.003 -20.670  0.00  0.00    +0.010 C 
ATOM      9  C   UNL     1      34.396 -14.748 -21.182  0.00  0.00    +0.036 C 
ENDROOT
BRANCH   5  10
ATOM     10  O   UNL     1      35.137 -19.002 -20.360  0.00  0.00    -0.475 OA
BRANCH  10  11
ATOM     11  C   UNL     1      36.170 -19.973 -20.255  0.00  0.00    +0.213 C 
BRANCH  11  12
ATOM     12  C   UNL     1      35.591 -21.367 -20.484  0.00  0.00    +0.105 C 
BRANCH  12  15
ATOM     13  O   UNL     1      32.504 -21.836 -18.592  0.00  0.00    -0.449 OA
ATOM     14  N   UNL     1      34.681 -22.434 -18.448  0.00  0.00    -0.373 NA
ATOM     15  C   UNL     1      34.455 -21.685 -19.554  0.00  0.00    +0.134 C 
ATOM     16  C   UNL     1      33.159 -21.313 -19.666  0.00  0.00    +0.216 C 
ATOM     17  C   UNL     1      33.483 -22.493 -17.910  0.00  0.00    +0.277 C 
ATOM     18  C   UNL     1      32.364 -20.529 -20.616  0.00  0.00    +0.055 C 
BRANCH  17  19
ATOM     19  C   UNL     1      33.054 -23.150 -16.707  0.00  0.00    +0.066 C 
ATOM     20  C   UNL     1      31.691 -23.283 -16.427  0.00  0.00    +0.006 C 
ATOM     21  C   UNL     1      33.996 -23.659 -15.809  0.00  0.00    +0.006 C 
ATOM     22  C   UNL     1      31.273 -23.920 -15.259  0.00  0.00    +0.000 C 
ATOM     23  C   UNL     1      33.578 -24.297 -14.640  0.00  0.00    +0.000 C 
ATOM     24  C   UNL     1      32.218 -24.427 -14.365  0.00  0.00    +0.000 C 
ENDBRANCH  17  19
ENDBRANCH  12  15
ENDBRANCH  11  12
ENDBRANCH  10  11
ENDBRANCH   5  10
BRANCH   2  25
ATOM     25  C   UNL     1      34.510 -16.692 -25.501  0.00  0.00    +0.068 C 
BRANCH  25  26
ATOM     26  C   UNL     1      33.047 -16.681 -25.965  0.00  0.00    +0.218 C 
BRANCH  26  27
ATOM     27  O   UNL     1      32.791 -17.881 -26.685  0.00  0.00    -0.342 OA
ATOM     28  C   UNL     1      31.851 -18.704 -26.009  0.00  0.00    +0.175 C 
ENDBRANCH  26  27
BRANCH  26  30
ATOM     29  O   UNL     1      33.631 -14.762 -27.340  0.00  0.00    -0.248 OA
ATOM     30  C   UNL     1      32.777 -15.521 -26.902  0.00  0.00    +0.342 C 
BRANCH  30  31
ATOM     31  O   UNL     1      31.462 -15.420 -27.227  0.00  0.00    -0.479 OA
ATOM     32  H   UNL     1      31.059 -16.078 -27.759  0.00  0.00    +0.295 HD
ENDBRANCH  30  31
ENDBRANCH  26  30
ENDBRANCH  25  26
ENDBRANCH   2  25
TORSDOF 10
ENDMDL
MODEL 4
REMARK VINA RESULT:     -11.0      6.676     13.013
REMARK  Name = 10274777
REMARK  10 active torsions:
REMARK  status: ('A' for Active; 'I' for Inactive)
REMARK    1  A    between atoms: C_2  and  C_25
REMARK    2  A    between atoms: C_5  and  O_10
REMARK    3  A    between atoms: O_10  and  C_11
REMARK    4  A    between atoms: C_11  and  C_12
REMARK    5  A    between atoms: C_12  and  C_15
REMARK    6  A    between atoms: C_17  and  C_19
REMARK    7  A    between atoms: C_25  and  C_26
REMARK    8  A    between atoms: C_26  and  O_27
REMARK    9  A    between atoms: C_26  and  C_30
REMARK   10  A    between atoms: C_30  and  O_31
REMARK                            x       y       z     vdW  Elec       q    Type
REMARK                         _______ _______ _______ _____ _____    ______ ____
ROOT
ATOM      1  S   UNL     1      33.528  -8.636 -24.400  0.00  0.00    -0.087 S 
ATOM      2  C   UNL     1      32.093 -10.285 -22.637  0.00  0.00    -0.013 C 
ATOM      3  C   UNL     1      33.002 -10.122 -23.701  0.00  0.00    +0.029 C 
ATOM      4  C   UNL     1      33.599 -11.219 -24.328  0.00  0.00    +0.040 C 
ATOM      5  C   UNL     1      33.267 -12.515 -23.865  0.00  0.00    +0.139 C 
ATOM      6  C   UNL     1      31.787 -11.577 -22.205  0.00  0.00    -0.001 C 
ATOM      7  C   UNL     1      32.366 -12.682 -22.811  0.00  0.00    +0.037 C 
ATOM      8  C   UNL     1      34.482 -10.799 -25.378  0.00  0.00    +0.010 C 
ATOM      9  C   UNL     1      34.534  -9.433 -25.521  0.00  0.00    +0.036 C 
ENDROOT
BRANCH   5  10
ATOM     10  O   UNL     1      33.820 -13.633 -24.440  0.00  0.00    -0.475 OA
BRANCH  10  11
ATOM     11  C   UNL     1      33.483 -14.884 -23.853  0.00  0.00    +0.213 C 
BRANCH  11  12
ATOM     12  C   UNL     1      34.757 -15.646 -23.499  0.00  0.00    +0.105 C 
BRANCH  12  15
ATOM     13  O   UNL     1      34.041 -19.221 -23.314  0.00  0.00    -0.449 OA
ATOM     14  N   UNL     1      34.603 -17.536 -21.913  0.00  0.00    -0.373 NA
ATOM     15  C   UNL     1      34.502 -17.094 -23.189  0.00  0.00    +0.134 C 
ATOM     16  C   UNL     1      34.167 -18.082 -24.050  0.00  0.00    +0.216 C 
ATOM     17  C   UNL     1      34.318 -18.813 -22.044  0.00  0.00    +0.277 C 
ATOM     18  C   UNL     1      33.925 -18.190 -25.492  0.00  0.00    +0.055 C 
BRANCH  17  19
ATOM     19  C   UNL     1      34.256 -19.841 -21.044  0.00  0.00    +0.066 C 
ATOM     20  C   UNL     1      33.018 -20.316 -20.600  0.00  0.00    +0.006 C 
ATOM     21  C   UNL     1      35.431 -20.373 -20.506  0.00  0.00    +0.006 C 
ATOM     22  C   UNL     1      32.956 -21.314 -19.629  0.00  0.00    +0.000 C 
ATOM     23  C   UNL     1      35.369 -21.372 -19.534  0.00  0.00    +0.000 C 
ATOM     24  C   UNL     1      34.132 -21.842 -19.095  0.00  0.00    +0.000 C 
ENDBRANCH  17  19
ENDBRANCH  12  15
ENDBRANCH  11  12
ENDBRANCH  10  11
ENDBRANCH   5  10
BRANCH   2  25
ATOM     25  C   UNL     1      31.440  -9.130 -21.946  0.00  0.00    +0.068 C 
BRANCH  25  26
ATOM     26  C   UNL     1      32.101  -8.800 -20.601  0.00  0.00    +0.218 C 
BRANCH  26  27
ATOM     27  O   UNL     1      31.140  -8.976 -19.567  0.00  0.00    -0.342 OA
ATOM     28  C   UNL     1      31.320 -10.215 -18.895  0.00  0.00    +0.175 C 
ENDBRANCH  26  27
BRANCH  26  30
ATOM     29  O   UNL     1      32.244  -6.495 -21.367  0.00  0.00    -0.248 OA
ATOM     30  C   UNL     1      32.560  -7.356 -20.556  0.00  0.00    +0.342 C 
BRANCH  30  31
ATOM     31  O   UNL     1      33.360  -7.106 -19.487  0.00  0.00    -0.479 OA
ATOM     32  H   UNL     1      33.347  -6.261 -19.079  0.00  0.00    +0.295 HD
ENDBRANCH  30  31
ENDBRANCH  26  30
ENDBRANCH  25  26
ENDBRANCH   2  25
TORSDOF 10
ENDMDL
MODEL 5
REMARK VINA RESULT:     -10.8      3.813     11.465
REMARK  Name = 10274777
REMARK  10 active torsions:
REMARK  status: ('A' for Active; 'I' for Inactive)
REMARK    1  A    between atoms: C_2  and  C_25
REMARK    2  A    between atoms: C_5  and  O_10
REMARK    3  A    between atoms: O_10  and  C_11
REMARK    4  A    between atoms: C_11  and  C_12
REMARK    5  A    between atoms: C_12  and  C_15
REMARK    6  A    between atoms: C_17  and  C_19
REMARK    7  A    between atoms: C_25  and  C_26
REMARK    8  A    between atoms: C_26  and  O_27
REMARK    9  A    between atoms: C_26  and  C_30
REMARK   10  A    between atoms: C_30  and  O_31
REMARK                            x       y       z     vdW  Elec       q    Type
REMARK                         _______ _______ _______ _____ _____    ______ ____
ROOT
ATOM      1  S   UNL     1      34.136 -14.539 -23.185  0.00  0.00    -0.087 S 
ATOM      2  C   UNL     1      34.636 -17.002 -24.437  0.00  0.00    -0.013 C 
ATOM      3  C   UNL     1      34.539 -16.213 -23.275  0.00  0.00    +0.029 C 
ATOM      4  C   UNL     1      34.777 -16.748 -22.006  0.00  0.00    +0.040 C 
ATOM      5  C   UNL     1      35.121 -18.118 -21.911  0.00  0.00    +0.139 C 
ATOM      6  C   UNL     1      34.977 -18.350 -24.310  0.00  0.00    -0.001 C 
ATOM      7  C   UNL     1      35.218 -18.905 -23.061  0.00  0.00    +0.037 C 
ATOM      8  C   UNL     1      34.619 -15.752 -20.984  0.00  0.00    +0.010 C 
ATOM      9  C   UNL     1      34.275 -14.520 -21.486  0.00  0.00    +0.036 C 
ENDROOT
BRANCH   5  10
ATOM     10  O   UNL     1      35.367 -18.703 -20.693  0.00  0.00    -0.475 OA
BRANCH  10  11
ATOM     11  C   UNL     1      35.016 -20.074 -20.563  0.00  0.00    +0.213 C 
BRANCH  11  12
ATOM     12  C   UNL     1      36.121 -20.820 -19.819  0.00  0.00    +0.105 C 
BRANCH  12  15
ATOM     13  O   UNL     1      34.369 -22.880 -17.368  0.00  0.00    -0.449 OA
ATOM     14  N   UNL     1      36.392 -21.898 -17.611  0.00  0.00    -0.373 NA
ATOM     15  C   UNL     1      35.600 -21.652 -18.683  0.00  0.00    +0.134 C 
ATOM     16  C   UNL     1      34.382 -22.228 -18.564  0.00  0.00    +0.216 C 
ATOM     17  C   UNL     1      35.607 -22.636 -16.857  0.00  0.00    +0.277 C 
ATOM     18  C   UNL     1      33.164 -22.300 -19.377  0.00  0.00    +0.055 C 
BRANCH  17  19
ATOM     19  C   UNL     1      35.865 -23.222 -15.572  0.00  0.00    +0.066 C 
ATOM     20  C   UNL     1      37.157 -23.639 -15.236  0.00  0.00    +0.006 C 
ATOM     21  C   UNL     1      34.828 -23.380 -14.649  0.00  0.00    +0.006 C 
ATOM     22  C   UNL     1      37.409 -24.209 -13.989  0.00  0.00    +0.000 C 
ATOM     23  C   UNL     1      35.080 -23.950 -13.401  0.00  0.00    +0.000 C 
ATOM     24  C   UNL     1      36.370 -24.365 -13.070  0.00  0.00    +0.000 C 
ENDBRANCH  17  19
ENDBRANCH  12  15
ENDBRANCH  11  12
ENDBRANCH  10  11
ENDBRANCH   5  10
BRANCH   2  25
ATOM     25  C   UNL     1      34.386 -16.458 -25.808  0.00  0.00    +0.068 C 
BRANCH  25  26
ATOM     26  C   UNL     1      32.913 -16.575 -26.227  0.00  0.00    +0.218 C 
BRANCH  26  27
ATOM     27  O   UNL     1      32.713 -17.848 -26.830  0.00  0.00    -0.342 OA
ATOM     28  C   UNL     1      31.822 -18.650 -26.067  0.00  0.00    +0.175 C 
ENDBRANCH  26  27
BRANCH  26  30
ATOM     29  O   UNL     1      31.436 -15.371 -27.738  0.00  0.00    -0.248 OA
ATOM     30  C   UNL     1      32.550 -15.521 -27.254  0.00  0.00    +0.342 C 
BRANCH  30  31
ATOM     31  O   UNL     1      33.608 -14.733 -27.576  0.00  0.00    -0.479 OA
ATOM     32  H   UNL     1      33.464 -13.864 -27.897  0.00  0.00    +0.295 HD
ENDBRANCH  30  31
ENDBRANCH  26  30
ENDBRANCH  25  26
ENDBRANCH   2  25
TORSDOF 10
ENDMDL
MODEL 6
REMARK VINA RESULT:     -10.8      1.936      2.903
REMARK  Name = 10274777
REMARK  10 active torsions:
REMARK  status: ('A' for Active; 'I' for Inactive)
REMARK    1  A    between atoms: C_2  and  C_25
REMARK    2  A    between atoms: C_5  and  O_10
REMARK    3  A    between atoms: O_10  and  C_11
REMARK    4  A    between atoms: C_11  and  C_12
REMARK    5  A    between atoms: C_12  and  C_15
REMARK    6  A    between atoms: C_17  and  C_19
REMARK    7  A    between atoms: C_25  and  C_26
REMARK    8  A    between atoms: C_26  and  O_27
REMARK    9  A    between atoms: C_26  and  C_30
REMARK   10  A    between atoms: C_30  and  O_31
REMARK                            x       y       z     vdW  Elec       q    Type
REMARK                         _______ _______ _______ _____ _____    ______ ____
ROOT
ATOM      1  S   UNL     1      32.491 -24.237 -13.622  0.00  0.00    -0.087 S 
ATOM      2  C   UNL     1      34.743 -23.375 -15.061  0.00  0.00    -0.013 C 
ATOM      3  C   UNL     1      33.362 -23.641 -14.986  0.00  0.00    +0.029 C 
ATOM      4  C   UNL     1      32.517 -23.434 -16.079  0.00  0.00    +0.040 C 
ATOM      5  C   UNL     1      33.084 -22.944 -17.280  0.00  0.00    +0.139 C 
ATOM      6  C   UNL     1      35.272 -22.892 -16.260  0.00  0.00    -0.001 C 
ATOM      7  C   UNL     1      34.453 -22.678 -17.359  0.00  0.00    +0.037 C 
ATOM      8  C   UNL     1      31.160 -23.777 -15.759  0.00  0.00    +0.010 C 
ATOM      9  C   UNL     1      31.011 -24.223 -14.467  0.00  0.00    +0.036 C 
ENDROOT
BRANCH   5  10
ATOM     10  O   UNL     1      32.306 -22.720 -18.389  0.00  0.00    -0.475 OA
BRANCH  10  11
ATOM     11  C   UNL     1      32.973 -22.238 -19.548  0.00  0.00    +0.213 C 
BRANCH  11  12
ATOM     12  C   UNL     1      32.665 -20.755 -19.741  0.00  0.00    +0.105 C 
BRANCH  12  15
ATOM     13  O   UNL     1      35.229 -19.388 -21.951  0.00  0.00    -0.449 OA
ATOM     14  N   UNL     1      32.972 -19.444 -21.814  0.00  0.00    -0.373 NA
ATOM     15  C   UNL     1      33.538 -20.109 -20.778  0.00  0.00    +0.134 C 
ATOM     16  C   UNL     1      34.889 -20.091 -20.834  0.00  0.00    +0.216 C 
ATOM     17  C   UNL     1      34.026 -19.034 -22.483  0.00  0.00    +0.277 C 
ATOM     18  C   UNL     1      35.987 -20.622 -20.020  0.00  0.00    +0.055 C 
BRANCH  17  19
ATOM     19  C   UNL     1      34.096 -18.266 -23.695  0.00  0.00    +0.066 C 
ATOM     20  C   UNL     1      33.779 -18.859 -24.921  0.00  0.00    +0.006 C 
ATOM     21  C   UNL     1      34.482 -16.924 -23.657  0.00  0.00    +0.006 C 
ATOM     22  C   UNL     1      33.847 -18.115 -26.099  0.00  0.00    +0.000 C 
ATOM     23  C   UNL     1      34.549 -16.180 -24.835  0.00  0.00    +0.000 C 
ATOM     24  C   UNL     1      34.232 -16.775 -26.056  0.00  0.00    +0.000 C 
ENDBRANCH  17  19
ENDBRANCH  12  15
ENDBRANCH  11  12
ENDBRANCH  10  11
ENDBRANCH   5  10
BRANCH   2  25
ATOM     25  C   UNL     1      35.672 -23.585 -13.908  0.00  0.00    +0.068 C 
BRANCH  25  26
ATOM     26  C   UNL     1      36.033 -25.063 -13.705  0.00  0.00    +0.218 C 
BRANCH  26  27
ATOM     27  O   UNL     1      37.104 -25.145 -12.773  0.00  0.00    -0.342 OA
ATOM     28  C   UNL     1      37.066 -26.363 -12.042  0.00  0.00    +0.175 C 
ENDBRANCH  26  27
BRANCH  26  30
ATOM     29  O   UNL     1      35.883 -26.534 -15.637  0.00  0.00    -0.248 OA
ATOM     30  C   UNL     1      36.505 -25.695 -14.999  0.00  0.00    +0.342 C 
BRANCH  30  31
ATOM     31  O   UNL     1      37.710 -25.209 -15.396  0.00  0.00    -0.479 OA
ATOM     32  H   UNL     1      37.762 -24.632 -16.134  0.00  0.00    +0.295 HD
ENDBRANCH  30  31
ENDBRANCH  26  30
ENDBRANCH  25  26
ENDBRANCH   2  25
TORSDOF 10
ENDMDL
MODEL 7
REMARK VINA RESULT:     -10.8      2.574      9.676
REMARK  Name = 10274777
REMARK  10 active torsions:
REMARK  status: ('A' for Active; 'I' for Inactive)
REMARK    1  A    between atoms: C_2  and  C_25
REMARK    2  A    between atoms: C_5  and  O_10
REMARK    3  A    between atoms: O_10  and  C_11
REMARK    4  A    between atoms: C_11  and  C_12
REMARK    5  A    between atoms: C_12  and  C_15
REMARK    6  A    between atoms: C_17  and  C_19
REMARK    7  A    between atoms: C_25  and  C_26
REMARK    8  A    between atoms: C_26  and  O_27
REMARK    9  A    between atoms: C_26  and  C_30
REMARK   10  A    between atoms: C_30  and  O_31
REMARK                            x       y       z     vdW  Elec       q    Type
REMARK                         _______ _______ _______ _____ _____    ______ ____
ROOT
ATOM      1  S   UNL     1      32.318 -20.443 -20.511  0.00  0.00    -0.087 S 
ATOM      2  C   UNL     1      34.843 -19.378 -21.123  0.00  0.00    -0.013 C 
ATOM      3  C   UNL     1      34.032 -20.281 -20.409  0.00  0.00    +0.029 C 
ATOM      4  C   UNL     1      34.575 -21.187 -19.494  0.00  0.00    +0.040 C 
ATOM      5  C   UNL     1      35.977 -21.179 -19.297  0.00  0.00    +0.139 C 
ATOM      6  C   UNL     1      36.222 -19.395 -20.906  0.00  0.00    -0.001 C 
ATOM      7  C   UNL     1      36.786 -20.285 -20.003  0.00  0.00    +0.037 C 
ATOM      8  C   UNL     1      33.553 -21.998 -18.896  0.00  0.00    +0.010 C 
ATOM      9  C   UNL     1      32.293 -21.698 -19.357  0.00  0.00    +0.036 C 
ENDROOT
BRANCH   5  10
ATOM     10  O   UNL     1      36.571 -22.044 -18.412  0.00  0.00    -0.475 OA
BRANCH  10  11
ATOM     11  C   UNL     1      36.721 -21.585 -17.075  0.00  0.00    +0.213 C 
BRANCH  11  12
ATOM     12  C   UNL     1      37.007 -22.768 -16.154  0.00  0.00    +0.105 C 
BRANCH  12  15
ATOM     13  O   UNL     1      34.490 -23.772 -13.709  0.00  0.00    -0.449 OA
ATOM     14  N   UNL     1      34.592 -23.234 -15.903  0.00  0.00    -0.373 NA
ATOM     15  C   UNL     1      35.817 -23.165 -15.328  0.00  0.00    +0.134 C 
ATOM     16  C   UNL     1      35.785 -23.482 -14.014  0.00  0.00    +0.216 C 
ATOM     17  C   UNL     1      33.837 -23.601 -14.892  0.00  0.00    +0.277 C 
ATOM     18  C   UNL     1      36.764 -23.577 -12.926  0.00  0.00    +0.055 C 
BRANCH  17  19
ATOM     19  C   UNL     1      32.423 -23.848 -14.852  0.00  0.00    +0.066 C 
ATOM     20  C   UNL     1      31.875 -24.632 -13.831  0.00  0.00    +0.006 C 
ATOM     21  C   UNL     1      31.586 -23.308 -15.832  0.00  0.00    +0.006 C 
ATOM     22  C   UNL     1      30.503 -24.873 -13.791  0.00  0.00    +0.000 C 
ATOM     23  C   UNL     1      30.212 -23.549 -15.792  0.00  0.00    +0.000 C 
ATOM     24  C   UNL     1      29.670 -24.331 -14.772  0.00  0.00    +0.000 C 
ENDBRANCH  17  19
ENDBRANCH  12  15
ENDBRANCH  11  12
ENDBRANCH  10  11
ENDBRANCH   5  10
BRANCH   2  25
ATOM     25  C   UNL     1      34.290 -18.398 -22.109  0.00  0.00    +0.068 C 
BRANCH  25  26
ATOM     26  C   UNL     1      35.004 -18.466 -23.467  0.00  0.00    +0.218 C 
BRANCH  26  27
ATOM     27  O   UNL     1      35.224 -17.138 -23.930  0.00  0.00    -0.342 OA
ATOM     28  C   UNL     1      34.946 -16.181 -22.917  0.00  0.00    +0.175 C 
ENDBRANCH  26  27
BRANCH  26  30
ATOM     29  O   UNL     1      34.484 -20.178 -25.114  0.00  0.00    -0.248 OA
ATOM     30  C   UNL     1      34.150 -19.173 -24.500  0.00  0.00    +0.342 C 
BRANCH  30  31
ATOM     31  O   UNL     1      32.943 -18.573 -24.666  0.00  0.00    -0.479 OA
ATOM     32  H   UNL     1      32.180 -19.093 -24.828  0.00  0.00    +0.295 HD
ENDBRANCH  30  31
ENDBRANCH  26  30
ENDBRANCH  25  26
ENDBRANCH   2  25
TORSDOF 10
ENDMDL
MODEL 8
REMARK VINA RESULT:     -10.7      2.930      4.532
REMARK  Name = 10274777
REMARK  10 active torsions:
REMARK  status: ('A' for Active; 'I' for Inactive)
REMARK    1  A    between atoms: C_2  and  C_25
REMARK    2  A    between atoms: C_5  and  O_10
REMARK    3  A    between atoms: O_10  and  C_11
REMARK    4  A    between atoms: C_11  and  C_12
REMARK    5  A    between atoms: C_12  and  C_15
REMARK    6  A    between atoms: C_17  and  C_19
REMARK    7  A    between atoms: C_25  and  C_26
REMARK    8  A    between atoms: C_26  and  O_27
REMARK    9  A    between atoms: C_26  and  C_30
REMARK   10  A    between atoms: C_30  and  O_31
REMARK                            x       y       z     vdW  Elec       q    Type
REMARK                         _______ _______ _______ _____ _____    ______ ____
ROOT
ATOM      1  S   UNL     1      34.690 -23.889 -14.120  0.00  0.00    -0.087 S 
ATOM      2  C   UNL     1      32.922 -23.511 -16.269  0.00  0.00    -0.013 C 
ATOM      3  C   UNL     1      34.203 -23.390 -15.697  0.00  0.00    +0.029 C 
ATOM      4  C   UNL     1      35.266 -22.815 -16.400  0.00  0.00    +0.040 C 
ATOM      5  C   UNL     1      35.026 -22.353 -17.716  0.00  0.00    +0.139 C 
ATOM      6  C   UNL     1      32.717 -23.046 -17.570  0.00  0.00    -0.001 C 
ATOM      7  C   UNL     1      33.757 -22.472 -18.287  0.00  0.00    +0.037 C 
ATOM      8  C   UNL     1      36.465 -22.803 -15.610  0.00  0.00    +0.010 C 
ATOM      9  C   UNL     1      36.289 -23.352 -14.362  0.00  0.00    +0.036 C 
ENDROOT
BRANCH   5  10
ATOM     10  O   UNL     1      36.029 -21.780 -18.458  0.00  0.00    -0.475 OA
BRANCH  10  11
ATOM     11  C   UNL     1      35.779 -21.615 -19.848  0.00  0.00    +0.213 C 
BRANCH  11  12
ATOM     12  C   UNL     1      35.965 -20.151 -20.235  0.00  0.00    +0.105 C 
BRANCH  12  15
ATOM     13  O   UNL     1      33.060 -19.227 -22.243  0.00  0.00    -0.449 OA
ATOM     14  N   UNL     1      35.307 -18.979 -22.310  0.00  0.00    -0.373 NA
ATOM     15  C   UNL     1      34.927 -19.669 -21.208  0.00  0.00    +0.134 C 
ATOM     16  C   UNL     1      33.586 -19.832 -21.142  0.00  0.00    +0.216 C 
ATOM     17  C   UNL     1      34.153 -18.740 -22.893  0.00  0.00    +0.277 C 
ATOM     18  C   UNL     1      32.643 -20.470 -20.217  0.00  0.00    +0.055 C 
BRANCH  17  19
ATOM     19  C   UNL     1      33.877 -18.039 -24.116  0.00  0.00    +0.066 C 
ATOM     20  C   UNL     1      34.437 -16.778 -24.345  0.00  0.00    +0.006 C 
ATOM     21  C   UNL     1      33.046 -18.612 -25.083  0.00  0.00    +0.006 C 
ATOM     22  C   UNL     1      34.169 -16.097 -25.532  0.00  0.00    +0.000 C 
ATOM     23  C   UNL     1      32.778 -17.930 -26.270  0.00  0.00    +0.000 C 
ATOM     24  C   UNL     1      33.339 -16.673 -26.495  0.00  0.00    +0.000 C 
ENDBRANCH  17  19
ENDBRANCH  12  15
ENDBRANCH  11  12
ENDBRANCH  10  11
ENDBRANCH   5  10
BRANCH   2  25
ATOM     25  C   UNL     1      31.766 -24.123 -15.543  0.00  0.00    +0.068 C 
BRANCH  25  26
ATOM     26  C   UNL     1      30.624 -23.123 -15.309  0.00  0.00    +0.218 C 
BRANCH  26  27
ATOM     27  O   UNL     1      30.192 -23.237 -13.958  0.00  0.00    -0.342 OA
ATOM     28  C   UNL     1      30.728 -24.396 -13.335  0.00  0.00    +0.175 C 
ENDBRANCH  26  27
BRANCH  26  30
ATOM     29  O   UNL     1      28.729 -24.428 -16.098  0.00  0.00    -0.248 OA
ATOM     30  C   UNL     1      29.434 -23.433 -16.195  0.00  0.00    +0.342 C 
BRANCH  30  31
ATOM     31  O   UNL     1      29.217 -22.460 -17.118  0.00  0.00    -0.479 OA
ATOM     32  H   UNL     1      29.198 -22.676 -18.030  0.00  0.00    +0.295 HD
ENDBRANCH  30  31
ENDBRANCH  26  30
ENDBRANCH  25  26
ENDBRANCH   2  25
TORSDOF 10
ENDMDL
MODEL 9
REMARK VINA RESULT:     -10.5      5.983     10.219
REMARK  Name = 10274777
REMARK  10 active torsions:
REMARK  status: ('A' for Active; 'I' for Inactive)
REMARK    1  A    between atoms: C_2  and  C_25
REMARK    2  A    between atoms: C_5  and  O_10
REMARK    3  A    between atoms: O_10  and  C_11
REMARK    4  A    between atoms: C_11  and  C_12
REMARK    5  A    between atoms: C_12  and  C_15
REMARK    6  A    between atoms: C_17  and  C_19
REMARK    7  A    between atoms: C_25  and  C_26
REMARK    8  A    between atoms: C_26  and  O_27
REMARK    9  A    between atoms: C_26  and  C_30
REMARK   10  A    between atoms: C_30  and  O_31
REMARK                            x       y       z     vdW  Elec       q    Type
REMARK                         _______ _______ _______ _____ _____    ______ ____
ROOT
ATOM      1  S   UNL     1      33.835 -18.678 -25.022  0.00  0.00    -0.087 S 
ATOM      2  C   UNL     1      34.525 -18.249 -22.334  0.00  0.00    -0.013 C 
ATOM      3  C   UNL     1      34.229 -17.756 -23.619  0.00  0.00    +0.029 C 
ATOM      4  C   UNL     1      34.226 -16.385 -23.894  0.00  0.00    +0.040 C 
ATOM      5  C   UNL     1      34.531 -15.491 -22.840  0.00  0.00    +0.139 C 
ATOM      6  C   UNL     1      34.822 -17.341 -21.315  0.00  0.00    -0.001 C 
ATOM      7  C   UNL     1      34.826 -15.976 -21.564  0.00  0.00    +0.037 C 
ATOM      8  C   UNL     1      33.897 -16.132 -25.268  0.00  0.00    +0.010 C 
ATOM      9  C   UNL     1      33.664 -17.282 -25.984  0.00  0.00    +0.036 C 
ENDROOT
BRANCH   5  10
ATOM     10  O   UNL     1      34.545 -14.134 -23.046  0.00  0.00    -0.475 OA
BRANCH  10  11
ATOM     11  C   UNL     1      33.309 -13.452 -22.880  0.00  0.00    +0.213 C 
BRANCH  11  12
ATOM     12  C   UNL     1      33.063 -12.535 -24.075  0.00  0.00    +0.105 C 
BRANCH  12  15
ATOM     13  O   UNL     1      33.837  -8.997 -23.615  0.00  0.00    -0.449 OA
ATOM     14  N   UNL     1      32.355 -10.517 -22.834  0.00  0.00    -0.373 NA
ATOM     15  C   UNL     1      33.201 -11.079 -23.731  0.00  0.00    +0.134 C 
ATOM     16  C   UNL     1      34.099 -10.192 -24.216  0.00  0.00    +0.216 C 
ATOM     17  C   UNL     1      32.780  -9.274 -22.803  0.00  0.00    +0.277 C 
ATOM     18  C   UNL     1      35.210 -10.229 -25.172  0.00  0.00    +0.055 C 
BRANCH  17  19
ATOM     19  C   UNL     1      32.291  -8.162 -22.036  0.00  0.00    +0.066 C 
ATOM     20  C   UNL     1      32.908  -7.815 -20.830  0.00  0.00    +0.006 C 
ATOM     21  C   UNL     1      31.196  -7.421 -22.488  0.00  0.00    +0.006 C 
ATOM     22  C   UNL     1      32.435  -6.737 -20.083  0.00  0.00    +0.000 C 
ATOM     23  C   UNL     1      30.723  -6.342 -21.742  0.00  0.00    +0.000 C 
ATOM     24  C   UNL     1      31.341  -5.999 -20.540  0.00  0.00    +0.000 C 
ENDBRANCH  17  19
ENDBRANCH  12  15
ENDBRANCH  11  12
ENDBRANCH  10  11
ENDBRANCH   5  10
BRANCH   2  25
ATOM     25  C   UNL     1      34.534 -19.710 -22.010  0.00  0.00    +0.068 C 
BRANCH  25  26
ATOM     26  C   UNL     1      34.084 -19.994 -20.570  0.00  0.00    +0.218 C 
BRANCH  26  27
ATOM     27  O   UNL     1      34.783 -21.139 -20.095  0.00  0.00    -0.342 OA
ATOM     28  C   UNL     1      36.156 -20.853 -19.868  0.00  0.00    +0.175 C 
ENDBRANCH  26  27
BRANCH  26  30
ATOM     29  O   UNL     1      31.797 -20.053 -21.396  0.00  0.00    -0.248 OA
ATOM     30  C   UNL     1      32.602 -20.308 -20.510  0.00  0.00    +0.342 C 
BRANCH  30  31
ATOM     31  O   UNL     1      32.257 -20.932 -19.355  0.00  0.00    -0.479 OA
ATOM     32  H   UNL     1      31.871 -20.441 -18.655  0.00  0.00    +0.295 HD
ENDBRANCH  30  31
ENDBRANCH  26  30
ENDBRANCH  25  26
ENDBRANCH   2  25
TORSDOF 10
ENDMDL
