MODEL 1
REMARK VINA RESULT:     -11.3      0.000      0.000
REMARK  Name = 24941243
REMARK  5 active torsions:
REMARK  status: ('A' for Active; 'I' for Inactive)
REMARK    1  A    between atoms: N_1  and  C_14
REMARK    2  A    between atoms: N_2  and  C_22
REMARK    3  A    between atoms: C_25  and  O_28
REMARK    4  A    between atoms: C_26  and  O_30
REMARK    5  A    between atoms: C_27  and  O_32
REMARK                            x       y       z     vdW  Elec       q    Type
REMARK                         _______ _______ _______ _____ _____    ______ ____
ROOT
ATOM      1  N   UNL     1      34.810 -18.251 -22.287  0.00  0.00    -0.260 N 
ATOM      2  N   UNL     1      33.631 -13.952 -23.865  0.00  0.00    -0.247 N 
ATOM      3  N   UNL     1      34.212 -16.093 -23.102  0.00  0.00    -0.322 NA
ATOM      4  N   UNL     1      34.187 -14.209 -21.599  0.00  0.00    -0.170 NA
ATOM      5  C   UNL     1      34.594 -16.867 -22.064  0.00  0.00    +0.201 C 
ATOM      6  C   UNL     1      34.996 -18.701 -23.670  0.00  0.00    +0.120 C 
ATOM      7  C   UNL     1      34.790 -16.392 -20.784  0.00  0.00    +0.070 C 
ATOM      8  C   UNL     1      34.030 -14.793 -22.803  0.00  0.00    +0.150 C 
ATOM      9  C   UNL     1      34.569 -15.041 -20.608  0.00  0.00    +0.116 C 
ATOM     10  H   UNL     1      33.528 -14.421 -24.724  0.00  0.00    +0.165 HD
ENDROOT
BRANCH   1  14
ATOM     11  N   UNL     1      35.461 -22.370 -18.290  0.00  0.00    -0.280 N 
ATOM     12  N   UNL     1      36.280 -21.524 -18.943  0.00  0.00    -0.173 NA
ATOM     13  C   UNL     1      34.111 -21.269 -19.564  0.00  0.00    +0.032 A 
ATOM     14  C   UNL     1      34.625 -19.291 -21.337  0.00  0.00    +0.055 C 
ATOM     15  C   UNL     1      35.470 -20.818 -19.750  0.00  0.00    +0.103 A 
ATOM     16  C   UNL     1      34.143 -22.261 -18.626  0.00  0.00    +0.053 A 
ATOM     17  C   UNL     1      35.763 -19.791 -20.666  0.00  0.00    +0.036 C 
ATOM     18  C   UNL     1      32.973 -20.799 -20.207  0.00  0.00    +0.004 C 
ATOM     19  C   UNL     1      33.296 -19.772 -21.116  0.00  0.00    +0.015 C 
ATOM     20  C   UNL     1      33.108 -23.109 -18.010  0.00  0.00    +0.051 C 
ATOM     21  H   UNL     1      35.787 -23.017 -17.623  0.00  0.00    +0.189 HD
ENDBRANCH   1  14
BRANCH   2  22
ATOM     22  C   UNL     1      33.351 -12.575 -23.935  0.00  0.00    +0.064 C 
ATOM     23  C   UNL     1      32.443 -12.002 -23.046  0.00  0.00    +0.055 C 
ATOM     24  C   UNL     1      33.984 -11.782 -24.893  0.00  0.00    +0.055 C 
ATOM     25  C   UNL     1      33.709 -10.417 -24.960  0.00  0.00    +0.177 C 
ATOM     26  C   UNL     1      32.168 -10.636 -23.114  0.00  0.00    +0.177 C 
ATOM     27  C   UNL     1      32.801  -9.843 -24.071  0.00  0.00    +0.206 C 
BRANCH  25  28
ATOM     28  O   UNL     1      34.335  -9.653 -25.900  0.00  0.00    -0.468 OA
ATOM     29  C   UNL     1      35.684  -9.277 -25.636  0.00  0.00    +0.253 C 
ENDBRANCH  25  28
BRANCH  26  30
ATOM     30  O   UNL     1      31.277 -10.088 -22.239  0.00  0.00    -0.468 OA
ATOM     31  C   UNL     1      30.709 -10.959 -21.264  0.00  0.00    +0.253 C 
ENDBRANCH  26  30
BRANCH  27  32
ATOM     32  O   UNL     1      32.531  -8.508 -24.138  0.00  0.00    -0.465 OA
ATOM     33  C   UNL     1      33.257  -7.656 -23.256  0.00  0.00    +0.253 C 
ENDBRANCH  27  32
ENDBRANCH   2  22
TORSDOF 5
ENDMDL
MODEL 2
REMARK VINA RESULT:     -11.3      0.366      2.314
REMARK  Name = 24941243
REMARK  5 active torsions:
REMARK  status: ('A' for Active; 'I' for Inactive)
REMARK    1  A    between atoms: N_1  and  C_14
REMARK    2  A    between atoms: N_2  and  C_22
REMARK    3  A    between atoms: C_25  and  O_28
REMARK    4  A    between atoms: C_26  and  O_30
REMARK    5  A    between atoms: C_27  and  O_32
REMARK                            x       y       z     vdW  Elec       q    Type
REMARK                         _______ _______ _______ _____ _____    ______ ____
ROOT
ATOM      1  N   UNL     1      34.904 -17.979 -22.425  0.00  0.00    -0.260 N 
ATOM      2  N   UNL     1      33.636 -13.716 -24.032  0.00  0.00    -0.247 N 
ATOM      3  N   UNL     1      34.263 -15.840 -23.255  0.00  0.00    -0.322 NA
ATOM      4  N   UNL     1      34.061 -13.977 -21.738  0.00  0.00    -0.170 NA
ATOM      5  C   UNL     1      34.613 -16.609 -22.203  0.00  0.00    +0.201 C 
ATOM      6  C   UNL     1      35.196 -18.404 -23.798  0.00  0.00    +0.120 C 
ATOM      7  C   UNL     1      34.708 -16.142 -20.908  0.00  0.00    +0.070 C 
ATOM      8  C   UNL     1      34.005 -14.553 -22.955  0.00  0.00    +0.150 C 
ATOM      9  C   UNL     1      34.417 -14.805 -20.733  0.00  0.00    +0.116 C 
ATOM     10  H   UNL     1      33.608 -14.179 -24.900  0.00  0.00    +0.165 HD
ENDROOT
BRANCH   1  14
ATOM     11  N   UNL     1      35.495 -22.146 -18.468  0.00  0.00    -0.280 N 
ATOM     12  N   UNL     1      36.320 -21.272 -19.077  0.00  0.00    -0.173 NA
ATOM     13  C   UNL     1      34.170 -21.055 -19.777  0.00  0.00    +0.032 A 
ATOM     14  C   UNL     1      34.707 -19.038 -21.499  0.00  0.00    +0.055 C 
ATOM     15  C   UNL     1      35.524 -20.571 -19.904  0.00  0.00    +0.103 A 
ATOM     16  C   UNL     1      34.189 -22.060 -18.853  0.00  0.00    +0.053 A 
ATOM     17  C   UNL     1      35.829 -19.523 -20.792  0.00  0.00    +0.036 C 
ATOM     18  C   UNL     1      33.047 -20.600 -20.456  0.00  0.00    +0.004 C 
ATOM     19  C   UNL     1      33.381 -19.552 -21.336  0.00  0.00    +0.015 C 
ATOM     20  C   UNL     1      33.151 -22.941 -18.291  0.00  0.00    +0.051 C 
ATOM     21  H   UNL     1      35.810 -22.796 -17.799  0.00  0.00    +0.189 HD
ENDBRANCH   1  14
BRANCH   2  22
ATOM     22  C   UNL     1      33.300 -12.352 -24.106  0.00  0.00    +0.064 C 
ATOM     23  C   UNL     1      33.741 -11.584 -25.182  0.00  0.00    +0.055 C 
ATOM     24  C   UNL     1      32.524 -11.768 -23.104  0.00  0.00    +0.055 C 
ATOM     25  C   UNL     1      32.189 -10.417 -23.180  0.00  0.00    +0.177 C 
ATOM     26  C   UNL     1      33.406 -10.231 -25.258  0.00  0.00    +0.177 C 
ATOM     27  C   UNL     1      32.630  -9.648 -24.257  0.00  0.00    +0.206 C 
BRANCH  25  28
ATOM     28  O   UNL     1      31.430  -9.859 -22.195  0.00  0.00    -0.468 OA
ATOM     29  C   UNL     1      30.593 -10.737 -21.446  0.00  0.00    +0.253 C 
ENDBRANCH  25  28
BRANCH  26  30
ATOM     30  O   UNL     1      33.844  -9.492 -26.315  0.00  0.00    -0.468 OA
ATOM     31  C   UNL     1      35.188  -9.019 -26.263  0.00  0.00    +0.253 C 
ENDBRANCH  26  30
BRANCH  27  32
ATOM     32  O   UNL     1      32.304  -8.326 -24.330  0.00  0.00    -0.465 OA
ATOM     33  C   UNL     1      33.144  -7.413 -23.629  0.00  0.00    +0.253 C 
ENDBRANCH  27  32
ENDBRANCH   2  22
TORSDOF 5
ENDMDL
MODEL 3
REMARK VINA RESULT:     -11.3      5.855     11.635
REMARK  Name = 24941243
REMARK  5 active torsions:
REMARK  status: ('A' for Active; 'I' for Inactive)
REMARK    1  A    between atoms: N_1  and  C_14
REMARK    2  A    between atoms: N_2  and  C_22
REMARK    3  A    between atoms: C_25  and  O_28
REMARK    4  A    between atoms: C_26  and  O_30
REMARK    5  A    between atoms: C_27  and  O_32
REMARK                            x       y       z     vdW  Elec       q    Type
REMARK                         _______ _______ _______ _____ _____    ______ ____
ROOT
ATOM      1  N   UNL     1      35.995 -18.856 -21.976  0.00  0.00    -0.260 N 
ATOM      2  N   UNL     1      36.359 -21.470 -18.052  0.00  0.00    -0.247 N 
ATOM      3  N   UNL     1      36.200 -20.167 -19.997  0.00  0.00    -0.322 NA
ATOM      4  N   UNL     1      34.274 -21.323 -19.120  0.00  0.00    -0.170 NA
ATOM      5  C   UNL     1      35.418 -19.700 -20.993  0.00  0.00    +0.201 C 
ATOM      6  C   UNL     1      37.457 -18.846 -22.098  0.00  0.00    +0.120 C 
ATOM      7  C   UNL     1      34.076 -19.995 -21.119  0.00  0.00    +0.070 C 
ATOM      8  C   UNL     1      35.572 -20.961 -19.109  0.00  0.00    +0.150 C 
ATOM      9  C   UNL     1      33.553 -20.819 -20.144  0.00  0.00    +0.116 C 
ATOM     10  H   UNL     1      37.300 -21.180 -18.084  0.00  0.00    +0.165 HD
ENDROOT
BRANCH   1  14
ATOM     11  N   UNL     1      33.257 -15.661 -25.933  0.00  0.00    -0.280 N 
ATOM     12  N   UNL     1      33.754 -16.911 -25.881  0.00  0.00    -0.173 NA
ATOM     13  C   UNL     1      34.069 -15.781 -23.937  0.00  0.00    +0.032 A 
ATOM     14  C   UNL     1      35.326 -17.831 -22.697  0.00  0.00    +0.055 C 
ATOM     15  C   UNL     1      34.270 -17.023 -24.645  0.00  0.00    +0.103 A 
ATOM     16  C   UNL     1      33.420 -14.934 -24.790  0.00  0.00    +0.053 A 
ATOM     17  C   UNL     1      34.921 -18.103 -24.022  0.00  0.00    +0.036 C 
ATOM     18  C   UNL     1      34.454 -15.482 -22.636  0.00  0.00    +0.004 C 
ATOM     19  C   UNL     1      35.102 -16.581 -22.038  0.00  0.00    +0.015 C 
ATOM     20  C   UNL     1      32.939 -13.548 -24.671  0.00  0.00    +0.051 C 
ATOM     21  H   UNL     1      32.812 -15.299 -26.733  0.00  0.00    +0.189 HD
ENDBRANCH   1  14
BRANCH   2  22
ATOM     22  C   UNL     1      36.062 -22.310 -16.963  0.00  0.00    +0.064 C 
ATOM     23  C   UNL     1      37.086 -22.760 -16.131  0.00  0.00    +0.055 C 
ATOM     24  C   UNL     1      34.743 -22.690 -16.713  0.00  0.00    +0.055 C 
ATOM     25  C   UNL     1      34.449 -23.519 -15.632  0.00  0.00    +0.177 C 
ATOM     26  C   UNL     1      36.792 -23.591 -15.049  0.00  0.00    +0.177 C 
ATOM     27  C   UNL     1      35.473 -23.970 -14.799  0.00  0.00    +0.206 C 
BRANCH  25  28
ATOM     28  O   UNL     1      33.157 -23.883 -15.399  0.00  0.00    -0.468 OA
ATOM     29  C   UNL     1      32.174 -23.405 -16.315  0.00  0.00    +0.253 C 
ENDBRANCH  25  28
BRANCH  26  30
ATOM     30  O   UNL     1      37.803 -24.024 -14.244  0.00  0.00    -0.468 OA
ATOM     31  C   UNL     1      38.573 -25.130 -14.709  0.00  0.00    +0.253 C 
ENDBRANCH  26  30
BRANCH  27  32
ATOM     32  O   UNL     1      35.186 -24.782 -13.743  0.00  0.00    -0.465 OA
ATOM     33  C   UNL     1      34.921 -24.150 -12.493  0.00  0.00    +0.253 C 
ENDBRANCH  27  32
ENDBRANCH   2  22
TORSDOF 5
ENDMDL
MODEL 4
REMARK VINA RESULT:     -11.3      5.861     11.537
REMARK  Name = 24941243
REMARK  5 active torsions:
REMARK  status: ('A' for Active; 'I' for Inactive)
REMARK    1  A    between atoms: N_1  and  C_14
REMARK    2  A    between atoms: N_2  and  C_22
REMARK    3  A    between atoms: C_25  and  O_28
REMARK    4  A    between atoms: C_26  and  O_30
REMARK    5  A    between atoms: C_27  and  O_32
REMARK                            x       y       z     vdW  Elec       q    Type
REMARK                         _______ _______ _______ _____ _____    ______ ____
ROOT
ATOM      1  N   UNL     1      35.997 -18.852 -21.975  0.00  0.00    -0.260 N 
ATOM      2  N   UNL     1      36.368 -21.465 -18.051  0.00  0.00    -0.247 N 
ATOM      3  N   UNL     1      36.206 -20.163 -19.996  0.00  0.00    -0.322 NA
ATOM      4  N   UNL     1      34.284 -21.326 -19.121  0.00  0.00    -0.170 NA
ATOM      5  C   UNL     1      35.423 -19.699 -20.993  0.00  0.00    +0.201 C 
ATOM      6  C   UNL     1      37.459 -18.837 -22.096  0.00  0.00    +0.120 C 
ATOM      7  C   UNL     1      34.083 -19.999 -21.120  0.00  0.00    +0.070 C 
ATOM      8  C   UNL     1      35.581 -20.959 -19.109  0.00  0.00    +0.150 C 
ATOM      9  C   UNL     1      33.561 -20.826 -20.145  0.00  0.00    +0.116 C 
ATOM     10  H   UNL     1      37.308 -21.171 -18.082  0.00  0.00    +0.165 HD
ENDROOT
BRANCH   1  14
ATOM     11  N   UNL     1      33.247 -15.669 -25.933  0.00  0.00    -0.280 N 
ATOM     12  N   UNL     1      33.747 -16.919 -25.881  0.00  0.00    -0.173 NA
ATOM     13  C   UNL     1      34.062 -15.785 -23.938  0.00  0.00    +0.032 A 
ATOM     14  C   UNL     1      35.325 -17.830 -22.697  0.00  0.00    +0.055 C 
ATOM     15  C   UNL     1      34.265 -17.027 -24.645  0.00  0.00    +0.103 A 
ATOM     16  C   UNL     1      33.409 -14.941 -24.791  0.00  0.00    +0.053 A 
ATOM     17  C   UNL     1      34.919 -18.106 -24.021  0.00  0.00    +0.036 C 
ATOM     18  C   UNL     1      34.448 -15.483 -22.638  0.00  0.00    +0.004 C 
ATOM     19  C   UNL     1      35.098 -16.580 -22.039  0.00  0.00    +0.015 C 
ATOM     20  C   UNL     1      32.925 -13.556 -24.674  0.00  0.00    +0.051 C 
ATOM     21  H   UNL     1      32.800 -15.310 -26.734  0.00  0.00    +0.189 HD
ENDBRANCH   1  14
BRANCH   2  22
ATOM     22  C   UNL     1      36.074 -22.306 -16.962  0.00  0.00    +0.064 C 
ATOM     23  C   UNL     1      34.758 -22.698 -16.719  0.00  0.00    +0.055 C 
ATOM     24  C   UNL     1      37.100 -22.750 -16.125  0.00  0.00    +0.055 C 
ATOM     25  C   UNL     1      36.808 -23.585 -15.049  0.00  0.00    +0.177 C 
ATOM     26  C   UNL     1      34.467 -23.534 -15.641  0.00  0.00    +0.177 C 
ATOM     27  C   UNL     1      35.492 -23.978 -14.806  0.00  0.00    +0.206 C 
BRANCH  25  28
ATOM     28  O   UNL     1      37.818 -24.012 -14.240  0.00  0.00    -0.468 OA
ATOM     29  C   UNL     1      38.556 -25.153 -14.672  0.00  0.00    +0.253 C 
ENDBRANCH  25  28
BRANCH  26  30
ATOM     30  O   UNL     1      33.176 -23.909 -15.415  0.00  0.00    -0.468 OA
ATOM     31  C   UNL     1      32.192 -23.423 -16.324  0.00  0.00    +0.253 C 
ENDBRANCH  26  30
BRANCH  27  32
ATOM     32  O   UNL     1      35.207 -24.794 -13.751  0.00  0.00    -0.465 OA
ATOM     33  C   UNL     1      34.908 -24.164 -12.508  0.00  0.00    +0.253 C 
ENDBRANCH  27  32
ENDBRANCH   2  22
TORSDOF 5
ENDMDL
MODEL 5
REMARK VINA RESULT:     -11.2      4.020      7.078
REMARK  Name = 24941243
REMARK  5 active torsions:
REMARK  status: ('A' for Active; 'I' for Inactive)
REMARK    1  A    between atoms: N_1  and  C_14
REMARK    2  A    between atoms: N_2  and  C_22
REMARK    3  A    between atoms: C_25  and  O_28
REMARK    4  A    between atoms: C_26  and  O_30
REMARK    5  A    between atoms: C_27  and  O_32
REMARK                            x       y       z     vdW  Elec       q    Type
REMARK                         _______ _______ _______ _____ _____    ______ ____
ROOT
ATOM      1  N   UNL     1      34.069 -22.732 -17.512  0.00  0.00    -0.260 N 
ATOM      2  N   UNL     1      33.561 -19.799 -21.187  0.00  0.00    -0.247 N 
ATOM      3  N   UNL     1      33.791 -21.255 -19.362  0.00  0.00    -0.322 NA
ATOM      4  N   UNL     1      35.728 -20.357 -20.479  0.00  0.00    -0.170 NA
ATOM      5  C   UNL     1      34.624 -21.917 -18.531  0.00  0.00    +0.201 C 
ATOM      6  C   UNL     1      32.664 -23.133 -17.645  0.00  0.00    +0.120 C 
ATOM      7  C   UNL     1      36.000 -21.849 -18.610  0.00  0.00    +0.070 C 
ATOM      8  C   UNL     1      34.401 -20.506 -20.298  0.00  0.00    +0.150 C 
ATOM      9  C   UNL     1      36.501 -21.046 -19.614  0.00  0.00    +0.116 C 
ATOM     10  H   UNL     1      32.601 -19.937 -21.017  0.00  0.00    +0.165 HD
ENDROOT
BRANCH   1  14
ATOM     11  N   UNL     1      35.122 -24.203 -12.027  0.00  0.00    -0.280 N 
ATOM     12  N   UNL     1      34.036 -24.166 -12.822  0.00  0.00    -0.173 NA
ATOM     13  C   UNL     1      35.914 -23.482 -13.901  0.00  0.00    +0.032 A 
ATOM     14  C   UNL     1      34.653 -23.007 -16.247  0.00  0.00    +0.055 C 
ATOM     15  C   UNL     1      34.494 -23.720 -14.005  0.00  0.00    +0.103 A 
ATOM     16  C   UNL     1      36.281 -23.801 -12.624  0.00  0.00    +0.053 A 
ATOM     17  C   UNL     1      33.815 -23.481 -15.214  0.00  0.00    +0.036 C 
ATOM     18  C   UNL     1      36.764 -23.018 -14.897  0.00  0.00    +0.004 C 
ATOM     19  C   UNL     1      36.059 -22.788 -16.094  0.00  0.00    +0.015 C 
ATOM     20  C   UNL     1      37.563 -23.776 -11.902  0.00  0.00    +0.051 C 
ATOM     21  H   UNL     1      35.083 -24.497 -11.088  0.00  0.00    +0.189 HD
ENDBRANCH   1  14
BRANCH   2  22
ATOM     22  C   UNL     1      33.827 -18.937 -22.267  0.00  0.00    +0.064 C 
ATOM     23  C   UNL     1      33.521 -19.334 -23.567  0.00  0.00    +0.055 C 
ATOM     24  C   UNL     1      34.394 -17.683 -22.035  0.00  0.00    +0.055 C 
ATOM     25  C   UNL     1      34.654 -16.828 -23.105  0.00  0.00    +0.177 C 
ATOM     26  C   UNL     1      33.782 -18.478 -24.638  0.00  0.00    +0.177 C 
ATOM     27  C   UNL     1      34.348 -17.225 -24.407  0.00  0.00    +0.206 C 
BRANCH  25  28
ATOM     28  O   UNL     1      35.207 -15.606 -22.866  0.00  0.00    -0.468 OA
ATOM     29  C   UNL     1      34.338 -14.584 -22.384  0.00  0.00    +0.253 C 
ENDBRANCH  25  28
BRANCH  26  30
ATOM     30  O   UNL     1      33.478 -18.880 -25.905  0.00  0.00    -0.468 OA
ATOM     31  C   UNL     1      32.102 -18.862 -26.277  0.00  0.00    +0.253 C 
ENDBRANCH  26  30
BRANCH  27  32
ATOM     32  O   UNL     1      34.604 -16.389 -25.453  0.00  0.00    -0.465 OA
ATOM     33  C   UNL     1      33.535 -15.552 -25.890  0.00  0.00    +0.253 C 
ENDBRANCH  27  32
ENDBRANCH   2  22
TORSDOF 5
ENDMDL
MODEL 6
REMARK VINA RESULT:     -11.2      4.015      7.045
REMARK  Name = 24941243
REMARK  5 active torsions:
REMARK  status: ('A' for Active; 'I' for Inactive)
REMARK    1  A    between atoms: N_1  and  C_14
REMARK    2  A    between atoms: N_2  and  C_22
REMARK    3  A    between atoms: C_25  and  O_28
REMARK    4  A    between atoms: C_26  and  O_30
REMARK    5  A    between atoms: C_27  and  O_32
REMARK                            x       y       z     vdW  Elec       q    Type
REMARK                         _______ _______ _______ _____ _____    ______ ____
ROOT
ATOM      1  N   UNL     1      34.063 -22.737 -17.517  0.00  0.00    -0.260 N 
ATOM      2  N   UNL     1      33.552 -19.796 -21.185  0.00  0.00    -0.247 N 
ATOM      3  N   UNL     1      33.783 -21.256 -19.363  0.00  0.00    -0.322 NA
ATOM      4  N   UNL     1      35.720 -20.342 -20.470  0.00  0.00    -0.170 NA
ATOM      5  C   UNL     1      34.617 -21.915 -18.531  0.00  0.00    +0.201 C 
ATOM      6  C   UNL     1      32.661 -23.146 -17.657  0.00  0.00    +0.120 C 
ATOM      7  C   UNL     1      35.993 -21.838 -18.604  0.00  0.00    +0.070 C 
ATOM      8  C   UNL     1      34.393 -20.500 -20.295  0.00  0.00    +0.150 C 
ATOM      9  C   UNL     1      36.493 -21.029 -19.604  0.00  0.00    +0.116 C 
ATOM     10  H   UNL     1      32.592 -19.941 -21.020  0.00  0.00    +0.165 HD
ENDROOT
BRANCH   1  14
ATOM     11  N   UNL     1      35.103 -24.219 -12.032  0.00  0.00    -0.280 N 
ATOM     12  N   UNL     1      34.020 -24.188 -12.832  0.00  0.00    -0.173 NA
ATOM     13  C   UNL     1      35.897 -23.485 -13.900  0.00  0.00    +0.032 A 
ATOM     14  C   UNL     1      34.644 -23.012 -16.250  0.00  0.00    +0.055 C 
ATOM     15  C   UNL     1      34.480 -23.734 -14.011  0.00  0.00    +0.103 A 
ATOM     16  C   UNL     1      36.261 -23.805 -12.623  0.00  0.00    +0.053 A 
ATOM     17  C   UNL     1      33.805 -23.496 -15.223  0.00  0.00    +0.036 C 
ATOM     18  C   UNL     1      36.749 -23.011 -14.890  0.00  0.00    +0.004 C 
ATOM     19  C   UNL     1      36.047 -22.783 -16.090  0.00  0.00    +0.015 C 
ATOM     20  C   UNL     1      37.541 -23.773 -11.894  0.00  0.00    +0.051 C 
ATOM     21  H   UNL     1      35.062 -24.516 -11.094  0.00  0.00    +0.189 HD
ENDBRANCH   1  14
BRANCH   2  22
ATOM     22  C   UNL     1      33.816 -18.929 -22.261  0.00  0.00    +0.064 C 
ATOM     23  C   UNL     1      34.374 -17.674 -22.024  0.00  0.00    +0.055 C 
ATOM     24  C   UNL     1      33.523 -19.327 -23.567  0.00  0.00    +0.055 C 
ATOM     25  C   UNL     1      33.788 -18.469 -24.633  0.00  0.00    +0.177 C 
ATOM     26  C   UNL     1      34.639 -16.815 -23.091  0.00  0.00    +0.177 C 
ATOM     27  C   UNL     1      34.347 -17.213 -24.396  0.00  0.00    +0.206 C 
BRANCH  25  28
ATOM     28  O   UNL     1      33.498 -18.869 -25.903  0.00  0.00    -0.468 OA
ATOM     29  C   UNL     1      32.127 -18.836 -26.294  0.00  0.00    +0.253 C 
ENDBRANCH  25  28
BRANCH  26  30
ATOM     30  O   UNL     1      35.184 -15.590 -22.845  0.00  0.00    -0.468 OA
ATOM     31  C   UNL     1      34.309 -14.579 -22.352  0.00  0.00    +0.253 C 
ENDBRANCH  26  30
BRANCH  27  32
ATOM     32  O   UNL     1      34.604 -16.373 -25.438  0.00  0.00    -0.465 OA
ATOM     33  C   UNL     1      33.537 -15.532 -25.871  0.00  0.00    +0.253 C 
ENDBRANCH  27  32
ENDBRANCH   2  22
TORSDOF 5
ENDMDL
MODEL 7
REMARK VINA RESULT:      -9.9      5.712     11.550
REMARK  Name = 24941243
REMARK  5 active torsions:
REMARK  status: ('A' for Active; 'I' for Inactive)
REMARK    1  A    between atoms: N_1  and  C_14
REMARK    2  A    between atoms: N_2  and  C_22
REMARK    3  A    between atoms: C_25  and  O_28
REMARK    4  A    between atoms: C_26  and  O_30
REMARK    5  A    between atoms: C_27  and  O_32
REMARK                            x       y       z     vdW  Elec       q    Type
REMARK                         _______ _______ _______ _____ _____    ______ ____
ROOT
ATOM      1  N   UNL     1      35.176 -19.011 -21.775  0.00  0.00    -0.260 N 
ATOM      2  N   UNL     1      34.568 -21.932 -18.106  0.00  0.00    -0.247 N 
ATOM      3  N   UNL     1      34.891 -20.481 -19.922  0.00  0.00    -0.322 NA
ATOM      4  N   UNL     1      32.698 -21.330 -19.391  0.00  0.00    -0.170 NA
ATOM      5  C   UNL     1      34.339 -19.808 -20.953  0.00  0.00    +0.201 C 
ATOM      6  C   UNL     1      36.621 -19.258 -21.725  0.00  0.00    +0.120 C 
ATOM      7  C   UNL     1      32.995 -19.845 -21.262  0.00  0.00    +0.070 C 
ATOM      8  C   UNL     1      34.026 -21.212 -19.194  0.00  0.00    +0.150 C 
ATOM      9  C   UNL     1      32.215 -20.630 -20.439  0.00  0.00    +0.116 C 
ATOM     10  H   UNL     1      35.540 -21.815 -18.000  0.00  0.00    +0.165 HD
ENDROOT
BRANCH   1  14
ATOM     11  N   UNL     1      33.448 -15.111 -25.670  0.00  0.00    -0.280 N 
ATOM     12  N   UNL     1      33.655 -16.442 -25.667  0.00  0.00    -0.173 NA
ATOM     13  C   UNL     1      34.092 -15.500 -23.647  0.00  0.00    +0.032 A 
ATOM     14  C   UNL     1      34.792 -17.832 -22.468  0.00  0.00    +0.055 C 
ATOM     15  C   UNL     1      34.059 -16.721 -24.415  0.00  0.00    +0.103 A 
ATOM     16  C   UNL     1      33.697 -14.492 -24.480  0.00  0.00    +0.053 A 
ATOM     17  C   UNL     1      34.418 -17.947 -23.825  0.00  0.00    +0.036 C 
ATOM     18  C   UNL     1      34.454 -15.353 -22.313  0.00  0.00    +0.004 C 
ATOM     19  C   UNL     1      34.808 -16.595 -21.749  0.00  0.00    +0.015 C 
ATOM     20  C   UNL     1      33.525 -13.040 -24.305  0.00  0.00    +0.051 C 
ATOM     21  H   UNL     1      33.142 -14.623 -26.469  0.00  0.00    +0.189 HD
ENDBRANCH   1  14
BRANCH   2  22
ATOM     22  C   UNL     1      33.992 -22.782 -17.145  0.00  0.00    +0.064 C 
ATOM     23  C   UNL     1      32.618 -23.017 -17.157  0.00  0.00    +0.055 C 
ATOM     24  C   UNL     1      34.796 -23.392 -16.181  0.00  0.00    +0.055 C 
ATOM     25  C   UNL     1      34.225 -24.237 -15.231  0.00  0.00    +0.177 C 
ATOM     26  C   UNL     1      32.047 -23.863 -16.205  0.00  0.00    +0.177 C 
ATOM     27  C   UNL     1      32.850 -24.473 -15.242  0.00  0.00    +0.206 C 
BRANCH  25  28
ATOM     28  O   UNL     1      35.021 -24.827 -14.295  0.00  0.00    -0.468 OA
ATOM     29  C   UNL     1      36.055 -25.684 -14.772  0.00  0.00    +0.253 C 
ENDBRANCH  25  28
BRANCH  26  30
ATOM     30  O   UNL     1      30.702 -24.083 -16.228  0.00  0.00    -0.468 OA
ATOM     31  C   UNL     1      29.861 -22.944 -16.388  0.00  0.00    +0.253 C 
ENDBRANCH  26  30
BRANCH  27  32
ATOM     32  O   UNL     1      32.292 -25.298 -14.311  0.00  0.00    -0.465 OA
ATOM     33  C   UNL     1      31.460 -24.692 -13.325  0.00  0.00    +0.253 C 
ENDBRANCH  27  32
ENDBRANCH   2  22
TORSDOF 5
ENDMDL
MODEL 8
REMARK VINA RESULT:      -9.9      4.567     11.405
REMARK  Name = 24941243
REMARK  5 active torsions:
REMARK  status: ('A' for Active; 'I' for Inactive)
REMARK    1  A    between atoms: N_1  and  C_14
REMARK    2  A    between atoms: N_2  and  C_22
REMARK    3  A    between atoms: C_25  and  O_28
REMARK    4  A    between atoms: C_26  and  O_30
REMARK    5  A    between atoms: C_27  and  O_32
REMARK                            x       y       z     vdW  Elec       q    Type
REMARK                         _______ _______ _______ _____ _____    ______ ____
ROOT
ATOM      1  N   UNL     1      32.066  -8.642 -22.293  0.00  0.00    -0.260 N 
ATOM      2  N   UNL     1      32.687 -13.135 -23.630  0.00  0.00    -0.247 N 
ATOM      3  N   UNL     1      32.363 -10.912 -22.953  0.00  0.00    -0.322 NA
ATOM      4  N   UNL     1      34.029 -11.473 -24.602  0.00  0.00    -0.170 NA
ATOM      5  C   UNL     1      32.730  -9.620 -23.077  0.00  0.00    +0.201 C 
ATOM      6  C   UNL     1      31.309  -9.101 -21.123  0.00  0.00    +0.120 C 
ATOM      7  C   UNL     1      33.723  -9.182 -23.929  0.00  0.00    +0.070 C 
ATOM      8  C   UNL     1      33.044 -11.772 -23.733  0.00  0.00    +0.150 C 
ATOM      9  C   UNL     1      34.345 -10.163 -24.674  0.00  0.00    +0.116 C 
ATOM     10  H   UNL     1      31.963 -13.307 -22.985  0.00  0.00    +0.165 HD
ENDROOT
BRANCH   1  14
ATOM     11  N   UNL     1      30.375  -3.697 -24.754  0.00  0.00    -0.280 N 
ATOM     12  N   UNL     1      30.143  -5.007 -24.965  0.00  0.00    -0.173 NA
ATOM     13  C   UNL     1      31.543  -4.656 -23.212  0.00  0.00    +0.032 A 
ATOM     14  C   UNL     1      31.850  -7.285 -22.652  0.00  0.00    +0.055 C 
ATOM     15  C   UNL     1      30.857  -5.638 -24.018  0.00  0.00    +0.103 A 
ATOM     16  C   UNL     1      31.213  -3.428 -23.711  0.00  0.00    +0.053 A 
ATOM     17  C   UNL     1      31.000  -7.011 -23.746  0.00  0.00    +0.036 C 
ATOM     18  C   UNL     1      32.383  -4.892 -22.131  0.00  0.00    +0.004 C 
ATOM     19  C   UNL     1      32.507  -6.273 -21.883  0.00  0.00    +0.015 C 
ATOM     20  C   UNL     1      31.578  -2.051 -23.339  0.00  0.00    +0.051 C 
ATOM     21  H   UNL     1      29.974  -2.990 -25.308  0.00  0.00    +0.189 HD
ENDBRANCH   1  14
BRANCH   2  22
ATOM     22  C   UNL     1      33.163 -14.295 -24.269  0.00  0.00    +0.064 C 
ATOM     23  C   UNL     1      34.004 -15.172 -23.585  0.00  0.00    +0.055 C 
ATOM     24  C   UNL     1      32.791 -14.569 -25.586  0.00  0.00    +0.055 C 
ATOM     25  C   UNL     1      33.260 -15.721 -26.217  0.00  0.00    +0.177 C 
ATOM     26  C   UNL     1      34.474 -16.324 -24.217  0.00  0.00    +0.177 C 
ATOM     27  C   UNL     1      34.102 -16.598 -25.533  0.00  0.00    +0.206 C 
BRANCH  25  28
ATOM     28  O   UNL     1      32.890 -15.977 -27.503  0.00  0.00    -0.468 OA
ATOM     29  C   UNL     1      31.494 -16.105 -27.762  0.00  0.00    +0.253 C 
ENDBRANCH  25  28
BRANCH  26  30
ATOM     30  O   UNL     1      35.295 -17.172 -23.537  0.00  0.00    -0.468 OA
ATOM     31  C   UNL     1      34.725 -17.890 -22.446  0.00  0.00    +0.253 C 
ENDBRANCH  26  30
BRANCH  27  32
ATOM     32  O   UNL     1      34.562 -17.723 -26.151  0.00  0.00    -0.465 OA
ATOM     33  C   UNL     1      33.824 -18.925 -25.942  0.00  0.00    +0.253 C 
ENDBRANCH  27  32
ENDBRANCH   2  22
TORSDOF 5
ENDMDL
MODEL 9
REMARK VINA RESULT:      -9.8      4.583     11.502
REMARK  Name = 24941243
REMARK  5 active torsions:
REMARK  status: ('A' for Active; 'I' for Inactive)
REMARK    1  A    between atoms: N_1  and  C_14
REMARK    2  A    between atoms: N_2  and  C_22
REMARK    3  A    between atoms: C_25  and  O_28
REMARK    4  A    between atoms: C_26  and  O_30
REMARK    5  A    between atoms: C_27  and  O_32
REMARK                            x       y       z     vdW  Elec       q    Type
REMARK                         _______ _______ _______ _____ _____    ______ ____
ROOT
ATOM      1  N   UNL     1      32.110  -8.579 -22.358  0.00  0.00    -0.260 N 
ATOM      2  N   UNL     1      32.693 -13.089 -23.653  0.00  0.00    -0.247 N 
ATOM      3  N   UNL     1      32.387 -10.857 -22.997  0.00  0.00    -0.322 NA
ATOM      4  N   UNL     1      34.027 -11.444 -24.663  0.00  0.00    -0.170 NA
ATOM      5  C   UNL     1      32.758  -9.568 -23.140  0.00  0.00    +0.201 C 
ATOM      6  C   UNL     1      31.369  -9.021 -21.172  0.00  0.00    +0.120 C 
ATOM      7  C   UNL     1      33.740  -9.144 -24.012  0.00  0.00    +0.070 C 
ATOM      8  C   UNL     1      33.053 -11.729 -23.777  0.00  0.00    +0.150 C 
ATOM      9  C   UNL     1      34.347 -10.136 -24.755  0.00  0.00    +0.116 C 
ATOM     10  H   UNL     1      31.978 -13.250 -22.995  0.00  0.00    +0.165 HD
ENDROOT
BRANCH   1  14
ATOM     11  N   UNL     1      30.456  -3.657 -24.890  0.00  0.00    -0.280 N 
ATOM     12  N   UNL     1      30.240  -4.970 -25.103  0.00  0.00    -0.173 NA
ATOM     13  C   UNL     1      31.583  -4.600 -23.309  0.00  0.00    +0.032 A 
ATOM     14  C   UNL     1      31.895  -7.225 -22.729  0.00  0.00    +0.055 C 
ATOM     15  C   UNL     1      30.930  -5.591 -24.131  0.00  0.00    +0.103 A 
ATOM     16  C   UNL     1      31.259  -3.377 -23.823  0.00  0.00    +0.053 A 
ATOM     17  C   UNL     1      31.076  -6.962 -23.850  0.00  0.00    +0.036 C 
ATOM     18  C   UNL     1      32.392  -4.825 -22.202  0.00  0.00    +0.004 C 
ATOM     19  C   UNL     1      32.520  -6.204 -21.944  0.00  0.00    +0.015 C 
ATOM     20  C   UNL     1      31.602  -1.996 -23.446  0.00  0.00    +0.051 C 
ATOM     21  H   UNL     1      30.066  -2.955 -25.459  0.00  0.00    +0.189 HD
ENDBRANCH   1  14
BRANCH   2  22
ATOM     22  C   UNL     1      33.154 -14.258 -24.285  0.00  0.00    +0.064 C 
ATOM     23  C   UNL     1      32.778 -14.535 -25.599  0.00  0.00    +0.055 C 
ATOM     24  C   UNL     1      33.991 -15.140 -23.599  0.00  0.00    +0.055 C 
ATOM     25  C   UNL     1      34.450 -16.296 -24.227  0.00  0.00    +0.177 C 
ATOM     26  C   UNL     1      33.237 -15.693 -26.227  0.00  0.00    +0.177 C 
ATOM     27  C   UNL     1      34.074 -16.573 -25.541  0.00  0.00    +0.206 C 
BRANCH  25  28
ATOM     28  O   UNL     1      35.267 -17.148 -23.546  0.00  0.00    -0.468 OA
ATOM     29  C   UNL     1      34.712 -17.808 -22.410  0.00  0.00    +0.253 C 
ENDBRANCH  25  28
BRANCH  26  30
ATOM     30  O   UNL     1      32.861 -15.952 -27.511  0.00  0.00    -0.468 OA
ATOM     31  C   UNL     1      31.527 -16.409 -27.716  0.00  0.00    +0.253 C 
ENDBRANCH  26  30
BRANCH  27  32
ATOM     32  O   UNL     1      34.522 -17.706 -26.154  0.00  0.00    -0.465 OA
ATOM     33  C   UNL     1      33.791 -18.905 -25.913  0.00  0.00    +0.253 C 
ENDBRANCH  27  32
ENDBRANCH   2  22
TORSDOF 5
ENDMDL
