MODEL 1
REMARK VINA RESULT:     -12.4      0.000      0.000
REMARK  Name = 447653
REMARK  8 active torsions:
REMARK  status: ('A' for Active; 'I' for Inactive)
REMARK    1  A    between atoms: N_2  and  C_20
REMARK    2  A    between atoms: C_4  and  C_11
REMARK    3  A    between atoms: C_19  and  O_25
REMARK    4  A    between atoms: O_25  and  C_26
REMARK    5  A    between atoms: C_26  and  C_27
REMARK    6  A    between atoms: C_27  and  O_28
REMARK    7  A    between atoms: C_27  and  C_30
REMARK    8  A    between atoms: C_30  and  N_31
REMARK                            x       y       z     vdW  Elec       q    Type
REMARK                         _______ _______ _______ _____ _____    ______ ____
ROOT
ATOM      1  N   UNL     1      34.082 -22.895 -17.005  0.00  0.00    -0.340 NA
ATOM      2  N   UNL     1      32.350 -22.147 -18.399  0.00  0.00    -0.247 N 
ATOM      3  N   UNL     1      31.783 -23.430 -16.517  0.00  0.00    -0.170 NA
ATOM      4  C   UNL     1      34.432 -23.583 -15.902  0.00  0.00    +0.148 C 
ATOM      5  C   UNL     1      33.537 -24.213 -15.067  0.00  0.00    +0.052 C 
ATOM      6  C   UNL     1      32.758 -22.859 -17.251  0.00  0.00    +0.148 C 
ATOM      7  C   UNL     1      32.210 -24.102 -15.429  0.00  0.00    +0.114 C 
ATOM      8  H   UNL     1      31.374 -22.146 -18.538  0.00  0.00    +0.165 HD
ENDROOT
BRANCH   4  11
ATOM      9  N   UNL     1      36.480 -24.563 -14.868  0.00  0.00    -0.251 N 
ATOM     10  N   UNL     1      38.076 -23.174 -15.593  0.00  0.00    -0.393 NA
ATOM     11  C   UNL     1      35.853 -23.620 -15.642  0.00  0.00    +0.181 C 
ATOM     12  C   UNL     1      37.836 -24.247 -14.869  0.00  0.00    +0.187 C 
ATOM     13  C   UNL     1      36.852 -22.781 -16.074  0.00  0.00    +0.114 C 
ATOM     14  C   UNL     1      35.941 -25.649 -14.184  0.00  0.00    +0.068 C 
ATOM     15  C   UNL     1      38.699 -25.101 -14.119  0.00  0.00    +0.048 C 
ATOM     16  C   UNL     1      36.747 -21.593 -16.936  0.00  0.00    +0.064 C 
ATOM     17  C   UNL     1      36.760 -26.448 -13.481  0.00  0.00    +0.016 C 
ATOM     18  C   UNL     1      38.184 -26.154 -13.456  0.00  0.00    +0.005 C 
ENDBRANCH   4  11
BRANCH   2  20
ATOM     19  C   UNL     1      34.473 -20.024 -21.336  0.00  0.00    +0.139 C 
ATOM     20  C   UNL     1      33.062 -21.436 -19.383  0.00  0.00    +0.058 C 
ATOM     21  C   UNL     1      35.140 -20.932 -20.512  0.00  0.00    +0.038 C 
ATOM     22  C   UNL     1      33.102 -19.822 -21.184  0.00  0.00    +0.038 C 
ATOM     23  C   UNL     1      34.434 -21.637 -19.537  0.00  0.00    +0.018 C 
ATOM     24  C   UNL     1      32.396 -20.526 -20.208  0.00  0.00    +0.018 C 
BRANCH  19  25
ATOM     25  O   UNL     1      35.162 -19.336 -22.288  0.00  0.00    -0.473 OA
BRANCH  25  26
ATOM     26  C   UNL     1      35.418 -17.956 -22.032  0.00  0.00    +0.232 C 
BRANCH  26  27
ATOM     27  C   UNL     1      34.674 -17.117 -23.067  0.00  0.00    +0.133 C 
BRANCH  27  28
ATOM     28  O   UNL     1      35.445 -15.946 -23.350  0.00  0.00    -0.383 OA
ATOM     29  H   UNL     1      36.376 -16.111 -23.130  0.00  0.00    +0.210 HD
ENDBRANCH  27  28
BRANCH  27  30
ATOM     30  C   UNL     1      34.430 -17.857 -24.385  0.00  0.00    -0.044 C 
BRANCH  30  31
ATOM     31  N   UNL     1      33.094 -17.611 -24.912  0.00  0.00    +0.386 N 
ATOM     32  C   UNL     1      33.079 -16.400 -25.736  0.00  0.00    -0.101 C 
ATOM     33  C   UNL     1      32.626 -18.759 -25.690  0.00  0.00    -0.101 C 
ATOM     34  H   UNL     1      32.463 -17.473 -24.123  0.00  0.00    -0.080 HD
ENDBRANCH  30  31
ENDBRANCH  27  30
ENDBRANCH  26  27
ENDBRANCH  25  26
ENDBRANCH  19  25
ENDBRANCH   2  20
TORSDOF 8
ENDMDL
MODEL 2
REMARK VINA RESULT:     -11.8      1.231      1.255
REMARK  Name = 447653
REMARK  8 active torsions:
REMARK  status: ('A' for Active; 'I' for Inactive)
REMARK    1  A    between atoms: N_2  and  C_20
REMARK    2  A    between atoms: C_4  and  C_11
REMARK    3  A    between atoms: C_19  and  O_25
REMARK    4  A    between atoms: O_25  and  C_26
REMARK    5  A    between atoms: C_26  and  C_27
REMARK    6  A    between atoms: C_27  and  O_28
REMARK    7  A    between atoms: C_27  and  C_30
REMARK    8  A    between atoms: C_30  and  N_31
REMARK                            x       y       z     vdW  Elec       q    Type
REMARK                         _______ _______ _______ _____ _____    ______ ____
ROOT
ATOM      1  N   UNL     1      33.609 -22.801 -16.686  0.00  0.00    -0.340 NA
ATOM      2  N   UNL     1      32.117 -22.260 -18.414  0.00  0.00    -0.247 N 
ATOM      3  N   UNL     1      31.309 -23.513 -16.602  0.00  0.00    -0.170 NA
ATOM      4  C   UNL     1      33.797 -23.413 -15.501  0.00  0.00    +0.148 C 
ATOM      5  C   UNL     1      32.813 -24.085 -14.813  0.00  0.00    +0.052 C 
ATOM      6  C   UNL     1      32.356 -22.889 -17.173  0.00  0.00    +0.148 C 
ATOM      7  C   UNL     1      31.573 -24.103 -15.419  0.00  0.00    +0.114 C 
ATOM      8  H   UNL     1      31.189 -22.349 -18.730  0.00  0.00    +0.165 HD
ENDROOT
BRANCH   4  11
ATOM      9  N   UNL     1      35.531 -23.745 -13.739  0.00  0.00    -0.251 N 
ATOM     10  N   UNL     1      37.358 -22.910 -14.720  0.00  0.00    -0.393 NA
ATOM     11  C   UNL     1      35.142 -23.316 -14.982  0.00  0.00    +0.181 C 
ATOM     12  C   UNL     1      36.892 -23.475 -13.626  0.00  0.00    +0.187 C 
ATOM     13  C   UNL     1      36.280 -22.809 -15.563  0.00  0.00    +0.114 C 
ATOM     14  C   UNL     1      34.778 -24.341 -12.731  0.00  0.00    +0.068 C 
ATOM     15  C   UNL     1      37.525 -23.838 -12.400  0.00  0.00    +0.048 C 
ATOM     16  C   UNL     1      36.443 -22.213 -16.899  0.00  0.00    +0.064 C 
ATOM     17  C   UNL     1      35.380 -24.681 -11.580  0.00  0.00    +0.016 C 
ATOM     18  C   UNL     1      36.802 -24.416 -11.422  0.00  0.00    +0.005 C 
ENDBRANCH   4  11
BRANCH   2  20
ATOM     19  C   UNL     1      34.585 -20.076 -21.019  0.00  0.00    +0.139 C 
ATOM     20  C   UNL     1      32.945 -21.529 -19.287  0.00  0.00    +0.058 C 
ATOM     21  C   UNL     1      35.128 -21.090 -20.229  0.00  0.00    +0.038 C 
ATOM     22  C   UNL     1      33.223 -19.788 -20.943  0.00  0.00    +0.038 C 
ATOM     23  C   UNL     1      34.308 -21.816 -19.364  0.00  0.00    +0.018 C 
ATOM     24  C   UNL     1      32.403 -20.513 -20.077  0.00  0.00    +0.018 C 
BRANCH  19  25
ATOM     25  O   UNL     1      35.385 -19.369 -21.863  0.00  0.00    -0.473 OA
BRANCH  25  26
ATOM     26  C   UNL     1      35.036 -19.376 -23.246  0.00  0.00    +0.232 C 
BRANCH  26  27
ATOM     27  C   UNL     1      34.545 -17.985 -23.638  0.00  0.00    +0.133 C 
BRANCH  27  28
ATOM     28  O   UNL     1      35.578 -17.038 -23.355  0.00  0.00    -0.383 OA
ATOM     29  H   UNL     1      35.219 -16.139 -23.415  0.00  0.00    +0.210 HD
ENDBRANCH  27  28
BRANCH  27  30
ATOM     30  C   UNL     1      34.182 -17.867 -25.120  0.00  0.00    -0.044 C 
BRANCH  30  31
ATOM     31  N   UNL     1      32.803 -17.437 -25.313  0.00  0.00    +0.386 N 
ATOM     32  C   UNL     1      32.750 -16.222 -26.128  0.00  0.00    -0.101 C 
ATOM     33  C   UNL     1      32.014 -18.501 -25.938  0.00  0.00    -0.101 C 
ATOM     34  H   UNL     1      32.405 -17.231 -24.397  0.00  0.00    -0.080 HD
ENDBRANCH  30  31
ENDBRANCH  27  30
ENDBRANCH  26  27
ENDBRANCH  25  26
ENDBRANCH  19  25
ENDBRANCH   2  20
TORSDOF 8
ENDMDL
MODEL 3
REMARK VINA RESULT:     -10.7      7.809     11.991
REMARK  Name = 447653
REMARK  8 active torsions:
REMARK  status: ('A' for Active; 'I' for Inactive)
REMARK    1  A    between atoms: N_2  and  C_20
REMARK    2  A    between atoms: C_4  and  C_11
REMARK    3  A    between atoms: C_19  and  O_25
REMARK    4  A    between atoms: O_25  and  C_26
REMARK    5  A    between atoms: C_26  and  C_27
REMARK    6  A    between atoms: C_27  and  O_28
REMARK    7  A    between atoms: C_27  and  C_30
REMARK    8  A    between atoms: C_30  and  N_31
REMARK                            x       y       z     vdW  Elec       q    Type
REMARK                         _______ _______ _______ _____ _____    ______ ____
ROOT
ATOM      1  N   UNL     1      33.392 -13.557 -25.429  0.00  0.00    -0.340 NA
ATOM      2  N   UNL     1      32.913 -11.527 -26.502  0.00  0.00    -0.247 N 
ATOM      3  N   UNL     1      32.575 -13.519 -27.696  0.00  0.00    -0.170 NA
ATOM      4  C   UNL     1      33.425 -14.901 -25.509  0.00  0.00    +0.148 C 
ATOM      5  C   UNL     1      33.058 -15.619 -26.624  0.00  0.00    +0.052 C 
ATOM      6  C   UNL     1      32.962 -12.937 -26.545  0.00  0.00    +0.148 C 
ATOM      7  C   UNL     1      32.636 -14.866 -27.701  0.00  0.00    +0.114 C 
ATOM      8  H   UNL     1      32.593 -11.117 -27.339  0.00  0.00    +0.165 HD
ENDROOT
BRANCH   4  11
ATOM      9  N   UNL     1      34.111 -16.912 -24.201  0.00  0.00    -0.251 N 
ATOM     10  N   UNL     1      34.598 -16.025 -22.207  0.00  0.00    -0.393 NA
ATOM     11  C   UNL     1      33.887 -15.563 -24.310  0.00  0.00    +0.181 C 
ATOM     12  C   UNL     1      34.544 -17.145 -22.898  0.00  0.00    +0.187 C 
ATOM     13  C   UNL     1      34.193 -15.043 -23.075  0.00  0.00    +0.114 C 
ATOM     14  C   UNL     1      33.960 -17.915 -25.154  0.00  0.00    +0.068 C 
ATOM     15  C   UNL     1      34.842 -18.495 -22.547  0.00  0.00    +0.048 C 
ATOM     16  C   UNL     1      34.133 -13.642 -22.627  0.00  0.00    +0.064 C 
ATOM     17  C   UNL     1      34.243 -19.184 -24.816  0.00  0.00    +0.016 C 
ATOM     18  C   UNL     1      34.698 -19.470 -23.464  0.00  0.00    +0.005 C 
ENDBRANCH   4  11
BRANCH   2  20
ATOM     19  C   UNL     1      33.862  -8.736 -23.511  0.00  0.00    +0.139 C 
ATOM     20  C   UNL     1      33.230 -10.592 -25.499  0.00  0.00    +0.058 C 
ATOM     21  C   UNL     1      32.528  -9.022 -23.800  0.00  0.00    +0.038 C 
ATOM     22  C   UNL     1      34.881  -9.377 -24.216  0.00  0.00    +0.038 C 
ATOM     23  C   UNL     1      32.212  -9.949 -24.794  0.00  0.00    +0.018 C 
ATOM     24  C   UNL     1      34.566 -10.303 -25.209  0.00  0.00    +0.018 C 
BRANCH  19  25
ATOM     25  O   UNL     1      34.169  -7.831 -22.541  0.00  0.00    -0.473 OA
BRANCH  25  26
ATOM     26  C   UNL     1      33.079  -7.244 -21.833  0.00  0.00    +0.232 C 
BRANCH  26  27
ATOM     27  C   UNL     1      32.936  -7.940 -20.482  0.00  0.00    +0.133 C 
BRANCH  27  28
ATOM     28  O   UNL     1      33.192  -6.988 -19.446  0.00  0.00    -0.383 OA
ATOM     29  H   UNL     1      32.432  -6.393 -19.358  0.00  0.00    +0.210 HD
ENDBRANCH  27  28
BRANCH  27  30
ATOM     30  C   UNL     1      31.545  -8.534 -20.251  0.00  0.00    -0.044 C 
BRANCH  30  31
ATOM     31  N   UNL     1      31.572  -9.990 -20.203  0.00  0.00    +0.386 N 
ATOM     32  C   UNL     1      31.436 -10.464 -18.824  0.00  0.00    -0.101 C 
ATOM     33  C   UNL     1      30.510 -10.554 -21.039  0.00  0.00    -0.101 C 
ATOM     34  H   UNL     1      32.472 -10.302 -20.566  0.00  0.00    -0.080 HD
ENDBRANCH  30  31
ENDBRANCH  27  30
ENDBRANCH  26  27
ENDBRANCH  25  26
ENDBRANCH  19  25
ENDBRANCH   2  20
TORSDOF 8
ENDMDL
MODEL 4
REMARK VINA RESULT:     -10.7      3.913     12.200
REMARK  Name = 447653
REMARK  8 active torsions:
REMARK  status: ('A' for Active; 'I' for Inactive)
REMARK    1  A    between atoms: N_2  and  C_20
REMARK    2  A    between atoms: C_4  and  C_11
REMARK    3  A    between atoms: C_19  and  O_25
REMARK    4  A    between atoms: O_25  and  C_26
REMARK    5  A    between atoms: C_26  and  C_27
REMARK    6  A    between atoms: C_27  and  O_28
REMARK    7  A    between atoms: C_27  and  C_30
REMARK    8  A    between atoms: C_30  and  N_31
REMARK                            x       y       z     vdW  Elec       q    Type
REMARK                         _______ _______ _______ _____ _____    ______ ____
ROOT
ATOM      1  N   UNL     1      33.469 -14.743 -25.279  0.00  0.00    -0.340 NA
ATOM      2  N   UNL     1      33.600 -17.059 -25.625  0.00  0.00    -0.247 N 
ATOM      3  N   UNL     1      32.878 -15.711 -27.405  0.00  0.00    -0.170 NA
ATOM      4  C   UNL     1      33.173 -13.535 -25.796  0.00  0.00    +0.148 C 
ATOM      5  C   UNL     1      32.732 -13.331 -27.083  0.00  0.00    +0.052 C 
ATOM      6  C   UNL     1      33.301 -15.775 -26.128  0.00  0.00    +0.148 C 
ATOM      7  C   UNL     1      32.601 -14.469 -27.851  0.00  0.00    +0.114 C 
ATOM      8  H   UNL     1      33.464 -17.783 -26.280  0.00  0.00    +0.165 HD
ENDROOT
BRANCH   4  11
ATOM      9  N   UNL     1      33.969 -11.246 -25.202  0.00  0.00    -0.251 N 
ATOM     10  N   UNL     1      33.348 -11.079 -23.060  0.00  0.00    -0.393 NA
ATOM     11  C   UNL     1      33.355 -12.430 -24.882  0.00  0.00    +0.181 C 
ATOM     12  C   UNL     1      33.941 -10.455 -24.056  0.00  0.00    +0.187 C 
ATOM     13  C   UNL     1      32.983 -12.302 -23.564  0.00  0.00    +0.114 C 
ATOM     14  C   UNL     1      34.535 -10.839 -26.406  0.00  0.00    +0.068 C 
ATOM     15  C   UNL     1      34.531  -9.160 -24.150  0.00  0.00    +0.048 C 
ATOM     16  C   UNL     1      32.286 -13.274 -22.707  0.00  0.00    +0.064 C 
ATOM     17  C   UNL     1      35.089  -9.618 -26.487  0.00  0.00    +0.016 C 
ATOM     18  C   UNL     1      35.080  -8.759 -25.313  0.00  0.00    +0.005 C 
ENDBRANCH   4  11
BRANCH   2  20
ATOM     19  C   UNL     1      34.963 -18.406 -21.887  0.00  0.00    +0.139 C 
ATOM     20  C   UNL     1      34.056 -17.510 -24.372  0.00  0.00    +0.058 C 
ATOM     21  C   UNL     1      35.002 -17.046 -22.196  0.00  0.00    +0.038 C 
ATOM     22  C   UNL     1      34.471 -19.318 -22.821  0.00  0.00    +0.038 C 
ATOM     23  C   UNL     1      34.549 -16.599 -23.437  0.00  0.00    +0.018 C 
ATOM     24  C   UNL     1      34.019 -18.871 -24.062  0.00  0.00    +0.018 C 
BRANCH  19  25
ATOM     25  O   UNL     1      35.405 -18.842 -20.676  0.00  0.00    -0.473 OA
BRANCH  25  26
ATOM     26  C   UNL     1      36.603 -19.616 -20.663  0.00  0.00    +0.232 C 
BRANCH  26  27
ATOM     27  C   UNL     1      36.335 -20.928 -19.930  0.00  0.00    +0.133 C 
BRANCH  27  28
ATOM     28  O   UNL     1      36.291 -20.668 -18.525  0.00  0.00    -0.383 OA
ATOM     29  H   UNL     1      37.066 -20.144 -18.268  0.00  0.00    +0.210 HD
ENDBRANCH  27  28
BRANCH  27  30
ATOM     30  C   UNL     1      35.015 -21.588 -20.335  0.00  0.00    -0.044 C 
BRANCH  30  31
ATOM     31  N   UNL     1      33.960 -21.347 -19.360  0.00  0.00    +0.386 N 
ATOM     32  C   UNL     1      32.775 -20.783 -20.010  0.00  0.00    -0.101 C 
ATOM     33  C   UNL     1      33.612 -22.584 -18.658  0.00  0.00    -0.101 C 
ATOM     34  H   UNL     1      34.308 -20.672 -18.678  0.00  0.00    -0.080 HD
ENDBRANCH  30  31
ENDBRANCH  27  30
ENDBRANCH  26  27
ENDBRANCH  25  26
ENDBRANCH  19  25
ENDBRANCH   2  20
TORSDOF 8
ENDMDL
MODEL 5
REMARK VINA RESULT:     -10.3      3.115     11.798
REMARK  Name = 447653
REMARK  8 active torsions:
REMARK  status: ('A' for Active; 'I' for Inactive)
REMARK    1  A    between atoms: N_2  and  C_20
REMARK    2  A    between atoms: C_4  and  C_11
REMARK    3  A    between atoms: C_19  and  O_25
REMARK    4  A    between atoms: O_25  and  C_26
REMARK    5  A    between atoms: C_26  and  C_27
REMARK    6  A    between atoms: C_27  and  O_28
REMARK    7  A    between atoms: C_27  and  C_30
REMARK    8  A    between atoms: C_30  and  N_31
REMARK                            x       y       z     vdW  Elec       q    Type
REMARK                         _______ _______ _______ _____ _____    ______ ____
ROOT
ATOM      1  N   UNL     1      33.565 -16.288 -24.713  0.00  0.00    -0.340 NA
ATOM      2  N   UNL     1      33.747 -18.626 -24.788  0.00  0.00    -0.247 N 
ATOM      3  N   UNL     1      32.815 -17.526 -26.640  0.00  0.00    -0.170 NA
ATOM      4  C   UNL     1      33.179 -15.161 -25.341  0.00  0.00    +0.148 C 
ATOM      5  C   UNL     1      32.614 -15.128 -26.595  0.00  0.00    +0.052 C 
ATOM      6  C   UNL     1      33.356 -17.421 -25.411  0.00  0.00    +0.148 C 
ATOM      7  C   UNL     1      32.454 -16.356 -27.204  0.00  0.00    +0.114 C 
ATOM      8  H   UNL     1      33.576 -19.428 -25.334  0.00  0.00    +0.165 HD
ENDROOT
BRANCH   4  11
ATOM      9  N   UNL     1      33.198 -12.681 -25.072  0.00  0.00    -0.251 N 
ATOM     10  N   UNL     1      33.922 -12.446 -22.969  0.00  0.00    -0.393 NA
ATOM     11  C   UNL     1      33.405 -13.947 -24.589  0.00  0.00    +0.181 C 
ATOM     12  C   UNL     1      33.529 -11.799 -24.046  0.00  0.00    +0.187 C 
ATOM     13  C   UNL     1      33.847 -13.776 -23.298  0.00  0.00    +0.114 C 
ATOM     14  C   UNL     1      32.750 -12.272 -26.325  0.00  0.00    +0.068 C 
ATOM     15  C   UNL     1      33.392 -10.406 -24.322  0.00  0.00    +0.048 C 
ATOM     16  C   UNL     1      34.222 -14.802 -22.311  0.00  0.00    +0.064 C 
ATOM     17  C   UNL     1      32.624 -10.959 -26.576  0.00  0.00    +0.016 C 
ATOM     18  C   UNL     1      32.959 -10.004 -25.532  0.00  0.00    +0.005 C 
ENDBRANCH   4  11
BRANCH   2  20
ATOM     19  C   UNL     1      35.496 -19.462 -21.062  0.00  0.00    +0.139 C 
ATOM     20  C   UNL     1      34.332 -18.907 -23.539  0.00  0.00    +0.058 C 
ATOM     21  C   UNL     1      34.134 -19.693 -21.261  0.00  0.00    +0.038 C 
ATOM     22  C   UNL     1      36.275 -18.953 -22.100  0.00  0.00    +0.038 C 
ATOM     23  C   UNL     1      33.554 -19.416 -22.499  0.00  0.00    +0.018 C 
ATOM     24  C   UNL     1      35.695 -18.675 -23.337  0.00  0.00    +0.018 C 
BRANCH  19  25
ATOM     25  O   UNL     1      36.062 -19.733 -19.854  0.00  0.00    -0.473 OA
BRANCH  25  26
ATOM     26  C   UNL     1      36.351 -21.100 -19.565  0.00  0.00    +0.232 C 
BRANCH  26  27
ATOM     27  C   UNL     1      35.571 -21.516 -18.320  0.00  0.00    +0.133 C 
BRANCH  27  28
ATOM     28  O   UNL     1      34.901 -22.750 -18.590  0.00  0.00    -0.383 OA
ATOM     29  H   UNL     1      34.341 -22.650 -19.375  0.00  0.00    +0.210 HD
ENDBRANCH  27  28
BRANCH  27  30
ATOM     30  C   UNL     1      36.458 -21.714 -17.088  0.00  0.00    -0.044 C 
BRANCH  30  31
ATOM     31  N   UNL     1      36.096 -22.910 -16.339  0.00  0.00    +0.386 N 
ATOM     32  C   UNL     1      37.258 -23.443 -15.626  0.00  0.00    -0.101 C 
ATOM     33  C   UNL     1      35.012 -22.622 -15.398  0.00  0.00    -0.101 C 
ATOM     34  H   UNL     1      35.773 -23.613 -17.003  0.00  0.00    -0.080 HD
ENDBRANCH  30  31
ENDBRANCH  27  30
ENDBRANCH  26  27
ENDBRANCH  25  26
ENDBRANCH  19  25
ENDBRANCH   2  20
TORSDOF 8
ENDMDL
MODEL 6
REMARK VINA RESULT:     -10.3      6.781     13.422
REMARK  Name = 447653
REMARK  8 active torsions:
REMARK  status: ('A' for Active; 'I' for Inactive)
REMARK    1  A    between atoms: N_2  and  C_20
REMARK    2  A    between atoms: C_4  and  C_11
REMARK    3  A    between atoms: C_19  and  O_25
REMARK    4  A    between atoms: O_25  and  C_26
REMARK    5  A    between atoms: C_26  and  C_27
REMARK    6  A    between atoms: C_27  and  O_28
REMARK    7  A    between atoms: C_27  and  C_30
REMARK    8  A    between atoms: C_30  and  N_31
REMARK                            x       y       z     vdW  Elec       q    Type
REMARK                         _______ _______ _______ _____ _____    ______ ____
ROOT
ATOM      1  N   UNL     1      32.462  -9.492 -24.096  0.00  0.00    -0.340 NA
ATOM      2  N   UNL     1      32.842 -10.670 -26.090  0.00  0.00    -0.247 N 
ATOM      3  N   UNL     1      32.374  -8.374 -26.230  0.00  0.00    -0.170 NA
ATOM      4  C   UNL     1      32.178  -8.312 -23.514  0.00  0.00    +0.148 C 
ATOM      5  C   UNL     1      31.980  -7.137 -24.203  0.00  0.00    +0.052 C 
ATOM      6  C   UNL     1      32.545  -9.452 -25.441  0.00  0.00    +0.148 C 
ATOM      7  C   UNL     1      32.091  -7.229 -25.576  0.00  0.00    +0.114 C 
ATOM      8  H   UNL     1      32.893 -10.593 -27.071  0.00  0.00    +0.165 HD
ENDROOT
BRANCH   4  11
ATOM      9  N   UNL     1      31.851  -9.495 -21.343  0.00  0.00    -0.251 N 
ATOM     10  N   UNL     1      32.064  -7.827 -19.868  0.00  0.00    -0.393 NA
ATOM     11  C   UNL     1      32.090  -8.359 -22.073  0.00  0.00    +0.181 C 
ATOM     12  C   UNL     1      31.844  -9.119 -20.002  0.00  0.00    +0.187 C 
ATOM     13  C   UNL     1      32.217  -7.351 -21.146  0.00  0.00    +0.114 C 
ATOM     14  C   UNL     1      31.645 -10.801 -21.778  0.00  0.00    +0.068 C 
ATOM     15  C   UNL     1      31.610 -10.148 -19.043  0.00  0.00    +0.048 C 
ATOM     16  C   UNL     1      32.481  -5.921 -21.373  0.00  0.00    +0.064 C 
ATOM     17  C   UNL     1      31.426 -11.764 -20.868  0.00  0.00    +0.016 C 
ATOM     18  C   UNL     1      31.410 -11.414 -19.457  0.00  0.00    +0.005 C 
ENDBRANCH   4  11
BRANCH   2  20
ATOM     19  C   UNL     1      33.555 -14.556 -24.665  0.00  0.00    +0.139 C 
ATOM     20  C   UNL     1      33.080 -11.972 -25.612  0.00  0.00    +0.058 C 
ATOM     21  C   UNL     1      33.845 -13.453 -23.861  0.00  0.00    +0.038 C 
ATOM     22  C   UNL     1      33.028 -14.367 -25.942  0.00  0.00    +0.038 C 
ATOM     23  C   UNL     1      33.608 -12.163 -24.334  0.00  0.00    +0.018 C 
ATOM     24  C   UNL     1      32.792 -13.076 -26.416  0.00  0.00    +0.018 C 
BRANCH  19  25
ATOM     25  O   UNL     1      33.787 -15.815 -24.203  0.00  0.00    -0.473 OA
BRANCH  25  26
ATOM     26  C   UNL     1      34.475 -16.710 -25.075  0.00  0.00    +0.232 C 
BRANCH  26  27
ATOM     27  C   UNL     1      33.823 -18.087 -24.984  0.00  0.00    +0.133 C 
BRANCH  27  28
ATOM     28  O   UNL     1      33.849 -18.693 -26.279  0.00  0.00    -0.383 OA
ATOM     29  H   UNL     1      32.944 -18.897 -26.560  0.00  0.00    +0.210 HD
ENDBRANCH  27  28
BRANCH  27  30
ATOM     30  C   UNL     1      34.526 -19.026 -24.002  0.00  0.00    -0.044 C 
BRANCH  30  31
ATOM     31  N   UNL     1      34.453 -18.540 -22.631  0.00  0.00    +0.386 N 
ATOM     32  C   UNL     1      33.665 -19.452 -21.800  0.00  0.00    -0.101 C 
ATOM     33  C   UNL     1      35.796 -18.375 -22.070  0.00  0.00    -0.101 C 
ATOM     34  H   UNL     1      33.992 -17.631 -22.642  0.00  0.00    -0.080 HD
ENDBRANCH  30  31
ENDBRANCH  27  30
ENDBRANCH  26  27
ENDBRANCH  25  26
ENDBRANCH  19  25
ENDBRANCH   2  20
TORSDOF 8
ENDMDL
MODEL 7
REMARK VINA RESULT:     -10.2      1.812      4.013
REMARK  Name = 447653
REMARK  8 active torsions:
REMARK  status: ('A' for Active; 'I' for Inactive)
REMARK    1  A    between atoms: N_2  and  C_20
REMARK    2  A    between atoms: C_4  and  C_11
REMARK    3  A    between atoms: C_19  and  O_25
REMARK    4  A    between atoms: O_25  and  C_26
REMARK    5  A    between atoms: C_26  and  C_27
REMARK    6  A    between atoms: C_27  and  O_28
REMARK    7  A    between atoms: C_27  and  C_30
REMARK    8  A    between atoms: C_30  and  N_31
REMARK                            x       y       z     vdW  Elec       q    Type
REMARK                         _______ _______ _______ _____ _____    ______ ____
ROOT
ATOM      1  N   UNL     1      34.676 -22.221 -17.507  0.00  0.00    -0.340 NA
ATOM      2  N   UNL     1      36.446 -21.268 -18.717  0.00  0.00    -0.247 N 
ATOM      3  N   UNL     1      36.962 -22.538 -16.812  0.00  0.00    -0.170 NA
ATOM      4  C   UNL     1      34.297 -22.969 -16.454  0.00  0.00    +0.148 C 
ATOM      5  C   UNL     1      35.169 -23.529 -15.549  0.00  0.00    +0.052 C 
ATOM      6  C   UNL     1      36.007 -22.047 -17.625  0.00  0.00    +0.148 C 
ATOM      7  C   UNL     1      36.506 -23.277 -15.780  0.00  0.00    +0.114 C 
ATOM      8  H   UNL     1      37.425 -21.168 -18.764  0.00  0.00    +0.165 HD
ENDROOT
BRANCH   4  11
ATOM      9  N   UNL     1      32.251 -23.788 -15.284  0.00  0.00    -0.251 N 
ATOM     10  N   UNL     1      30.627 -23.139 -16.677  0.00  0.00    -0.393 NA
ATOM     11  C   UNL     1      32.869 -23.153 -16.331  0.00  0.00    +0.181 C 
ATOM     12  C   UNL     1      30.883 -23.754 -15.542  0.00  0.00    +0.187 C 
ATOM     13  C   UNL     1      31.852 -22.765 -17.171  0.00  0.00    +0.114 C 
ATOM     14  C   UNL     1      32.808 -24.376 -14.152  0.00  0.00    +0.068 C 
ATOM     15  C   UNL     1      30.028 -24.364 -14.576  0.00  0.00    +0.048 C 
ATOM     16  C   UNL     1      31.941 -22.043 -18.450  0.00  0.00    +0.064 C 
ATOM     17  C   UNL     1      31.996 -24.947 -13.247  0.00  0.00    +0.016 C 
ATOM     18  C   UNL     1      30.561 -24.934 -13.479  0.00  0.00    +0.005 C 
ENDBRANCH   4  11
BRANCH   2  20
ATOM     19  C   UNL     1      34.403 -19.292 -21.809  0.00  0.00    +0.139 C 
ATOM     20  C   UNL     1      35.761 -20.605 -19.752  0.00  0.00    +0.058 C 
ATOM     21  C   UNL     1      33.731 -20.215 -21.007  0.00  0.00    +0.038 C 
ATOM     22  C   UNL     1      35.753 -19.026 -21.584  0.00  0.00    +0.038 C 
ATOM     23  C   UNL     1      34.409 -20.870 -19.979  0.00  0.00    +0.018 C 
ATOM     24  C   UNL     1      36.432 -19.682 -20.557  0.00  0.00    +0.018 C 
BRANCH  19  25
ATOM     25  O   UNL     1      33.740 -18.652 -22.811  0.00  0.00    -0.473 OA
BRANCH  25  26
ATOM     26  C   UNL     1      34.507 -18.254 -23.946  0.00  0.00    +0.232 C 
BRANCH  26  27
ATOM     27  C   UNL     1      34.224 -16.784 -24.242  0.00  0.00    +0.133 C 
BRANCH  27  28
ATOM     28  O   UNL     1      35.338 -16.004 -23.800  0.00  0.00    -0.383 OA
ATOM     29  H   UNL     1      35.761 -16.442 -23.045  0.00  0.00    +0.210 HD
ENDBRANCH  27  28
BRANCH  27  30
ATOM     30  C   UNL     1      34.001 -16.498 -25.729  0.00  0.00    -0.044 C 
BRANCH  30  31
ATOM     31  N   UNL     1      32.614 -16.164 -26.021  0.00  0.00    +0.386 N 
ATOM     32  C   UNL     1      32.529 -15.286 -27.190  0.00  0.00    -0.101 C 
ATOM     33  C   UNL     1      31.826 -17.379 -26.242  0.00  0.00    -0.101 C 
ATOM     34  H   UNL     1      32.231 -15.670 -25.216  0.00  0.00    -0.080 HD
ENDBRANCH  30  31
ENDBRANCH  27  30
ENDBRANCH  26  27
ENDBRANCH  25  26
ENDBRANCH  19  25
ENDBRANCH   2  20
TORSDOF 8
ENDMDL
MODEL 8
REMARK VINA RESULT:      -9.8      6.803     14.408
REMARK  Name = 447653
REMARK  8 active torsions:
REMARK  status: ('A' for Active; 'I' for Inactive)
REMARK    1  A    between atoms: N_2  and  C_20
REMARK    2  A    between atoms: C_4  and  C_11
REMARK    3  A    between atoms: C_19  and  O_25
REMARK    4  A    between atoms: O_25  and  C_26
REMARK    5  A    between atoms: C_26  and  C_27
REMARK    6  A    between atoms: C_27  and  O_28
REMARK    7  A    between atoms: C_27  and  C_30
REMARK    8  A    between atoms: C_30  and  N_31
REMARK                            x       y       z     vdW  Elec       q    Type
REMARK                         _______ _______ _______ _____ _____    ______ ____
ROOT
ATOM      1  N   UNL     1      32.492 -10.103 -23.266  0.00  0.00    -0.340 NA
ATOM      2  N   UNL     1      31.941 -11.900 -21.861  0.00  0.00    -0.247 N 
ATOM      3  N   UNL     1      30.985  -9.804 -21.408  0.00  0.00    -0.170 NA
ATOM      4  C   UNL     1      32.331  -8.797 -23.551  0.00  0.00    +0.148 C 
ATOM      5  C   UNL     1      31.531  -7.940 -22.830  0.00  0.00    +0.052 C 
ATOM      6  C   UNL     1      31.799 -10.535 -22.194  0.00  0.00    +0.148 C 
ATOM      7  C   UNL     1      30.875  -8.506 -21.756  0.00  0.00    +0.114 C 
ATOM      8  H   UNL     1      31.416 -12.171 -21.073  0.00  0.00    +0.165 HD
ENDROOT
BRANCH   4  11
ATOM      9  N   UNL     1      32.548  -7.598 -25.728  0.00  0.00    -0.251 N 
ATOM     10  N   UNL     1      34.708  -7.907 -26.216  0.00  0.00    -0.393 NA
ATOM     11  C   UNL     1      33.076  -8.337 -24.700  0.00  0.00    +0.181 C 
ATOM     12  C   UNL     1      33.583  -7.361 -26.629  0.00  0.00    +0.187 C 
ATOM     13  C   UNL     1      34.401  -8.512 -25.023  0.00  0.00    +0.114 C 
ATOM     14  C   UNL     1      31.247  -7.137 -25.910  0.00  0.00    +0.068 C 
ATOM     15  C   UNL     1      33.265  -6.602 -27.794  0.00  0.00    +0.048 C 
ATOM     16  C   UNL     1      35.443  -9.231 -24.272  0.00  0.00    +0.064 C 
ATOM     17  C   UNL     1      30.956  -6.422 -27.009  0.00  0.00    +0.016 C 
ATOM     18  C   UNL     1      32.009  -6.152 -27.975  0.00  0.00    +0.005 C 
ENDBRANCH   4  11
BRANCH   2  20
ATOM     19  C   UNL     1      34.157 -15.031 -23.570  0.00  0.00    +0.139 C 
ATOM     20  C   UNL     1      32.684 -12.949 -22.434  0.00  0.00    +0.058 C 
ATOM     21  C   UNL     1      33.364 -14.217 -24.378  0.00  0.00    +0.038 C 
ATOM     22  C   UNL     1      34.214 -14.806 -22.195  0.00  0.00    +0.038 C 
ATOM     23  C   UNL     1      32.628 -13.176 -23.810  0.00  0.00    +0.018 C 
ATOM     24  C   UNL     1      33.478 -13.766 -21.627  0.00  0.00    +0.018 C 
BRANCH  19  25
ATOM     25  O   UNL     1      34.875 -16.047 -24.124  0.00  0.00    -0.473 OA
BRANCH  25  26
ATOM     26  C   UNL     1      34.212 -16.855 -25.094  0.00  0.00    +0.232 C 
BRANCH  26  27
ATOM     27  C   UNL     1      33.923 -18.223 -24.481  0.00  0.00    +0.133 C 
BRANCH  27  28
ATOM     28  O   UNL     1      33.779 -19.178 -25.537  0.00  0.00    -0.383 OA
ATOM     29  H   UNL     1      32.854 -19.464 -25.590  0.00  0.00    +0.210 HD
ENDBRANCH  27  28
BRANCH  27  30
ATOM     30  C   UNL     1      35.030 -18.713 -23.544  0.00  0.00    -0.044 C 
BRANCH  30  31
ATOM     31  N   UNL     1      34.682 -18.526 -22.142  0.00  0.00    +0.386 N 
ATOM     32  C   UNL     1      33.651 -19.483 -21.734  0.00  0.00    -0.101 C 
ATOM     33  C   UNL     1      35.866 -18.665 -21.292  0.00  0.00    -0.101 C 
ATOM     34  H   UNL     1      34.310 -17.583 -22.031  0.00  0.00    -0.080 HD
ENDBRANCH  30  31
ENDBRANCH  27  30
ENDBRANCH  26  27
ENDBRANCH  25  26
ENDBRANCH  19  25
ENDBRANCH   2  20
TORSDOF 8
ENDMDL
MODEL 9
REMARK VINA RESULT:      -9.8      7.852     12.470
REMARK  Name = 447653
REMARK  8 active torsions:
REMARK  status: ('A' for Active; 'I' for Inactive)
REMARK    1  A    between atoms: N_2  and  C_20
REMARK    2  A    between atoms: C_4  and  C_11
REMARK    3  A    between atoms: C_19  and  O_25
REMARK    4  A    between atoms: O_25  and  C_26
REMARK    5  A    between atoms: C_26  and  C_27
REMARK    6  A    between atoms: C_27  and  O_28
REMARK    7  A    between atoms: C_27  and  C_30
REMARK    8  A    between atoms: C_30  and  N_31
REMARK                            x       y       z     vdW  Elec       q    Type
REMARK                         _______ _______ _______ _____ _____    ______ ____
ROOT
ATOM      1  N   UNL     1      33.260 -13.631 -25.517  0.00  0.00    -0.340 NA
ATOM      2  N   UNL     1      32.699 -11.631 -26.608  0.00  0.00    -0.247 N 
ATOM      3  N   UNL     1      32.329 -13.653 -27.740  0.00  0.00    -0.170 NA
ATOM      4  C   UNL     1      33.308 -14.976 -25.571  0.00  0.00    +0.148 C 
ATOM      5  C   UNL     1      32.894 -15.723 -26.650  0.00  0.00    +0.052 C 
ATOM      6  C   UNL     1      32.765 -13.041 -26.623  0.00  0.00    +0.148 C 
ATOM      7  C   UNL     1      32.408 -14.999 -27.720  0.00  0.00    +0.114 C 
ATOM      8  H   UNL     1      32.331 -11.243 -27.435  0.00  0.00    +0.165 HD
ENDROOT
BRANCH   4  11
ATOM      9  N   UNL     1      34.092 -16.947 -24.259  0.00  0.00    -0.251 N 
ATOM     10  N   UNL     1      34.659 -16.013 -22.308  0.00  0.00    -0.393 NA
ATOM     11  C   UNL     1      33.838 -15.605 -24.383  0.00  0.00    +0.181 C 
ATOM     12  C   UNL     1      34.591 -17.146 -22.975  0.00  0.00    +0.187 C 
ATOM     13  C   UNL     1      34.195 -15.055 -23.175  0.00  0.00    +0.114 C 
ATOM     14  C   UNL     1      33.914 -17.972 -25.184  0.00  0.00    +0.068 C 
ATOM     15  C   UNL     1      34.930 -18.484 -22.612  0.00  0.00    +0.048 C 
ATOM     16  C   UNL     1      34.131 -13.647 -22.751  0.00  0.00    +0.064 C 
ATOM     17  C   UNL     1      34.235 -19.229 -24.835  0.00  0.00    +0.016 C 
ATOM     18  C   UNL     1      34.760 -19.480 -23.502  0.00  0.00    +0.005 C 
ENDBRANCH   4  11
BRANCH   2  20
ATOM     19  C   UNL     1      33.758  -8.762 -23.729  0.00  0.00    +0.139 C 
ATOM     20  C   UNL     1      33.054 -10.670 -25.642  0.00  0.00    +0.058 C 
ATOM     21  C   UNL     1      32.921  -9.823 -23.382  0.00  0.00    +0.038 C 
ATOM     22  C   UNL     1      34.242  -8.654 -25.032  0.00  0.00    +0.038 C 
ATOM     23  C   UNL     1      32.570 -10.776 -24.338  0.00  0.00    +0.018 C 
ATOM     24  C   UNL     1      33.890  -9.606 -25.988  0.00  0.00    +0.018 C 
BRANCH  19  25
ATOM     25  O   UNL     1      34.100  -7.832 -22.795  0.00  0.00    -0.473 OA
BRANCH  25  26
ATOM     26  C   UNL     1      33.210  -7.660 -21.694  0.00  0.00    +0.232 C 
BRANCH  26  27
ATOM     27  C   UNL     1      32.067  -6.743 -22.124  0.00  0.00    +0.133 C 
BRANCH  27  28
ATOM     28  O   UNL     1      30.826  -7.405 -21.864  0.00  0.00    -0.383 OA
ATOM     29  H   UNL     1      30.857  -8.305 -22.225  0.00  0.00    +0.210 HD
ENDBRANCH  27  28
BRANCH  27  30
ATOM     30  C   UNL     1      32.056  -5.402 -21.386  0.00  0.00    -0.044 C 
BRANCH  30  31
ATOM     31  N   UNL     1      31.729  -4.293 -22.271  0.00  0.00    +0.386 N 
ATOM     32  C   UNL     1      32.156  -4.582 -23.641  0.00  0.00    -0.101 C 
ATOM     33  C   UNL     1      30.292  -4.011 -22.238  0.00  0.00    -0.101 C 
ATOM     34  H   UNL     1      32.230  -3.468 -21.943  0.00  0.00    -0.080 HD
ENDBRANCH  30  31
ENDBRANCH  27  30
ENDBRANCH  26  27
ENDBRANCH  25  26
ENDBRANCH  19  25
ENDBRANCH   2  20
TORSDOF 8
ENDMDL
