MODEL 1
REMARK VINA RESULT:     -11.9      0.000      0.000
REMARK  Name = 446752
REMARK  3 active torsions:
REMARK  status: ('A' for Active; 'I' for Inactive)
REMARK    1  A    between atoms: C_6  and  C_18
REMARK    2  A    between atoms: C_18  and  N_19
REMARK    3  A    between atoms: N_19  and  C_22
REMARK                            x       y       z     vdW  Elec       q    Type
REMARK                         _______ _______ _______ _____ _____    ______ ____
ROOT
ATOM      1  N   UNL     1      32.392 -20.631 -20.548  0.00  0.00    -0.182 NA
ATOM      2  N   UNL     1      32.299 -22.106 -18.767  0.00  0.00    -0.273 NA
ATOM      3  N   UNL     1      34.288 -22.786 -17.591  0.00  0.00    -0.312 NA
ATOM      4  N   UNL     1      36.380 -21.984 -18.205  0.00  0.00    -0.332 N 
ATOM      5  N   UNL     1      32.185 -23.604 -16.963  0.00  0.00    -0.283 N 
ATOM      6  C   UNL     1      34.490 -19.722 -21.289  0.00  0.00    +0.010 C 
ATOM      7  C   UNL     1      35.147 -20.432 -20.311  0.00  0.00    -0.009 C 
ATOM      8  C   UNL     1      34.404 -21.248 -19.445  0.00  0.00    +0.115 C 
ATOM      9  C   UNL     1      33.014 -21.329 -19.588  0.00  0.00    +0.104 C 
ATOM     10  C   UNL     1      33.127 -19.848 -21.375  0.00  0.00    +0.107 C 
ATOM     11  C   UNL     1      36.636 -20.275 -20.242  0.00  0.00    +0.032 C 
ATOM     12  C   UNL     1      34.986 -22.000 -18.427  0.00  0.00    +0.201 C 
ATOM     13  C   UNL     1      32.966 -22.792 -17.814  0.00  0.00    +0.206 C 
ATOM     14  H   UNL     1      36.768 -22.524 -17.479  0.00  0.00    +0.145 HD
ATOM     15  H   UNL     1      36.963 -21.433 -18.776  0.00  0.00    +0.145 HD
ATOM     16  H   UNL     1      31.209 -23.646 -17.081  0.00  0.00    +0.156 HD
ATOM     17  H   UNL     1      32.618 -24.127 -16.249  0.00  0.00    +0.156 HD
ENDROOT
BRANCH   6  18
ATOM     18  C   UNL     1      35.213 -18.826 -22.258  0.00  0.00    +0.097 C 
BRANCH  18  19
ATOM     19  N   UNL     1      34.471 -18.700 -23.470  0.00  0.00    -0.288 NA
ATOM     20  H   UNL     1      34.218 -19.518 -23.957  0.00  0.00    +0.124 HD
BRANCH  19  22
ATOM     21  N   UNL     1      32.038 -15.958 -26.680  0.00  0.00    -0.248 NA
ATOM     22  C   UNL     1      34.084 -17.446 -24.004  0.00  0.00    +0.101 C 
ATOM     23  C   UNL     1      33.225 -17.350 -25.111  0.00  0.00    +0.010 C 
ATOM     24  C   UNL     1      32.858 -16.087 -25.620  0.00  0.00    +0.061 C 
ATOM     25  C   UNL     1      34.581 -16.297 -23.394  0.00  0.00    -0.010 C 
ATOM     26  C   UNL     1      32.711 -18.490 -25.743  0.00  0.00    +0.000 C 
ATOM     27  C   UNL     1      33.370 -14.954 -24.993  0.00  0.00    +0.071 C 
ATOM     28  C   UNL     1      34.223 -15.050 -23.890  0.00  0.00    -0.023 C 
ATOM     29  C   UNL     1      31.866 -18.362 -26.835  0.00  0.00    +0.020 C 
ATOM     30  C   UNL     1      31.563 -17.084 -27.261  0.00  0.00    +0.098 C 
ENDBRANCH  19  22
ENDBRANCH  18  19
ENDBRANCH   6  18
TORSDOF 3
ENDMDL
MODEL 2
REMARK VINA RESULT:     -11.9      0.933      2.260
REMARK  Name = 446752
REMARK  3 active torsions:
REMARK  status: ('A' for Active; 'I' for Inactive)
REMARK    1  A    between atoms: C_6  and  C_18
REMARK    2  A    between atoms: C_18  and  N_19
REMARK    3  A    between atoms: N_19  and  C_22
REMARK                            x       y       z     vdW  Elec       q    Type
REMARK                         _______ _______ _______ _____ _____    ______ ____
ROOT
ATOM      1  N   UNL     1      32.453 -20.541 -20.642  0.00  0.00    -0.182 NA
ATOM      2  N   UNL     1      32.342 -22.014 -18.860  0.00  0.00    -0.273 NA
ATOM      3  N   UNL     1      34.320 -22.711 -17.677  0.00  0.00    -0.312 NA
ATOM      4  N   UNL     1      36.422 -21.927 -18.285  0.00  0.00    -0.332 N 
ATOM      5  N   UNL     1      32.209 -23.509 -17.055  0.00  0.00    -0.283 N 
ATOM      6  C   UNL     1      34.562 -19.652 -21.378  0.00  0.00    +0.010 C 
ATOM      7  C   UNL     1      35.209 -20.367 -20.397  0.00  0.00    -0.009 C 
ATOM      8  C   UNL     1      34.457 -21.175 -19.533  0.00  0.00    +0.115 C 
ATOM      9  C   UNL     1      33.066 -21.244 -19.680  0.00  0.00    +0.104 C 
ATOM     10  C   UNL     1      33.197 -19.766 -21.468  0.00  0.00    +0.107 C 
ATOM     11  C   UNL     1      36.699 -20.223 -20.323  0.00  0.00    +0.032 C 
ATOM     12  C   UNL     1      35.028 -21.931 -18.512  0.00  0.00    +0.201 C 
ATOM     13  C   UNL     1      33.000 -22.705 -17.904  0.00  0.00    +0.206 C 
ATOM     14  H   UNL     1      36.803 -22.470 -17.558  0.00  0.00    +0.145 HD
ATOM     15  H   UNL     1      37.011 -21.382 -18.855  0.00  0.00    +0.145 HD
ATOM     16  H   UNL     1      31.233 -23.543 -17.176  0.00  0.00    +0.156 HD
ATOM     17  H   UNL     1      32.635 -24.036 -16.340  0.00  0.00    +0.156 HD
ENDROOT
BRANCH   6  18
ATOM     18  C   UNL     1      35.295 -18.763 -22.345  0.00  0.00    +0.097 C 
BRANCH  18  19
ATOM     19  N   UNL     1      34.620 -17.515 -22.487  0.00  0.00    -0.288 NA
ATOM     20  H   UNL     1      34.493 -16.952 -21.688  0.00  0.00    +0.124 HD
BRANCH  19  22
ATOM     21  N   UNL     1      33.150 -13.955 -25.472  0.00  0.00    -0.248 NA
ATOM     22  C   UNL     1      34.122 -17.050 -23.729  0.00  0.00    +0.101 C 
ATOM     23  C   UNL     1      33.885 -15.686 -23.965  0.00  0.00    +0.010 C 
ATOM     24  C   UNL     1      33.389 -15.254 -25.213  0.00  0.00    +0.061 C 
ATOM     25  C   UNL     1      33.873 -17.992 -24.724  0.00  0.00    -0.010 C 
ATOM     26  C   UNL     1      34.128 -14.718 -22.982  0.00  0.00    +0.000 C 
ATOM     27  C   UNL     1      33.147 -16.216 -26.189  0.00  0.00    +0.071 C 
ATOM     28  C   UNL     1      33.384 -17.573 -25.955  0.00  0.00    -0.023 C 
ATOM     29  C   UNL     1      33.883 -13.379 -23.245  0.00  0.00    +0.020 C 
ATOM     30  C   UNL     1      33.398 -13.052 -24.495  0.00  0.00    +0.098 C 
ENDBRANCH  19  22
ENDBRANCH  18  19
ENDBRANCH   6  18
TORSDOF 3
ENDMDL
MODEL 3
REMARK VINA RESULT:     -11.7      2.090      3.356
REMARK  Name = 446752
REMARK  3 active torsions:
REMARK  status: ('A' for Active; 'I' for Inactive)
REMARK    1  A    between atoms: C_6  and  C_18
REMARK    2  A    between atoms: C_18  and  N_19
REMARK    3  A    between atoms: N_19  and  C_22
REMARK                            x       y       z     vdW  Elec       q    Type
REMARK                         _______ _______ _______ _____ _____    ______ ____
ROOT
ATOM      1  N   UNL     1      32.328 -21.707 -19.348  0.00  0.00    -0.182 NA
ATOM      2  N   UNL     1      31.630 -22.920 -17.505  0.00  0.00    -0.273 NA
ATOM      3  N   UNL     1      33.186 -23.667 -15.826  0.00  0.00    -0.312 NA
ATOM      4  N   UNL     1      35.455 -23.196 -15.997  0.00  0.00    -0.332 N 
ATOM      5  N   UNL     1      30.903 -24.150 -15.642  0.00  0.00    -0.283 N 
ATOM      6  C   UNL     1      34.646 -21.148 -19.651  0.00  0.00    +0.010 C 
ATOM      7  C   UNL     1      34.960 -21.797 -18.479  0.00  0.00    -0.009 C 
ATOM      8  C   UNL     1      33.933 -22.403 -17.741  0.00  0.00    +0.115 C 
ATOM      9  C   UNL     1      32.614 -22.343 -18.204  0.00  0.00    +0.104 C 
ATOM     10  C   UNL     1      33.333 -21.127 -20.048  0.00  0.00    +0.107 C 
ATOM     11  C   UNL     1      36.402 -21.805 -18.071  0.00  0.00    +0.032 C 
ATOM     12  C   UNL     1      34.159 -23.080 -16.544  0.00  0.00    +0.201 C 
ATOM     13  C   UNL     1      31.962 -23.550 -16.357  0.00  0.00    +0.206 C 
ATOM     14  H   UNL     1      35.590 -23.679 -15.150  0.00  0.00    +0.145 HD
ATOM     15  H   UNL     1      36.223 -22.794 -16.463  0.00  0.00    +0.145 HD
ATOM     16  H   UNL     1      29.982 -24.095 -15.986  0.00  0.00    +0.156 HD
ATOM     17  H   UNL     1      31.086 -24.624 -14.799  0.00  0.00    +0.156 HD
ENDROOT
BRANCH   6  18
ATOM     18  C   UNL     1      35.688 -20.473 -20.501  0.00  0.00    +0.097 C 
BRANCH  18  19
ATOM     19  N   UNL     1      35.430 -19.072 -20.588  0.00  0.00    -0.288 NA
ATOM     20  H   UNL     1      35.473 -18.532 -19.766  0.00  0.00    +0.124 HD
BRANCH  19  22
ATOM     21  N   UNL     1      34.215 -15.128 -23.177  0.00  0.00    -0.248 NA
ATOM     22  C   UNL     1      35.116 -18.426 -21.808  0.00  0.00    +0.101 C 
ATOM     23  C   UNL     1      34.817 -17.055 -21.861  0.00  0.00    +0.010 C 
ATOM     24  C   UNL     1      34.507 -16.439 -23.091  0.00  0.00    +0.061 C 
ATOM     25  C   UNL     1      35.114 -19.193 -22.970  0.00  0.00    -0.010 C 
ATOM     26  C   UNL     1      34.813 -16.259 -20.707  0.00  0.00    +0.000 C 
ATOM     27  C   UNL     1      34.510 -17.229 -24.237  0.00  0.00    +0.071 C 
ATOM     28  C   UNL     1      34.810 -18.593 -24.186  0.00  0.00    -0.023 C 
ATOM     29  C   UNL     1      34.512 -14.908 -20.791  0.00  0.00    +0.020 C 
ATOM     30  C   UNL     1      34.223 -14.395 -22.039  0.00  0.00    +0.098 C 
ENDBRANCH  19  22
ENDBRANCH  18  19
ENDBRANCH   6  18
TORSDOF 3
ENDMDL
MODEL 4
REMARK VINA RESULT:     -11.5      1.537      2.706
REMARK  Name = 446752
REMARK  3 active torsions:
REMARK  status: ('A' for Active; 'I' for Inactive)
REMARK    1  A    between atoms: C_6  and  C_18
REMARK    2  A    between atoms: C_18  and  N_19
REMARK    3  A    between atoms: N_19  and  C_22
REMARK                            x       y       z     vdW  Elec       q    Type
REMARK                         _______ _______ _______ _____ _____    ______ ____
ROOT
ATOM      1  N   UNL     1      36.589 -19.777 -20.229  0.00  0.00    -0.182 NA
ATOM      2  N   UNL     1      36.594 -21.258 -18.450  0.00  0.00    -0.273 NA
ATOM      3  N   UNL     1      34.607 -22.451 -17.800  0.00  0.00    -0.312 NA
ATOM      4  N   UNL     1      32.603 -22.158 -18.939  0.00  0.00    -0.332 N 
ATOM      5  N   UNL     1      36.619 -22.755 -16.642  0.00  0.00    -0.283 N 
ATOM      6  C   UNL     1      34.586 -19.378 -21.496  0.00  0.00    +0.010 C 
ATOM      7  C   UNL     1      33.901 -20.266 -20.699  0.00  0.00    -0.009 C 
ATOM      8  C   UNL     1      34.581 -20.912 -19.657  0.00  0.00    +0.115 C 
ATOM      9  C   UNL     1      35.939 -20.646 -19.442  0.00  0.00    +0.104 C 
ATOM     10  C   UNL     1      35.914 -19.162 -21.230  0.00  0.00    +0.107 C 
ATOM     11  C   UNL     1      32.451 -20.481 -21.011  0.00  0.00    +0.032 C 
ATOM     12  C   UNL     1      33.968 -21.825 -18.802  0.00  0.00    +0.201 C 
ATOM     13  C   UNL     1      35.901 -22.126 -17.682  0.00  0.00    +0.206 C 
ATOM     14  H   UNL     1      32.191 -22.807 -18.323  0.00  0.00    +0.145 HD
ATOM     15  H   UNL     1      32.064 -21.742 -19.649  0.00  0.00    +0.145 HD
ATOM     16  H   UNL     1      37.573 -22.553 -16.509  0.00  0.00    +0.156 HD
ATOM     17  H   UNL     1      36.165 -23.398 -16.050  0.00  0.00    +0.156 HD
ENDROOT
BRANCH   6  18
ATOM     18  C   UNL     1      33.929 -18.644 -22.633  0.00  0.00    +0.097 C 
BRANCH  18  19
ATOM     19  N   UNL     1      34.786 -17.614 -23.123  0.00  0.00    -0.288 NA
ATOM     20  H   UNL     1      35.670 -17.864 -23.479  0.00  0.00    +0.124 HD
BRANCH  19  22
ATOM     21  N   UNL     1      33.044 -13.624 -25.310  0.00  0.00    -0.248 NA
ATOM     22  C   UNL     1      34.419 -16.246 -23.121  0.00  0.00    +0.101 C 
ATOM     23  C   UNL     1      33.900 -15.619 -24.265  0.00  0.00    +0.010 C 
ATOM     24  C   UNL     1      33.543 -14.255 -24.232  0.00  0.00    +0.061 C 
ATOM     25  C   UNL     1      34.586 -15.529 -21.939  0.00  0.00    -0.010 C 
ATOM     26  C   UNL     1      33.721 -16.318 -25.467  0.00  0.00    +0.000 C 
ATOM     27  C   UNL     1      33.722 -13.562 -23.038  0.00  0.00    +0.071 C 
ATOM     28  C   UNL     1      34.237 -14.185 -21.898  0.00  0.00    -0.023 C 
ATOM     29  C   UNL     1      33.206 -15.671 -26.581  0.00  0.00    +0.020 C 
ATOM     30  C   UNL     1      32.886 -14.335 -26.451  0.00  0.00    +0.098 C 
ENDBRANCH  19  22
ENDBRANCH  18  19
ENDBRANCH   6  18
TORSDOF 3
ENDMDL
MODEL 5
REMARK VINA RESULT:     -11.4      1.557      8.605
REMARK  Name = 446752
REMARK  3 active torsions:
REMARK  status: ('A' for Active; 'I' for Inactive)
REMARK    1  A    between atoms: C_6  and  C_18
REMARK    2  A    between atoms: C_18  and  N_19
REMARK    3  A    between atoms: N_19  and  C_22
REMARK                            x       y       z     vdW  Elec       q    Type
REMARK                         _______ _______ _______ _____ _____    ______ ____
ROOT
ATOM      1  N   UNL     1      33.978 -14.898 -24.525  0.00  0.00    -0.182 NA
ATOM      2  N   UNL     1      32.917 -13.657 -26.166  0.00  0.00    -0.273 NA
ATOM      3  N   UNL     1      31.550 -14.704 -27.849  0.00  0.00    -0.312 NA
ATOM      4  N   UNL     1      31.247 -17.007 -27.889  0.00  0.00    -0.332 N 
ATOM      5  N   UNL     1      31.849 -12.381 -27.821  0.00  0.00    -0.283 N 
ATOM      6  C   UNL     1      33.751 -17.290 -24.447  0.00  0.00    +0.010 C 
ATOM      7  C   UNL     1      32.938 -17.252 -25.557  0.00  0.00    -0.009 C 
ATOM      8  C   UNL     1      32.649 -16.014 -26.148  0.00  0.00    +0.115 C 
ATOM      9  C   UNL     1      33.188 -14.842 -25.606  0.00  0.00    +0.104 C 
ATOM     10  C   UNL     1      34.247 -16.104 -23.968  0.00  0.00    +0.107 C 
ATOM     11  C   UNL     1      32.412 -18.563 -26.058  0.00  0.00    +0.032 C 
ATOM     12  C   UNL     1      31.836 -15.882 -27.271  0.00  0.00    +0.201 C 
ATOM     13  C   UNL     1      32.116 -13.646 -27.253  0.00  0.00    +0.206 C 
ATOM     14  H   UNL     1      30.676 -16.889 -28.683  0.00  0.00    +0.145 HD
ATOM     15  H   UNL     1      31.408 -17.908 -27.527  0.00  0.00    +0.145 HD
ATOM     16  H   UNL     1      32.238 -11.570 -27.424  0.00  0.00    +0.156 HD
ATOM     17  H   UNL     1      31.271 -12.312 -28.616  0.00  0.00    +0.156 HD
ENDROOT
BRANCH   6  18
ATOM     18  C   UNL     1      34.110 -18.576 -23.755  0.00  0.00    +0.097 C 
BRANCH  18  19
ATOM     19  N   UNL     1      34.131 -18.393 -22.340  0.00  0.00    -0.288 NA
ATOM     20  H   UNL     1      33.604 -17.657 -21.951  0.00  0.00    +0.124 HD
BRANCH  19  22
ATOM     21  N   UNL     1      34.459 -21.879 -18.951  0.00  0.00    -0.248 NA
ATOM     22  C   UNL     1      34.877 -19.225 -21.471  0.00  0.00    +0.101 C 
ATOM     23  C   UNL     1      34.254 -20.160 -20.628  0.00  0.00    +0.010 C 
ATOM     24  C   UNL     1      35.025 -20.974 -19.773  0.00  0.00    +0.061 C 
ATOM     25  C   UNL     1      36.263 -19.094 -21.474  0.00  0.00    -0.010 C 
ATOM     26  C   UNL     1      32.861 -20.313 -20.605  0.00  0.00    +0.000 C 
ATOM     27  C   UNL     1      36.408 -20.821 -19.795  0.00  0.00    +0.071 C 
ATOM     28  C   UNL     1      37.029 -19.893 -20.635  0.00  0.00    -0.023 C 
ATOM     29  C   UNL     1      32.275 -21.244 -19.760  0.00  0.00    +0.020 C 
ATOM     30  C   UNL     1      33.111 -21.996 -18.961  0.00  0.00    +0.098 C 
ENDBRANCH  19  22
ENDBRANCH  18  19
ENDBRANCH   6  18
TORSDOF 3
ENDMDL
MODEL 6
REMARK VINA RESULT:     -11.2      3.296      9.447
REMARK  Name = 446752
REMARK  3 active torsions:
REMARK  status: ('A' for Active; 'I' for Inactive)
REMARK    1  A    between atoms: C_6  and  C_18
REMARK    2  A    between atoms: C_18  and  N_19
REMARK    3  A    between atoms: N_19  and  C_22
REMARK                            x       y       z     vdW  Elec       q    Type
REMARK                         _______ _______ _______ _____ _____    ______ ____
ROOT
ATOM      1  N   UNL     1      36.097 -21.332 -19.141  0.00  0.00    -0.182 NA
ATOM      2  N   UNL     1      37.101 -19.925 -20.681  0.00  0.00    -0.273 NA
ATOM      3  N   UNL     1      35.806 -18.706 -22.304  0.00  0.00    -0.312 NA
ATOM      4  N   UNL     1      33.492 -18.899 -22.385  0.00  0.00    -0.332 N 
ATOM      5  N   UNL     1      38.138 -18.503 -22.235  0.00  0.00    -0.283 N 
ATOM      6  C   UNL     1      33.712 -21.626 -19.112  0.00  0.00    +0.010 C 
ATOM      7  C   UNL     1      33.587 -20.753 -20.167  0.00  0.00    -0.009 C 
ATOM      8  C   UNL     1      34.741 -20.168 -20.708  0.00  0.00    +0.115 C 
ATOM      9  C   UNL     1      35.996 -20.479 -20.170  0.00  0.00    +0.104 C 
ATOM     10  C   UNL     1      34.971 -21.888 -18.633  0.00  0.00    +0.107 C 
ATOM     11  C   UNL     1      32.200 -20.487 -20.669  0.00  0.00    +0.032 C 
ATOM     12  C   UNL     1      34.709 -19.274 -21.776  0.00  0.00    +0.201 C 
ATOM     13  C   UNL     1      36.953 -19.071 -21.717  0.00  0.00    +0.206 C 
ATOM     14  H   UNL     1      33.494 -18.266 -23.139  0.00  0.00    +0.145 HD
ATOM     15  H   UNL     1      32.642 -19.272 -22.057  0.00  0.00    +0.145 HD
ATOM     16  H   UNL     1      39.009 -18.736 -21.841  0.00  0.00    +0.156 HD
ATOM     17  H   UNL     1      38.091 -17.873 -22.991  0.00  0.00    +0.156 HD
ENDROOT
BRANCH   6  18
ATOM     18  C   UNL     1      32.524 -22.296 -18.476  0.00  0.00    +0.097 C 
BRANCH  18  19
ATOM     19  N   UNL     1      32.950 -23.281 -17.536  0.00  0.00    -0.288 NA
ATOM     20  H   UNL     1      33.657 -23.914 -17.802  0.00  0.00    +0.124 HD
BRANCH  19  22
ATOM     21  N   UNL     1      33.343 -24.137 -12.755  0.00  0.00    -0.248 NA
ATOM     22  C   UNL     1      32.400 -23.388 -16.235  0.00  0.00    +0.101 C 
ATOM     23  C   UNL     1      33.191 -23.720 -15.124  0.00  0.00    +0.010 C 
ATOM     24  C   UNL     1      32.614 -23.819 -13.841  0.00  0.00    +0.061 C 
ATOM     25  C   UNL     1      31.036 -23.150 -16.084  0.00  0.00    -0.010 C 
ATOM     26  C   UNL     1      34.566 -23.964 -15.248  0.00  0.00    +0.000 C 
ATOM     27  C   UNL     1      31.248 -23.578 -13.718  0.00  0.00    +0.071 C 
ATOM     28  C   UNL     1      30.461 -23.246 -14.823  0.00  0.00    -0.023 C 
ATOM     29  C   UNL     1      35.321 -24.291 -14.132  0.00  0.00    +0.020 C 
ATOM     30  C   UNL     1      34.668 -24.363 -12.919  0.00  0.00    +0.098 C 
ENDBRANCH  19  22
ENDBRANCH  18  19
ENDBRANCH   6  18
TORSDOF 3
ENDMDL
MODEL 7
REMARK VINA RESULT:     -11.2      2.690      9.069
REMARK  Name = 446752
REMARK  3 active torsions:
REMARK  status: ('A' for Active; 'I' for Inactive)
REMARK    1  A    between atoms: C_6  and  C_18
REMARK    2  A    between atoms: C_18  and  N_19
REMARK    3  A    between atoms: N_19  and  C_22
REMARK                            x       y       z     vdW  Elec       q    Type
REMARK                         _______ _______ _______ _____ _____    ______ ____
ROOT
ATOM      1  N   UNL     1      32.294 -20.314 -20.959  0.00  0.00    -0.182 NA
ATOM      2  N   UNL     1      33.472 -18.839 -22.299  0.00  0.00    -0.273 NA
ATOM      3  N   UNL     1      35.858 -18.582 -22.094  0.00  0.00    -0.312 NA
ATOM      4  N   UNL     1      37.068 -19.809 -20.536  0.00  0.00    -0.332 N 
ATOM      5  N   UNL     1      34.649 -17.339 -23.667  0.00  0.00    -0.283 N 
ATOM      6  C   UNL     1      33.421 -21.647 -19.305  0.00  0.00    +0.010 C 
ATOM      7  C   UNL     1      34.623 -21.083 -19.665  0.00  0.00    -0.009 C 
ATOM      8  C   UNL     1      34.648 -20.124 -20.688  0.00  0.00    +0.115 C 
ATOM      9  C   UNL     1      33.456 -19.755 -21.323  0.00  0.00    +0.104 C 
ATOM     10  C   UNL     1      32.291 -21.239 -19.968  0.00  0.00    +0.107 C 
ATOM     11  C   UNL     1      35.840 -21.547 -18.923  0.00  0.00    +0.032 C 
ATOM     12  C   UNL     1      35.818 -19.503 -21.116  0.00  0.00    +0.201 C 
ATOM     13  C   UNL     1      34.664 -18.302 -22.635  0.00  0.00    +0.206 C 
ATOM     14  H   UNL     1      37.883 -19.357 -20.856  0.00  0.00    +0.145 HD
ATOM     15  H   UNL     1      37.125 -20.473 -19.812  0.00  0.00    +0.145 HD
ATOM     16  H   UNL     1      33.800 -17.094 -24.101  0.00  0.00    +0.156 HD
ATOM     17  H   UNL     1      35.489 -16.912 -23.954  0.00  0.00    +0.156 HD
ENDROOT
BRANCH   6  18
ATOM     18  C   UNL     1      33.309 -22.681 -18.218  0.00  0.00    +0.097 C 
BRANCH  18  19
ATOM     19  N   UNL     1      31.953 -22.816 -17.795  0.00  0.00    -0.288 NA
ATOM     20  H   UNL     1      31.236 -22.696 -18.461  0.00  0.00    +0.124 HD
BRANCH  19  22
ATOM     21  N   UNL     1      33.062 -24.101 -13.228  0.00  0.00    -0.248 NA
ATOM     22  C   UNL     1      31.594 -23.114 -16.458  0.00  0.00    +0.101 C 
ATOM     23  C   UNL     1      32.555 -23.467 -15.497  0.00  0.00    +0.010 C 
ATOM     24  C   UNL     1      32.167 -23.759 -14.174  0.00  0.00    +0.061 C 
ATOM     25  C   UNL     1      30.246 -23.048 -16.115  0.00  0.00    -0.010 C 
ATOM     26  C   UNL     1      33.918 -23.541 -15.816  0.00  0.00    +0.000 C 
ATOM     27  C   UNL     1      30.813 -23.686 -13.858  0.00  0.00    +0.071 C 
ATOM     28  C   UNL     1      29.856 -23.334 -14.813  0.00  0.00    -0.023 C 
ATOM     29  C   UNL     1      34.844 -23.893 -14.845  0.00  0.00    +0.020 C 
ATOM     30  C   UNL     1      34.369 -24.160 -13.577  0.00  0.00    +0.098 C 
ENDBRANCH  19  22
ENDBRANCH  18  19
ENDBRANCH   6  18
TORSDOF 3
ENDMDL
MODEL 8
REMARK VINA RESULT:     -11.2      1.622      2.386
REMARK  Name = 446752
REMARK  3 active torsions:
REMARK  status: ('A' for Active; 'I' for Inactive)
REMARK    1  A    between atoms: C_6  and  C_18
REMARK    2  A    between atoms: C_18  and  N_19
REMARK    3  A    between atoms: N_19  and  C_22
REMARK                            x       y       z     vdW  Elec       q    Type
REMARK                         _______ _______ _______ _____ _____    ______ ____
ROOT
ATOM      1  N   UNL     1      32.285 -21.911 -19.073  0.00  0.00    -0.182 NA
ATOM      2  N   UNL     1      31.854 -23.067 -17.114  0.00  0.00    -0.273 NA
ATOM      3  N   UNL     1      33.616 -23.643 -15.578  0.00  0.00    -0.312 NA
ATOM      4  N   UNL     1      35.823 -23.058 -16.008  0.00  0.00    -0.332 N 
ATOM      5  N   UNL     1      31.396 -24.239 -15.132  0.00  0.00    -0.283 N 
ATOM      6  C   UNL     1      34.523 -21.244 -19.643  0.00  0.00    +0.010 C 
ATOM      7  C   UNL     1      34.993 -21.815 -18.483  0.00  0.00    -0.009 C 
ATOM      8  C   UNL     1      34.086 -22.438 -17.614  0.00  0.00    +0.115 C 
ATOM      9  C   UNL     1      32.725 -22.473 -17.938  0.00  0.00    +0.104 C 
ATOM     10  C   UNL     1      33.177 -21.314 -19.900  0.00  0.00    +0.107 C 
ATOM     11  C   UNL     1      36.467 -21.724 -18.230  0.00  0.00    +0.032 C 
ATOM     12  C   UNL     1      34.473 -23.041 -16.420  0.00  0.00    +0.201 C 
ATOM     13  C   UNL     1      32.339 -23.619 -15.981  0.00  0.00    +0.206 C 
ATOM     14  H   UNL     1      36.073 -23.490 -15.159  0.00  0.00    +0.145 HD
ATOM     15  H   UNL     1      36.514 -22.639 -16.570  0.00  0.00    +0.145 HD
ATOM     16  H   UNL     1      30.444 -24.251 -15.379  0.00  0.00    +0.156 HD
ATOM     17  H   UNL     1      31.693 -24.659 -14.292  0.00  0.00    +0.156 HD
ENDROOT
BRANCH   6  18
ATOM     18  C   UNL     1      35.429 -20.557 -20.628  0.00  0.00    +0.097 C 
BRANCH  18  19
ATOM     19  N   UNL     1      34.674 -20.028 -21.717  0.00  0.00    -0.288 NA
ATOM     20  H   UNL     1      34.143 -20.648 -22.269  0.00  0.00    +0.124 HD
BRANCH  19  22
ATOM     21  N   UNL     1      34.176 -16.354 -24.879  0.00  0.00    -0.248 NA
ATOM     22  C   UNL     1      34.657 -18.649 -22.039  0.00  0.00    +0.101 C 
ATOM     23  C   UNL     1      34.415 -18.199 -23.347  0.00  0.00    +0.010 C 
ATOM     24  C   UNL     1      34.404 -16.819 -23.636  0.00  0.00    +0.061 C 
ATOM     25  C   UNL     1      34.888 -17.738 -21.012  0.00  0.00    -0.010 C 
ATOM     26  C   UNL     1      34.179 -19.095 -24.399  0.00  0.00    +0.000 C 
ATOM     27  C   UNL     1      34.639 -15.930 -22.591  0.00  0.00    +0.071 C 
ATOM     28  C   UNL     1      34.879 -16.376 -21.289  0.00  0.00    -0.023 C 
ATOM     29  C   UNL     1      33.944 -18.620 -25.681  0.00  0.00    +0.020 C 
ATOM     30  C   UNL     1      33.953 -17.252 -25.866  0.00  0.00    +0.098 C 
ENDBRANCH  19  22
ENDBRANCH  18  19
ENDBRANCH   6  18
TORSDOF 3
ENDMDL
MODEL 9
REMARK VINA RESULT:     -11.1      3.329      9.973
REMARK  Name = 446752
REMARK  3 active torsions:
REMARK  status: ('A' for Active; 'I' for Inactive)
REMARK    1  A    between atoms: C_6  and  C_18
REMARK    2  A    between atoms: C_18  and  N_19
REMARK    3  A    between atoms: N_19  and  C_22
REMARK                            x       y       z     vdW  Elec       q    Type
REMARK                         _______ _______ _______ _____ _____    ______ ____
ROOT
ATOM      1  N   UNL     1      36.601 -20.400 -19.774  0.00  0.00    -0.182 NA
ATOM      2  N   UNL     1      36.161 -18.902 -21.483  0.00  0.00    -0.273 NA
ATOM      3  N   UNL     1      33.942 -18.629 -22.377  0.00  0.00    -0.312 NA
ATOM      4  N   UNL     1      32.155 -19.866 -21.555  0.00  0.00    -0.332 N 
ATOM      5  N   UNL     1      35.734 -17.377 -23.216  0.00  0.00    -0.283 N 
ATOM      6  C   UNL     1      34.847 -21.744 -18.830  0.00  0.00    +0.010 C 
ATOM      7  C   UNL     1      33.939 -21.169 -19.688  0.00  0.00    -0.009 C 
ATOM      8  C   UNL     1      34.381 -20.196 -20.597  0.00  0.00    +0.115 C 
ATOM      9  C   UNL     1      35.732 -19.828 -20.618  0.00  0.00    +0.104 C 
ATOM     10  C   UNL     1      36.155 -21.338 -18.904  0.00  0.00    +0.107 C 
ATOM     11  C   UNL     1      32.517 -21.632 -19.585  0.00  0.00    +0.032 C 
ATOM     12  C   UNL     1      33.533 -19.562 -21.501  0.00  0.00    +0.201 C 
ATOM     13  C   UNL     1      35.251 -18.351 -22.314  0.00  0.00    +0.206 C 
ATOM     14  H   UNL     1      31.575 -19.405 -22.203  0.00  0.00    +0.145 HD
ATOM     15  H   UNL     1      31.776 -20.540 -20.946  0.00  0.00    +0.145 HD
ATOM     16  H   UNL     1      36.688 -17.133 -23.213  0.00  0.00    +0.156 HD
ATOM     17  H   UNL     1      35.116 -16.941 -23.846  0.00  0.00    +0.156 HD
ENDROOT
BRANCH   6  18
ATOM     18  C   UNL     1      34.453 -22.794 -17.827  0.00  0.00    +0.097 C 
BRANCH  18  19
ATOM     19  N   UNL     1      35.340 -22.775 -16.709  0.00  0.00    -0.288 NA
ATOM     20  H   UNL     1      36.210 -22.321 -16.804  0.00  0.00    +0.124 HD
BRANCH  19  22
ATOM     21  N   UNL     1      36.550 -25.291 -12.716  0.00  0.00    -0.248 NA
ATOM     22  C   UNL     1      35.023 -23.380 -15.469  0.00  0.00    +0.101 C 
ATOM     23  C   UNL     1      35.992 -24.049 -14.704  0.00  0.00    +0.010 C 
ATOM     24  C   UNL     1      35.645 -24.642 -13.473  0.00  0.00    +0.061 C 
ATOM     25  C   UNL     1      33.708 -23.292 -15.019  0.00  0.00    -0.010 C 
ATOM     26  C   UNL     1      37.323 -24.151 -15.133  0.00  0.00    +0.000 C 
ATOM     27  C   UNL     1      34.324 -24.541 -13.048  0.00  0.00    +0.071 C 
ATOM     28  C   UNL     1      33.359 -23.874 -13.807  0.00  0.00    -0.023 C 
ATOM     29  C   UNL     1      38.257 -24.819 -14.357  0.00  0.00    +0.020 C 
ATOM     30  C   UNL     1      37.824 -25.367 -13.166  0.00  0.00    +0.098 C 
ENDBRANCH  19  22
ENDBRANCH  18  19
ENDBRANCH   6  18
TORSDOF 3
ENDMDL
