MODEL 1
REMARK VINA RESULT:     -12.2      0.000      0.000
REMARK  Name = 448889
REMARK  5 active torsions:
REMARK  status: ('A' for Active; 'I' for Inactive)
REMARK    1  A    between atoms: C_1  and  N_2
REMARK    2  A    between atoms: C_1  and  C_16
REMARK    3  A    between atoms: C_6  and  C_10
REMARK    4  A    between atoms: C_16  and  C_17
REMARK    5  A    between atoms: C_17  and  C_21
REMARK                            x       y       z     vdW  Elec       q    Type
REMARK                         _______ _______ _______ _____ _____    ______ ____
ROOT
ATOM      1  C   UNL     1      36.063 -21.570 -19.642  0.00  0.00    -0.076 C 
ENDROOT
BRANCH   1   2
ATOM      2  N   UNL     1      35.639 -20.273 -20.164  0.00  0.00    +0.390 N 
ATOM      3  C   UNL     1      34.400 -20.394 -20.938  0.00  0.00    -0.072 C 
ATOM      4  C   UNL     1      33.891 -18.998 -21.330  0.00  0.00    +0.003 C 
ATOM      5  C   UNL     1      36.703 -19.667 -20.979  0.00  0.00    -0.051 C 
ATOM      6  C   UNL     1      34.972 -18.119 -21.919  0.00  0.00    -0.031 C 
ATOM      7  C   UNL     1      36.267 -18.448 -21.747  0.00  0.00    -0.053 C 
ATOM      8  H   UNL     1      35.455 -19.661 -19.370  0.00  0.00    -0.079 HD
BRANCH   6  10
ATOM      9  F   UNL     1      33.426 -13.528 -24.758  0.00  0.00    -0.204 F 
ATOM     10  C   UNL     1      34.563 -16.908 -22.669  0.00  0.00    -0.004 C 
ATOM     11  C   UNL     1      34.139 -17.014 -23.995  0.00  0.00    +0.002 C 
ATOM     12  C   UNL     1      34.601 -15.656 -22.051  0.00  0.00    +0.002 C 
ATOM     13  C   UNL     1      33.754 -15.873 -24.700  0.00  0.00    +0.030 C 
ATOM     14  C   UNL     1      34.216 -14.516 -22.756  0.00  0.00    +0.030 C 
ATOM     15  C   UNL     1      33.794 -14.624 -24.081  0.00  0.00    +0.140 C 
ENDBRANCH   6  10
ENDBRANCH   1   2
BRANCH   1  16
ATOM     16  C   UNL     1      35.608 -21.729 -18.189  0.00  0.00    -0.014 C 
BRANCH  16  17
ATOM     17  C   UNL     1      36.769 -21.696 -17.208  0.00  0.00    +0.074 C 
BRANCH  17  21
ATOM     18  O   UNL     1      33.986 -23.618 -13.947  0.00  0.00    -0.209 OA
ATOM     19  N   UNL     1      37.591 -23.441 -15.691  0.00  0.00    -0.290 N 
ATOM     20  N   UNL     1      35.338 -22.676 -15.539  0.00  0.00    -0.322 NA
ATOM     21  C   UNL     1      36.526 -22.659 -16.072  0.00  0.00    +0.173 C 
ATOM     22  C   UNL     1      37.425 -24.351 -14.645  0.00  0.00    +0.058 C 
ATOM     23  C   UNL     1      36.176 -24.438 -14.015  0.00  0.00    +0.108 C 
ATOM     24  C   UNL     1      38.468 -25.175 -14.213  0.00  0.00    -0.008 C 
ATOM     25  C   UNL     1      35.080 -23.548 -14.496  0.00  0.00    +0.207 C 
ATOM     26  C   UNL     1      35.968 -25.336 -12.964  0.00  0.00    +0.014 C 
ATOM     27  C   UNL     1      38.263 -26.073 -13.164  0.00  0.00    -0.003 C 
ATOM     28  C   UNL     1      37.017 -26.152 -12.541  0.00  0.00    +0.001 C 
ATOM     29  C   UNL     1      39.818 -25.122 -14.851  0.00  0.00    +0.032 C 
ATOM     30  H   UNL     1      38.458 -23.361 -16.150  0.00  0.00    +0.154 HD
ENDBRANCH  17  21
ENDBRANCH  16  17
ENDBRANCH   1  16
TORSDOF 5
ENDMDL
MODEL 2
REMARK VINA RESULT:     -12.2      6.212     12.080
REMARK  Name = 448889
REMARK  5 active torsions:
REMARK  status: ('A' for Active; 'I' for Inactive)
REMARK    1  A    between atoms: C_1  and  N_2
REMARK    2  A    between atoms: C_1  and  C_16
REMARK    3  A    between atoms: C_6  and  C_10
REMARK    4  A    between atoms: C_16  and  C_17
REMARK    5  A    between atoms: C_17  and  C_21
REMARK                            x       y       z     vdW  Elec       q    Type
REMARK                         _______ _______ _______ _____ _____    ______ ____
ROOT
ATOM      1  C   UNL     1      34.733 -15.951 -24.549  0.00  0.00    -0.076 C 
ENDROOT
BRANCH   1   2
ATOM      2  N   UNL     1      34.875 -17.094 -23.649  0.00  0.00    +0.390 N 
ATOM      3  C   UNL     1      33.831 -18.094 -23.896  0.00  0.00    -0.072 C 
ATOM      4  C   UNL     1      34.105 -19.351 -23.056  0.00  0.00    +0.003 C 
ATOM      5  C   UNL     1      34.853 -16.657 -22.244  0.00  0.00    -0.051 C 
ATOM      6  C   UNL     1      34.412 -19.039 -21.608  0.00  0.00    -0.031 C 
ATOM      7  C   UNL     1      34.754 -17.785 -21.253  0.00  0.00    -0.053 C 
ATOM      8  H   UNL     1      35.778 -17.529 -23.836  0.00  0.00    -0.079 HD
BRANCH   6  10
ATOM      9  F   UNL     1      34.109 -23.207 -17.858  0.00  0.00    -0.204 F 
ATOM     10  C   UNL     1      34.331 -20.139 -20.619  0.00  0.00    -0.004 C 
ATOM     11  C   UNL     1      33.087 -20.617 -20.201  0.00  0.00    +0.002 C 
ATOM     12  C   UNL     1      35.500 -20.703 -20.102  0.00  0.00    +0.002 C 
ATOM     13  C   UNL     1      33.012 -21.653 -19.269  0.00  0.00    +0.030 C 
ATOM     14  C   UNL     1      35.424 -21.739 -19.170  0.00  0.00    +0.030 C 
ATOM     15  C   UNL     1      34.181 -22.213 -18.754  0.00  0.00    +0.140 C 
ENDBRANCH   6  10
ENDBRANCH   1   2
BRANCH   1  16
ATOM     16  C   UNL     1      33.784 -14.915 -23.942  0.00  0.00    -0.014 C 
BRANCH  16  17
ATOM     17  C   UNL     1      33.406 -13.822 -24.928  0.00  0.00    +0.074 C 
BRANCH  17  21
ATOM     18  O   UNL     1      32.645  -9.190 -24.721  0.00  0.00    -0.209 OA
ATOM     19  N   UNL     1      32.501 -12.763 -22.908  0.00  0.00    -0.290 N 
ATOM     20  N   UNL     1      33.019 -11.449 -24.829  0.00  0.00    -0.322 NA
ATOM     21  C   UNL     1      32.951 -12.584 -24.195  0.00  0.00    +0.173 C 
ATOM     22  C   UNL     1      32.067 -11.653 -22.181  0.00  0.00    +0.058 C 
ATOM     23  C   UNL     1      32.104 -10.389 -22.786  0.00  0.00    +0.108 C 
ATOM     24  C   UNL     1      31.597 -11.770 -20.870  0.00  0.00    -0.008 C 
ATOM     25  C   UNL     1      32.608 -10.293 -24.187  0.00  0.00    +0.207 C 
ATOM     26  C   UNL     1      31.677  -9.253 -22.093  0.00  0.00    +0.014 C 
ATOM     27  C   UNL     1      31.171 -10.637 -20.174  0.00  0.00    -0.003 C 
ATOM     28  C   UNL     1      31.212  -9.383 -20.785  0.00  0.00    +0.001 C 
ATOM     29  C   UNL     1      31.537 -13.093 -20.177  0.00  0.00    +0.032 C 
ATOM     30  H   UNL     1      32.486 -13.661 -22.505  0.00  0.00    +0.154 HD
ENDBRANCH  17  21
ENDBRANCH  16  17
ENDBRANCH   1  16
TORSDOF 5
ENDMDL
MODEL 3
REMARK VINA RESULT:     -11.8      4.739     11.406
REMARK  Name = 448889
REMARK  5 active torsions:
REMARK  status: ('A' for Active; 'I' for Inactive)
REMARK    1  A    between atoms: C_1  and  N_2
REMARK    2  A    between atoms: C_1  and  C_16
REMARK    3  A    between atoms: C_6  and  C_10
REMARK    4  A    between atoms: C_16  and  C_17
REMARK    5  A    between atoms: C_17  and  C_21
REMARK                            x       y       z     vdW  Elec       q    Type
REMARK                         _______ _______ _______ _____ _____    ______ ____
ROOT
ATOM      1  C   UNL     1      33.872 -19.794 -21.578  0.00  0.00    -0.076 C 
ENDROOT
BRANCH   1   2
ATOM      2  N   UNL     1      34.213 -20.304 -20.252  0.00  0.00    +0.390 N 
ATOM      3  C   UNL     1      35.550 -20.907 -20.246  0.00  0.00    -0.072 C 
ATOM      4  C   UNL     1      35.946 -21.280 -18.809  0.00  0.00    +0.003 C 
ATOM      5  C   UNL     1      33.205 -21.271 -19.791  0.00  0.00    -0.051 C 
ATOM      6  C   UNL     1      34.861 -22.035 -18.074  0.00  0.00    -0.031 C 
ATOM      7  C   UNL     1      33.600 -22.020 -18.546  0.00  0.00    -0.053 C 
ATOM      8  H   UNL     1      34.221 -19.515 -19.606  0.00  0.00    -0.079 HD
BRANCH   6  10
ATOM      9  F   UNL     1      36.252 -24.814 -13.397  0.00  0.00    -0.204 F 
ATOM     10  C   UNL     1      35.228 -22.769 -16.839  0.00  0.00    -0.004 C 
ATOM     11  C   UNL     1      34.270 -23.528 -16.164  0.00  0.00    +0.002 C 
ATOM     12  C   UNL     1      36.534 -22.704 -16.348  0.00  0.00    +0.002 C 
ATOM     13  C   UNL     1      34.615 -24.219 -15.002  0.00  0.00    +0.030 C 
ATOM     14  C   UNL     1      36.879 -23.396 -15.187  0.00  0.00    +0.030 C 
ATOM     15  C   UNL     1      35.920 -24.152 -14.513  0.00  0.00    +0.140 C 
ENDBRANCH   6  10
ENDBRANCH   1   2
BRANCH   1  16
ATOM     16  C   UNL     1      35.069 -19.060 -22.187  0.00  0.00    -0.014 C 
BRANCH  16  17
ATOM     17  C   UNL     1      35.025 -19.031 -23.706  0.00  0.00    +0.074 C 
BRANCH  17  21
ATOM     18  O   UNL     1      33.334 -16.243 -27.089  0.00  0.00    -0.209 OA
ATOM     19  N   UNL     1      34.459 -16.684 -23.266  0.00  0.00    -0.290 N 
ATOM     20  N   UNL     1      34.160 -17.608 -25.443  0.00  0.00    -0.322 NA
ATOM     21  C   UNL     1      34.511 -17.699 -24.193  0.00  0.00    +0.173 C 
ATOM     22  C   UNL     1      33.992 -15.429 -23.660  0.00  0.00    +0.058 C 
ATOM     23  C   UNL     1      33.590 -15.242 -24.989  0.00  0.00    +0.108 C 
ATOM     24  C   UNL     1      33.913 -14.358 -22.764  0.00  0.00    -0.008 C 
ATOM     25  C   UNL     1      33.682 -16.401 -25.923  0.00  0.00    +0.207 C 
ATOM     26  C   UNL     1      33.114 -14.001 -25.424  0.00  0.00    +0.014 C 
ATOM     27  C   UNL     1      33.439 -13.118 -23.195  0.00  0.00    -0.003 C 
ATOM     28  C   UNL     1      33.042 -12.940 -24.521  0.00  0.00    +0.001 C 
ATOM     29  C   UNL     1      34.328 -14.504 -21.336  0.00  0.00    +0.032 C 
ATOM     30  H   UNL     1      34.747 -16.841 -22.339  0.00  0.00    +0.154 HD
ENDBRANCH  17  21
ENDBRANCH  16  17
ENDBRANCH   1  16
TORSDOF 5
ENDMDL
MODEL 4
REMARK VINA RESULT:     -11.8      2.516      4.076
REMARK  Name = 448889
REMARK  5 active torsions:
REMARK  status: ('A' for Active; 'I' for Inactive)
REMARK    1  A    between atoms: C_1  and  N_2
REMARK    2  A    between atoms: C_1  and  C_16
REMARK    3  A    between atoms: C_6  and  C_10
REMARK    4  A    between atoms: C_16  and  C_17
REMARK    5  A    between atoms: C_17  and  C_21
REMARK                            x       y       z     vdW  Elec       q    Type
REMARK                         _______ _______ _______ _____ _____    ______ ____
ROOT
ATOM      1  C   UNL     1      35.958 -21.542 -19.807  0.00  0.00    -0.076 C 
ENDROOT
BRANCH   1   2
ATOM      2  N   UNL     1      35.521 -20.241 -20.308  0.00  0.00    +0.390 N 
ATOM      3  C   UNL     1      34.362 -20.379 -21.196  0.00  0.00    -0.072 C 
ATOM      4  C   UNL     1      33.825 -18.989 -21.571  0.00  0.00    +0.003 C 
ATOM      5  C   UNL     1      36.623 -19.550 -20.995  0.00  0.00    -0.051 C 
ATOM      6  C   UNL     1      34.911 -18.036 -22.019  0.00  0.00    -0.031 C 
ATOM      7  C   UNL     1      36.200 -18.316 -21.744  0.00  0.00    -0.053 C 
ATOM      8  H   UNL     1      35.237 -19.677 -19.507  0.00  0.00    -0.079 HD
BRANCH   6  10
ATOM      9  F   UNL     1      33.401 -13.389 -24.785  0.00  0.00    -0.204 F 
ATOM     10  C   UNL     1      34.513 -16.809 -22.748  0.00  0.00    -0.004 C 
ATOM     11  C   UNL     1      34.583 -15.565 -22.119  0.00  0.00    +0.002 C 
ATOM     12  C   UNL     1      34.067 -16.894 -24.069  0.00  0.00    +0.002 C 
ATOM     13  C   UNL     1      34.209 -14.410 -22.806  0.00  0.00    +0.030 C 
ATOM     14  C   UNL     1      33.692 -15.739 -24.756  0.00  0.00    +0.030 C 
ATOM     15  C   UNL     1      33.762 -14.497 -24.125  0.00  0.00    +0.140 C 
ENDBRANCH   6  10
ENDBRANCH   1   2
BRANCH   1  16
ATOM     16  C   UNL     1      35.295 -21.840 -18.460  0.00  0.00    -0.014 C 
BRANCH  16  17
ATOM     17  C   UNL     1      33.901 -22.427 -18.612  0.00  0.00    +0.074 C 
BRANCH  17  21
ATOM     18  O   UNL     1      34.746 -24.509 -14.487  0.00  0.00    -0.209 OA
ATOM     19  N   UNL     1      32.077 -23.021 -17.082  0.00  0.00    -0.290 N 
ATOM     20  N   UNL     1      34.340 -23.493 -16.501  0.00  0.00    -0.322 NA
ATOM     21  C   UNL     1      33.434 -23.023 -17.308  0.00  0.00    +0.173 C 
ATOM     22  C   UNL     1      31.587 -23.560 -15.891  0.00  0.00    +0.058 C 
ATOM     23  C   UNL     1      32.494 -24.088 -14.962  0.00  0.00    +0.108 C 
ATOM     24  C   UNL     1      30.220 -23.585 -15.602  0.00  0.00    -0.008 C 
ATOM     25  C   UNL     1      33.947 -24.047 -15.295  0.00  0.00    +0.207 C 
ATOM     26  C   UNL     1      32.044 -24.635 -13.757  0.00  0.00    +0.014 C 
ATOM     27  C   UNL     1      29.767 -24.132 -14.400  0.00  0.00    -0.003 C 
ATOM     28  C   UNL     1      30.677 -24.656 -13.481  0.00  0.00    +0.001 C 
ATOM     29  C   UNL     1      29.210 -23.036 -16.557  0.00  0.00    +0.032 C 
ATOM     30  H   UNL     1      31.461 -22.644 -17.750  0.00  0.00    +0.154 HD
ENDBRANCH  17  21
ENDBRANCH  16  17
ENDBRANCH   1  16
TORSDOF 5
ENDMDL
MODEL 5
REMARK VINA RESULT:     -11.7      6.456     12.101
REMARK  Name = 448889
REMARK  5 active torsions:
REMARK  status: ('A' for Active; 'I' for Inactive)
REMARK    1  A    between atoms: C_1  and  N_2
REMARK    2  A    between atoms: C_1  and  C_16
REMARK    3  A    between atoms: C_6  and  C_10
REMARK    4  A    between atoms: C_16  and  C_17
REMARK    5  A    between atoms: C_17  and  C_21
REMARK                            x       y       z     vdW  Elec       q    Type
REMARK                         _______ _______ _______ _____ _____    ______ ____
ROOT
ATOM      1  C   UNL     1      33.915 -15.595 -25.029  0.00  0.00    -0.076 C 
ENDROOT
BRANCH   1   2
ATOM      2  N   UNL     1      33.786 -16.551 -23.932  0.00  0.00    +0.390 N 
ATOM      3  C   UNL     1      34.895 -16.420 -22.982  0.00  0.00    -0.072 C 
ATOM      4  C   UNL     1      34.644 -17.316 -21.760  0.00  0.00    +0.003 C 
ATOM      5  C   UNL     1      33.703 -17.926 -24.447  0.00  0.00    -0.051 C 
ATOM      6  C   UNL     1      34.238 -18.724 -22.134  0.00  0.00    -0.031 C 
ATOM      7  C   UNL     1      33.807 -18.986 -23.383  0.00  0.00    -0.053 C 
ATOM      8  H   UNL     1      32.920 -16.341 -23.435  0.00  0.00    -0.079 HD
BRANCH   6  10
ATOM      9  F   UNL     1      34.563 -22.721 -18.203  0.00  0.00    -0.204 F 
ATOM     10  C   UNL     1      34.323 -19.779 -21.096  0.00  0.00    -0.004 C 
ATOM     11  C   UNL     1      33.158 -20.332 -20.561  0.00  0.00    +0.002 C 
ATOM     12  C   UNL     1      35.570 -20.224 -20.651  0.00  0.00    +0.002 C 
ATOM     13  C   UNL     1      33.238 -21.326 -19.585  0.00  0.00    +0.030 C 
ATOM     14  C   UNL     1      35.650 -21.218 -19.675  0.00  0.00    +0.030 C 
ATOM     15  C   UNL     1      34.485 -21.768 -19.141  0.00  0.00    +0.140 C 
ENDBRANCH   6  10
ENDBRANCH   1   2
BRANCH   1  16
ATOM     16  C   UNL     1      32.980 -14.404 -24.806  0.00  0.00    -0.014 C 
BRANCH  16  17
ATOM     17  C   UNL     1      33.685 -13.068 -24.976  0.00  0.00    +0.074 C 
BRANCH  17  21
ATOM     18  O   UNL     1      32.267  -8.667 -24.142  0.00  0.00    -0.209 OA
ATOM     19  N   UNL     1      32.639 -12.443 -22.847  0.00  0.00    -0.290 N 
ATOM     20  N   UNL     1      32.961 -10.812 -24.555  0.00  0.00    -0.322 NA
ATOM     21  C   UNL     1      33.058 -12.023 -24.087  0.00  0.00    +0.173 C 
ATOM     22  C   UNL     1      32.050 -11.519 -21.981  0.00  0.00    +0.058 C 
ATOM     23  C   UNL     1      31.904 -10.191 -22.404  0.00  0.00    +0.108 C 
ATOM     24  C   UNL     1      31.602 -11.885 -20.708  0.00  0.00    -0.008 C 
ATOM     25  C   UNL     1      32.389  -9.829 -23.767  0.00  0.00    +0.207 C 
ATOM     26  C   UNL     1      31.319  -9.236 -21.568  0.00  0.00    +0.014 C 
ATOM     27  C   UNL     1      31.017 -10.933 -19.871  0.00  0.00    -0.003 C 
ATOM     28  C   UNL     1      30.878  -9.613 -20.300  0.00  0.00    +0.001 C 
ATOM     29  C   UNL     1      31.733 -13.287 -20.208  0.00  0.00    +0.032 C 
ATOM     30  H   UNL     1      32.752 -13.381 -22.573  0.00  0.00    +0.154 HD
ENDBRANCH  17  21
ENDBRANCH  16  17
ENDBRANCH   1  16
TORSDOF 5
ENDMDL
MODEL 6
REMARK VINA RESULT:     -11.7      2.326      3.542
REMARK  Name = 448889
REMARK  5 active torsions:
REMARK  status: ('A' for Active; 'I' for Inactive)
REMARK    1  A    between atoms: C_1  and  N_2
REMARK    2  A    between atoms: C_1  and  C_16
REMARK    3  A    between atoms: C_6  and  C_10
REMARK    4  A    between atoms: C_16  and  C_17
REMARK    5  A    between atoms: C_17  and  C_21
REMARK                            x       y       z     vdW  Elec       q    Type
REMARK                         _______ _______ _______ _____ _____    ______ ____
ROOT
ATOM      1  C   UNL     1      35.070 -19.977 -20.868  0.00  0.00    -0.076 C 
ENDROOT
BRANCH   1   2
ATOM      2  N   UNL     1      34.463 -18.996 -21.764  0.00  0.00    +0.390 N 
ATOM      3  C   UNL     1      34.579 -19.415 -23.164  0.00  0.00    -0.072 C 
ATOM      4  C   UNL     1      33.788 -18.453 -24.064  0.00  0.00    +0.003 C 
ATOM      5  C   UNL     1      35.065 -17.668 -21.568  0.00  0.00    -0.051 C 
ATOM      6  C   UNL     1      34.075 -16.998 -23.769  0.00  0.00    -0.031 C 
ATOM      7  C   UNL     1      34.669 -16.656 -22.609  0.00  0.00    -0.053 C 
ATOM      8  H   UNL     1      33.471 -18.936 -21.535  0.00  0.00    -0.079 HD
BRANCH   6  10
ATOM      9  F   UNL     1      32.587 -13.157 -27.584  0.00  0.00    -0.204 F 
ATOM     10  C   UNL     1      33.681 -15.984 -24.776  0.00  0.00    -0.004 C 
ATOM     11  C   UNL     1      33.521 -16.351 -26.114  0.00  0.00    +0.002 C 
ATOM     12  C   UNL     1      33.469 -14.659 -24.390  0.00  0.00    +0.002 C 
ATOM     13  C   UNL     1      33.151 -15.397 -27.062  0.00  0.00    +0.030 C 
ATOM     14  C   UNL     1      33.099 -13.705 -25.338  0.00  0.00    +0.030 C 
ATOM     15  C   UNL     1      32.941 -14.073 -26.674  0.00  0.00    +0.140 C 
ENDBRANCH   6  10
ENDBRANCH   1   2
BRANCH   1  16
ATOM     16  C   UNL     1      33.989 -20.687 -20.050  0.00  0.00    -0.014 C 
BRANCH  16  17
ATOM     17  C   UNL     1      34.426 -22.064 -19.576  0.00  0.00    +0.074 C 
BRANCH  17  21
ATOM     18  O   UNL     1      30.398 -22.606 -17.219  0.00  0.00    -0.209 OA
ATOM     19  N   UNL     1      34.393 -22.937 -17.283  0.00  0.00    -0.290 N 
ATOM     20  N   UNL     1      32.360 -22.339 -18.374  0.00  0.00    -0.322 NA
ATOM     21  C   UNL     1      33.655 -22.467 -18.343  0.00  0.00    +0.173 C 
ATOM     22  C   UNL     1      33.733 -23.325 -16.115  0.00  0.00    +0.058 C 
ATOM     23  C   UNL     1      32.336 -23.223 -16.061  0.00  0.00    +0.108 C 
ATOM     24  C   UNL     1      34.427 -23.813 -15.004  0.00  0.00    -0.008 C 
ATOM     25  C   UNL     1      31.620 -22.701 -17.261  0.00  0.00    +0.207 C 
ATOM     26  C   UNL     1      31.637 -23.602 -14.912  0.00  0.00    +0.014 C 
ATOM     27  C   UNL     1      33.731 -24.192 -13.855  0.00  0.00    -0.003 C 
ATOM     28  C   UNL     1      32.341 -24.085 -13.809  0.00  0.00    +0.001 C 
ATOM     29  C   UNL     1      35.915 -23.942 -15.010  0.00  0.00    +0.032 C 
ATOM     30  H   UNL     1      35.373 -22.999 -17.346  0.00  0.00    +0.154 HD
ENDBRANCH  17  21
ENDBRANCH  16  17
ENDBRANCH   1  16
TORSDOF 5
ENDMDL
MODEL 7
REMARK VINA RESULT:     -11.7      6.068     12.671
REMARK  Name = 448889
REMARK  5 active torsions:
REMARK  status: ('A' for Active; 'I' for Inactive)
REMARK    1  A    between atoms: C_1  and  N_2
REMARK    2  A    between atoms: C_1  and  C_16
REMARK    3  A    between atoms: C_6  and  C_10
REMARK    4  A    between atoms: C_16  and  C_17
REMARK    5  A    between atoms: C_17  and  C_21
REMARK                            x       y       z     vdW  Elec       q    Type
REMARK                         _______ _______ _______ _____ _____    ______ ____
ROOT
ATOM      1  C   UNL     1      34.298 -15.982 -24.734  0.00  0.00    -0.076 C 
ENDROOT
BRANCH   1   2
ATOM      2  N   UNL     1      34.045 -16.903 -23.628  0.00  0.00    +0.390 N 
ATOM      3  C   UNL     1      35.172 -16.925 -22.691  0.00  0.00    -0.072 C 
ATOM      4  C   UNL     1      34.809 -17.769 -21.459  0.00  0.00    +0.003 C 
ATOM      5  C   UNL     1      33.762 -18.256 -24.132  0.00  0.00    -0.051 C 
ATOM      6  C   UNL     1      34.202 -19.107 -21.817  0.00  0.00    -0.031 C 
ATOM      7  C   UNL     1      33.726 -19.313 -23.061  0.00  0.00    -0.053 C 
ATOM      8  H   UNL     1      33.224 -16.569 -23.125  0.00  0.00    -0.079 HD
BRANCH   6  10
ATOM      9  F   UNL     1      33.989 -23.086 -17.862  0.00  0.00    -0.204 F 
ATOM     10  C   UNL     1      34.147 -20.157 -20.773  0.00  0.00    -0.004 C 
ATOM     11  C   UNL     1      35.324 -20.744 -20.305  0.00  0.00    +0.002 C 
ATOM     12  C   UNL     1      32.916 -20.563 -20.253  0.00  0.00    +0.002 C 
ATOM     13  C   UNL     1      35.272 -21.732 -19.322  0.00  0.00    +0.030 C 
ATOM     14  C   UNL     1      32.863 -21.551 -19.269  0.00  0.00    +0.030 C 
ATOM     15  C   UNL     1      34.041 -22.136 -18.804  0.00  0.00    +0.140 C 
ENDBRANCH   6  10
ENDBRANCH   1   2
BRANCH   1  16
ATOM     16  C   UNL     1      33.486 -14.698 -24.549  0.00  0.00    -0.014 C 
BRANCH  16  17
ATOM     17  C   UNL     1      33.722 -14.048 -23.195  0.00  0.00    +0.074 C 
BRANCH  17  21
ATOM     18  O   UNL     1      30.950 -10.456 -21.978  0.00  0.00    -0.209 OA
ATOM     19  N   UNL     1      34.158 -11.769 -23.992  0.00  0.00    -0.290 N 
ATOM     20  N   UNL     1      32.298 -12.212 -22.568  0.00  0.00    -0.322 NA
ATOM     21  C   UNL     1      33.349 -12.587 -23.239  0.00  0.00    +0.173 C 
ATOM     22  C   UNL     1      33.861 -10.407 -24.069  0.00  0.00    +0.058 C 
ATOM     23  C   UNL     1      32.747  -9.915 -23.375  0.00  0.00    +0.108 C 
ATOM     24  C   UNL     1      34.646  -9.524 -24.816  0.00  0.00    -0.008 C 
ATOM     25  C   UNL     1      31.928 -10.879 -22.585  0.00  0.00    +0.207 C 
ATOM     26  C   UNL     1      32.417  -8.558 -23.426  0.00  0.00    +0.014 C 
ATOM     27  C   UNL     1      34.319  -8.168 -24.869  0.00  0.00    -0.003 C 
ATOM     28  C   UNL     1      33.207  -7.687 -24.176  0.00  0.00    +0.001 C 
ATOM     29  C   UNL     1      35.845  -9.995 -25.573  0.00  0.00    +0.032 C 
ATOM     30  H   UNL     1      34.935 -12.139 -24.469  0.00  0.00    +0.154 HD
ENDBRANCH  17  21
ENDBRANCH  16  17
ENDBRANCH   1  16
TORSDOF 5
ENDMDL
MODEL 8
REMARK VINA RESULT:     -11.7      5.192     11.754
REMARK  Name = 448889
REMARK  5 active torsions:
REMARK  status: ('A' for Active; 'I' for Inactive)
REMARK    1  A    between atoms: C_1  and  N_2
REMARK    2  A    between atoms: C_1  and  C_16
REMARK    3  A    between atoms: C_6  and  C_10
REMARK    4  A    between atoms: C_16  and  C_17
REMARK    5  A    between atoms: C_17  and  C_21
REMARK                            x       y       z     vdW  Elec       q    Type
REMARK                         _______ _______ _______ _____ _____    ______ ____
ROOT
ATOM      1  C   UNL     1      35.118 -18.991 -22.826  0.00  0.00    -0.076 C 
ENDROOT
BRANCH   1   2
ATOM      2  N   UNL     1      34.902 -20.011 -21.803  0.00  0.00    +0.390 N 
ATOM      3  C   UNL     1      33.671 -19.752 -21.049  0.00  0.00    -0.072 C 
ATOM      4  C   UNL     1      33.384 -20.926 -20.100  0.00  0.00    +0.003 C 
ATOM      5  C   UNL     1      36.058 -20.094 -20.897  0.00  0.00    -0.051 C 
ATOM      6  C   UNL     1      34.594 -21.344 -19.295  0.00  0.00    -0.031 C 
ATOM      7  C   UNL     1      35.822 -20.946 -19.679  0.00  0.00    -0.053 C 
ATOM      8  H   UNL     1      34.798 -20.910 -22.274  0.00  0.00    -0.079 HD
BRANCH   6  10
ATOM      9  F   UNL     1      33.799 -24.559 -14.760  0.00  0.00    -0.204 F 
ATOM     10  C   UNL     1      34.384 -22.193 -18.098  0.00  0.00    -0.004 C 
ATOM     11  C   UNL     1      33.166 -22.851 -17.910  0.00  0.00    +0.002 C 
ATOM     12  C   UNL     1      35.404 -22.338 -17.155  0.00  0.00    +0.002 C 
ATOM     13  C   UNL     1      32.969 -23.650 -16.784  0.00  0.00    +0.030 C 
ATOM     14  C   UNL     1      35.206 -23.138 -16.029  0.00  0.00    +0.030 C 
ATOM     15  C   UNL     1      33.989 -23.793 -15.842  0.00  0.00    +0.140 C 
ENDBRANCH   6  10
ENDBRANCH   1   2
BRANCH   1  16
ATOM     16  C   UNL     1      33.800 -18.663 -23.533  0.00  0.00    -0.014 C 
BRANCH  16  17
ATOM     17  C   UNL     1      33.979 -18.440 -25.026  0.00  0.00    +0.074 C 
BRANCH  17  21
ATOM     18  O   UNL     1      32.838 -15.097 -28.124  0.00  0.00    -0.209 OA
ATOM     19  N   UNL     1      33.795 -16.086 -24.358  0.00  0.00    -0.290 N 
ATOM     20  N   UNL     1      33.394 -16.733 -26.618  0.00  0.00    -0.322 NA
ATOM     21  C   UNL     1      33.700 -17.001 -25.381  0.00  0.00    +0.173 C 
ATOM     22  C   UNL     1      33.547 -14.739 -24.628  0.00  0.00    +0.058 C 
ATOM     23  C   UNL     1      33.209 -14.360 -25.934  0.00  0.00    +0.108 C 
ATOM     24  C   UNL     1      33.626 -13.762 -23.631  0.00  0.00    -0.008 C 
ATOM     25  C   UNL     1      33.131 -15.423 -26.978  0.00  0.00    +0.207 C 
ATOM     26  C   UNL     1      32.952 -13.022 -26.246  0.00  0.00    +0.014 C 
ATOM     27  C   UNL     1      33.370 -12.425 -23.939  0.00  0.00    -0.003 C 
ATOM     28  C   UNL     1      33.036 -12.056 -25.242  0.00  0.00    +0.001 C 
ATOM     29  C   UNL     1      33.981 -14.112 -22.223  0.00  0.00    +0.032 C 
ATOM     30  H   UNL     1      34.034 -16.378 -23.449  0.00  0.00    +0.154 HD
ENDBRANCH  17  21
ENDBRANCH  16  17
ENDBRANCH   1  16
TORSDOF 5
ENDMDL
MODEL 9
REMARK VINA RESULT:     -11.7      4.986     11.225
REMARK  Name = 448889
REMARK  5 active torsions:
REMARK  status: ('A' for Active; 'I' for Inactive)
REMARK    1  A    between atoms: C_1  and  N_2
REMARK    2  A    between atoms: C_1  and  C_16
REMARK    3  A    between atoms: C_6  and  C_10
REMARK    4  A    between atoms: C_16  and  C_17
REMARK    5  A    between atoms: C_17  and  C_21
REMARK                            x       y       z     vdW  Elec       q    Type
REMARK                         _______ _______ _______ _____ _____    ______ ____
ROOT
ATOM      1  C   UNL     1      35.762 -20.396 -20.659  0.00  0.00    -0.076 C 
ENDROOT
BRANCH   1   2
ATOM      2  N   UNL     1      35.063 -20.874 -19.468  0.00  0.00    +0.390 N 
ATOM      3  C   UNL     1      35.878 -21.844 -18.731  0.00  0.00    -0.072 C 
ATOM      4  C   UNL     1      35.191 -22.199 -17.403  0.00  0.00    +0.003 C 
ATOM      5  C   UNL     1      33.760 -21.456 -19.827  0.00  0.00    -0.051 C 
ATOM      6  C   UNL     1      33.726 -22.535 -17.567  0.00  0.00    -0.031 C 
ATOM      7  C   UNL     1      33.083 -22.184 -18.697  0.00  0.00    -0.053 C 
ATOM      8  H   UNL     1      34.900 -20.073 -18.859  0.00  0.00    -0.079 HD
BRANCH   6  10
ATOM      9  F   UNL     1      31.121 -25.209 -13.373  0.00  0.00    -0.204 F 
ATOM     10  C   UNL     1      33.037 -23.241 -16.460  0.00  0.00    -0.004 C 
ATOM     11  C   UNL     1      31.654 -23.423 -16.497  0.00  0.00    +0.002 C 
ATOM     12  C   UNL     1      33.772 -23.727 -15.376  0.00  0.00    +0.002 C 
ATOM     13  C   UNL     1      31.006 -24.088 -15.456  0.00  0.00    +0.030 C 
ATOM     14  C   UNL     1      33.125 -24.392 -14.335  0.00  0.00    +0.030 C 
ATOM     15  C   UNL     1      31.742 -24.572 -14.374  0.00  0.00    +0.140 C 
ENDBRANCH   6  10
ENDBRANCH   1   2
BRANCH   1  16
ATOM     16  C   UNL     1      34.941 -19.304 -21.351  0.00  0.00    -0.014 C 
BRANCH  16  17
ATOM     17  C   UNL     1      34.941 -19.446 -22.865  0.00  0.00    +0.074 C 
BRANCH  17  21
ATOM     18  O   UNL     1      33.538 -16.966 -26.600  0.00  0.00    -0.209 OA
ATOM     19  N   UNL     1      34.501 -17.038 -22.709  0.00  0.00    -0.290 N 
ATOM     20  N   UNL     1      34.223 -18.181 -24.782  0.00  0.00    -0.322 NA
ATOM     21  C   UNL     1      34.525 -18.151 -23.516  0.00  0.00    +0.173 C 
ATOM     22  C   UNL     1      34.123 -15.810 -23.257  0.00  0.00    +0.058 C 
ATOM     23  C   UNL     1      33.779 -15.752 -24.614  0.00  0.00    +0.108 C 
ATOM     24  C   UNL     1      34.076 -14.644 -22.488  0.00  0.00    -0.008 C 
ATOM     25  C   UNL     1      33.835 -17.011 -25.411  0.00  0.00    +0.207 C 
ATOM     26  C   UNL     1      33.394 -14.543 -25.201  0.00  0.00    +0.014 C 
ATOM     27  C   UNL     1      33.692 -13.435 -23.072  0.00  0.00    -0.003 C 
ATOM     28  C   UNL     1      33.353 -13.385 -24.424  0.00  0.00    +0.001 C 
ATOM     29  C   UNL     1      34.432 -14.651 -21.037  0.00  0.00    +0.032 C 
ATOM     30  H   UNL     1      34.746 -17.105 -21.758  0.00  0.00    +0.154 HD
ENDBRANCH  17  21
ENDBRANCH  16  17
ENDBRANCH   1  16
TORSDOF 5
ENDMDL
