MODEL 1
REMARK VINA RESULT:     -11.4      0.000      0.000
REMARK  Name = 10050566
REMARK  9 active torsions:
REMARK  status: ('A' for Active; 'I' for Inactive)
REMARK    1  A    between atoms: C_2  and  N_11
REMARK    2  A    between atoms: C_3  and  O_22
REMARK    3  A    between atoms: C_12  and  C_14
REMARK    4  A    between atoms: C_19  and  O_20
REMARK    5  A    between atoms: O_22  and  C_24
REMARK    6  A    between atoms: C_24  and  C_25
REMARK    7  A    between atoms: C_30  and  C_32
REMARK    8  A    between atoms: C_32  and  C_33
REMARK    9  A    between atoms: C_34  and  O_39
REMARK                            x       y       z     vdW  Elec       q    Type
REMARK                         _______ _______ _______ _____ _____    ______ ____
ROOT
ATOM      1  N   UNL     1      34.942 -11.641 -26.969  0.00  0.00    +0.385 N 
ATOM      2  C   UNL     1      33.919 -10.760 -24.863  0.00  0.00    +0.091 C 
ATOM      3  C   UNL     1      33.003 -11.979 -24.654  0.00  0.00    +0.185 C 
ATOM      4  C   UNL     1      32.184 -12.432 -25.868  0.00  0.00    +0.043 C 
ATOM      5  C   UNL     1      34.364 -10.475 -26.301  0.00  0.00    -0.058 C 
ATOM      6  C   UNL     1      32.965 -13.195 -26.940  0.00  0.00    -0.020 C 
ATOM      7  C   UNL     1      33.940 -12.357 -27.759  0.00  0.00    -0.082 C 
ATOM      8  H   UNL     1      35.323 -12.273 -26.264  0.00  0.00    -0.084 HD
ATOM      9  H   UNL     1      35.676 -11.317 -27.599  0.00  0.00    -0.084 HD
ENDROOT
BRANCH   2  11
ATOM     10  O   UNL     1      35.230  -8.518 -23.643  0.00  0.00    -0.270 OA
ATOM     11  N   UNL     1      33.282  -9.572 -24.327  0.00  0.00    -0.301 N 
ATOM     12  C   UNL     1      34.007  -8.543 -23.757  0.00  0.00    +0.246 C 
ATOM     13  H   UNL     1      32.301  -9.496 -24.371  0.00  0.00    +0.150 HD
BRANCH  12  14
ATOM     14  C   UNL     1      33.205  -7.408 -23.231  0.00  0.00    +0.054 C 
ATOM     15  C   UNL     1      33.004  -7.310 -21.870  0.00  0.00    +0.008 C 
ATOM     16  C   UNL     1      32.686  -6.490 -24.120  0.00  0.00    +0.008 C 
ATOM     17  C   UNL     1      32.252  -6.245 -21.375  0.00  0.00    +0.037 C 
ATOM     18  C   UNL     1      31.934  -5.425 -23.625  0.00  0.00    +0.037 C 
ATOM     19  C   UNL     1      31.716  -5.303 -22.252  0.00  0.00    +0.134 C 
BRANCH  19  20
ATOM     20  O   UNL     1      30.984  -4.262 -21.770  0.00  0.00    -0.506 OA
ATOM     21  H   UNL     1      30.282  -3.908 -22.281  0.00  0.00    +0.292 HD
ENDBRANCH  19  20
ENDBRANCH  12  14
ENDBRANCH   2  11
BRANCH   3  22
ATOM     22  O   UNL     1      33.776 -13.073 -24.151  0.00  0.00    -0.448 OA
BRANCH  22  24
ATOM     23  O   UNL     1      33.013 -12.700 -22.012  0.00  0.00    -0.245 OA
ATOM     24  C   UNL     1      33.551 -13.401 -22.854  0.00  0.00    +0.341 C 
BRANCH  24  25
ATOM     25  C   UNL     1      34.061 -14.767 -22.572  0.00  0.00    +0.076 C 
ATOM     26  C   UNL     1      34.359 -15.111 -21.269  0.00  0.00    +0.007 C 
ATOM     27  C   UNL     1      34.222 -15.649 -23.621  0.00  0.00    +0.007 C 
ATOM     28  C   UNL     1      34.839 -16.395 -21.005  0.00  0.00    +0.003 C 
ATOM     29  C   UNL     1      34.701 -16.931 -23.357  0.00  0.00    +0.003 C 
ATOM     30  C   UNL     1      35.010 -17.305 -22.048  0.00  0.00    +0.039 C 
BRANCH  30  32
ATOM     31  O   UNL     1      36.631 -18.985 -22.175  0.00  0.00    -0.286 OA
ATOM     32  C   UNL     1      35.510 -18.641 -21.772  0.00  0.00    +0.198 C 
BRANCH  32  33
ATOM     33  C   UNL     1      34.717 -19.651 -21.007  0.00  0.00    +0.073 C 
ATOM     34  C   UNL     1      35.360 -20.505 -20.141  0.00  0.00    +0.137 C 
ATOM     35  C   UNL     1      33.355 -19.680 -21.205  0.00  0.00    +0.006 C 
ATOM     36  C   UNL     1      34.602 -21.439 -19.437  0.00  0.00    +0.037 C 
ATOM     37  C   UNL     1      32.596 -20.613 -20.501  0.00  0.00    +0.000 C 
ATOM     38  C   UNL     1      33.220 -21.494 -19.617  0.00  0.00    +0.003 C 
BRANCH  34  39
ATOM     39  O   UNL     1      36.709 -20.468 -19.952  0.00  0.00    -0.505 OA
ATOM     40  H   UNL     1      37.066 -20.564 -19.090  0.00  0.00    +0.292 HD
ENDBRANCH  34  39
ENDBRANCH  32  33
ENDBRANCH  30  32
ENDBRANCH  24  25
ENDBRANCH  22  24
ENDBRANCH   3  22
TORSDOF 9
ENDMDL
MODEL 2
REMARK VINA RESULT:     -11.0      6.922     14.024
REMARK  Name = 10050566
REMARK  9 active torsions:
REMARK  status: ('A' for Active; 'I' for Inactive)
REMARK    1  A    between atoms: C_2  and  N_11
REMARK    2  A    between atoms: C_3  and  O_22
REMARK    3  A    between atoms: C_12  and  C_14
REMARK    4  A    between atoms: C_19  and  O_20
REMARK    5  A    between atoms: O_22  and  C_24
REMARK    6  A    between atoms: C_24  and  C_25
REMARK    7  A    between atoms: C_30  and  C_32
REMARK    8  A    between atoms: C_32  and  C_33
REMARK    9  A    between atoms: C_34  and  O_39
REMARK                            x       y       z     vdW  Elec       q    Type
REMARK                         _______ _______ _______ _____ _____    ______ ____
ROOT
ATOM      1  N   UNL     1      32.116 -22.138 -14.474  0.00  0.00    +0.385 N 
ATOM      2  C   UNL     1      34.108 -23.148 -15.600  0.00  0.00    +0.091 C 
ATOM      3  C   UNL     1      33.286 -23.843 -16.701  0.00  0.00    +0.185 C 
ATOM      4  C   UNL     1      32.074 -24.657 -16.235  0.00  0.00    +0.043 C 
ATOM      5  C   UNL     1      33.379 -22.850 -14.286  0.00  0.00    -0.058 C 
ATOM      6  C   UNL     1      30.848 -23.836 -15.829  0.00  0.00    -0.020 C 
ATOM      7  C   UNL     1      30.983 -23.062 -14.522  0.00  0.00    -0.082 C 
ATOM      8  H   UNL     1      32.156 -21.617 -15.350  0.00  0.00    -0.084 HD
ATOM      9  H   UNL     1      31.982 -21.508 -13.683  0.00  0.00    -0.084 HD
ENDROOT
BRANCH   2  11
ATOM     10  O   UNL     1      36.813 -22.193 -15.532  0.00  0.00    -0.270 OA
ATOM     11  N   UNL     1      35.295 -23.931 -15.309  0.00  0.00    -0.301 N 
ATOM     12  C   UNL     1      36.559 -23.372 -15.301  0.00  0.00    +0.246 C 
ATOM     13  H   UNL     1      35.196 -24.890 -15.111  0.00  0.00    +0.150 HD
BRANCH  12  14
ATOM     14  C   UNL     1      37.672 -24.312 -15.011  0.00  0.00    +0.054 C 
ATOM     15  C   UNL     1      38.858 -24.172 -15.703  0.00  0.00    +0.008 C 
ATOM     16  C   UNL     1      37.486 -25.295 -14.062  0.00  0.00    +0.008 C 
ATOM     17  C   UNL     1      39.904 -25.054 -15.431  0.00  0.00    +0.037 C 
ATOM     18  C   UNL     1      38.532 -26.176 -13.789  0.00  0.00    +0.037 C 
ATOM     19  C   UNL     1      39.742 -26.055 -14.475  0.00  0.00    +0.134 C 
BRANCH  19  20
ATOM     20  O   UNL     1      40.763 -26.914 -14.208  0.00  0.00    -0.506 OA
ATOM     21  H   UNL     1      41.644 -26.598 -14.174  0.00  0.00    +0.292 HD
ENDBRANCH  19  20
ENDBRANCH  12  14
ENDBRANCH   2  11
BRANCH   3  22
ATOM     22  O   UNL     1      32.880 -22.874 -17.672  0.00  0.00    -0.448 OA
BRANCH  22  24
ATOM     23  O   UNL     1      33.419 -24.179 -19.489  0.00  0.00    -0.245 OA
ATOM     24  C   UNL     1      33.316 -23.094 -18.937  0.00  0.00    +0.341 C 
BRANCH  24  25
ATOM     25  C   UNL     1      33.669 -21.810 -19.592  0.00  0.00    +0.076 C 
ATOM     26  C   UNL     1      32.654 -20.988 -20.038  0.00  0.00    +0.007 C 
ATOM     27  C   UNL     1      35.000 -21.478 -19.736  0.00  0.00    +0.007 C 
ATOM     28  C   UNL     1      32.985 -19.781 -20.655  0.00  0.00    +0.003 C 
ATOM     29  C   UNL     1      35.332 -20.271 -20.352  0.00  0.00    +0.003 C 
ATOM     30  C   UNL     1      34.324 -19.422 -20.812  0.00  0.00    +0.039 C 
BRANCH  30  32
ATOM     31  O   UNL     1      35.150 -17.235 -20.791  0.00  0.00    -0.286 OA
ATOM     32  C   UNL     1      34.669 -18.165 -21.455  0.00  0.00    +0.198 C 
BRANCH  32  33
ATOM     33  C   UNL     1      34.465 -17.931 -22.917  0.00  0.00    +0.073 C 
ATOM     34  C   UNL     1      34.453 -16.644 -23.403  0.00  0.00    +0.137 C 
ATOM     35  C   UNL     1      34.297 -19.033 -23.725  0.00  0.00    +0.006 C 
ATOM     36  C   UNL     1      34.262 -16.448 -24.770  0.00  0.00    +0.037 C 
ATOM     37  C   UNL     1      34.106 -18.837 -25.092  0.00  0.00    +0.000 C 
ATOM     38  C   UNL     1      34.088 -17.544 -25.615  0.00  0.00    +0.003 C 
BRANCH  34  39
ATOM     39  O   UNL     1      34.621 -15.560 -22.594  0.00  0.00    -0.505 OA
ATOM     40  H   UNL     1      35.398 -15.476 -22.077  0.00  0.00    +0.292 HD
ENDBRANCH  34  39
ENDBRANCH  32  33
ENDBRANCH  30  32
ENDBRANCH  24  25
ENDBRANCH  22  24
ENDBRANCH   3  22
TORSDOF 9
ENDMDL
MODEL 3
REMARK VINA RESULT:     -10.9      3.552      5.783
REMARK  Name = 10050566
REMARK  9 active torsions:
REMARK  status: ('A' for Active; 'I' for Inactive)
REMARK    1  A    between atoms: C_2  and  N_11
REMARK    2  A    between atoms: C_3  and  O_22
REMARK    3  A    between atoms: C_12  and  C_14
REMARK    4  A    between atoms: C_19  and  O_20
REMARK    5  A    between atoms: O_22  and  C_24
REMARK    6  A    between atoms: C_24  and  C_25
REMARK    7  A    between atoms: C_30  and  C_32
REMARK    8  A    between atoms: C_32  and  C_33
REMARK    9  A    between atoms: C_34  and  O_39
REMARK                            x       y       z     vdW  Elec       q    Type
REMARK                         _______ _______ _______ _____ _____    ______ ____
ROOT
ATOM      1  N   UNL     1      35.001 -17.483 -25.976  0.00  0.00    +0.385 N 
ATOM      2  C   UNL     1      34.276 -16.382 -23.850  0.00  0.00    +0.091 C 
ATOM      3  C   UNL     1      33.831 -17.694 -23.180  0.00  0.00    +0.185 C 
ATOM      4  C   UNL     1      32.925 -18.611 -24.009  0.00  0.00    +0.043 C 
ATOM      5  C   UNL     1      34.275 -16.361 -25.382  0.00  0.00    -0.058 C 
ATOM      6  C   UNL     1      33.629 -19.406 -25.112  0.00  0.00    -0.020 C 
ATOM      7  C   UNL     1      34.100 -18.587 -26.309  0.00  0.00    -0.082 C 
ATOM      8  H   UNL     1      35.701 -17.815 -25.312  0.00  0.00    -0.084 HD
ATOM      9  H   UNL     1      35.442 -17.159 -26.837  0.00  0.00    -0.084 HD
ENDROOT
BRANCH   2  11
ATOM     10  O   UNL     1      34.974 -14.502 -21.798  0.00  0.00    -0.270 OA
ATOM     11  N   UNL     1      33.458 -15.285 -23.368  0.00  0.00    -0.301 N 
ATOM     12  C   UNL     1      33.889 -14.432 -22.370  0.00  0.00    +0.246 C 
ATOM     13  H   UNL     1      32.568 -15.144 -23.764  0.00  0.00    +0.150 HD
BRANCH  12  14
ATOM     14  C   UNL     1      32.924 -13.375 -21.970  0.00  0.00    +0.054 C 
ATOM     15  C   UNL     1      32.427 -13.381 -20.682  0.00  0.00    +0.008 C 
ATOM     16  C   UNL     1      32.554 -12.423 -22.896  0.00  0.00    +0.008 C 
ATOM     17  C   UNL     1      31.522 -12.390 -20.305  0.00  0.00    +0.037 C 
ATOM     18  C   UNL     1      31.649 -11.431 -22.520  0.00  0.00    +0.037 C 
ATOM     19  C   UNL     1      31.133 -11.415 -21.224  0.00  0.00    +0.134 C 
BRANCH  19  20
ATOM     20  O   UNL     1      30.251 -10.446 -20.856  0.00  0.00    -0.506 OA
ATOM     21  H   UNL     1      29.932 -10.414 -19.975  0.00  0.00    +0.292 HD
ENDBRANCH  19  20
ENDBRANCH  12  14
ENDBRANCH   2  11
BRANCH   3  22
ATOM     22  O   UNL     1      34.985 -18.416 -22.739  0.00  0.00    -0.448 OA
BRANCH  22  24
ATOM     23  O   UNL     1      35.766 -17.429 -20.812  0.00  0.00    -0.245 OA
ATOM     24  C   UNL     1      35.240 -18.356 -21.408  0.00  0.00    +0.341 C 
BRANCH  24  25
ATOM     25  C   UNL     1      34.789 -19.602 -20.740  0.00  0.00    +0.076 C 
ATOM     26  C   UNL     1      35.737 -20.483 -20.260  0.00  0.00    +0.007 C 
ATOM     27  C   UNL     1      33.435 -19.842 -20.619  0.00  0.00    +0.007 C 
ATOM     28  C   UNL     1      35.313 -21.655 -19.633  0.00  0.00    +0.003 C 
ATOM     29  C   UNL     1      33.011 -21.013 -19.992  0.00  0.00    +0.003 C 
ATOM     30  C   UNL     1      33.950 -21.920 -19.498  0.00  0.00    +0.039 C 
BRANCH  30  32
ATOM     31  O   UNL     1      33.500 -24.215 -19.465  0.00  0.00    -0.286 OA
ATOM     32  C   UNL     1      33.508 -23.141 -18.845  0.00  0.00    +0.198 C 
BRANCH  32  33
ATOM     33  C   UNL     1      33.048 -23.167 -17.423  0.00  0.00    +0.073 C 
ATOM     34  C   UNL     1      33.977 -23.238 -16.410  0.00  0.00    +0.137 C 
ATOM     35  C   UNL     1      31.693 -23.115 -17.187  0.00  0.00    +0.006 C 
ATOM     36  C   UNL     1      33.527 -23.260 -15.091  0.00  0.00    +0.037 C 
ATOM     37  C   UNL     1      31.243 -23.137 -15.867  0.00  0.00    +0.000 C 
ATOM     38  C   UNL     1      32.160 -23.210 -14.819  0.00  0.00    +0.003 C 
BRANCH  34  39
ATOM     39  O   UNL     1      35.317 -23.288 -16.656  0.00  0.00    -0.505 OA
ATOM     40  H   UNL     1      35.863 -23.870 -16.163  0.00  0.00    +0.292 HD
ENDBRANCH  34  39
ENDBRANCH  32  33
ENDBRANCH  30  32
ENDBRANCH  24  25
ENDBRANCH  22  24
ENDBRANCH   3  22
TORSDOF 9
ENDMDL
MODEL 4
REMARK VINA RESULT:     -10.7      7.063     12.963
REMARK  Name = 10050566
REMARK  9 active torsions:
REMARK  status: ('A' for Active; 'I' for Inactive)
REMARK    1  A    between atoms: C_2  and  N_11
REMARK    2  A    between atoms: C_3  and  O_22
REMARK    3  A    between atoms: C_12  and  C_14
REMARK    4  A    between atoms: C_19  and  O_20
REMARK    5  A    between atoms: O_22  and  C_24
REMARK    6  A    between atoms: C_24  and  C_25
REMARK    7  A    between atoms: C_30  and  C_32
REMARK    8  A    between atoms: C_32  and  C_33
REMARK    9  A    between atoms: C_34  and  O_39
REMARK                            x       y       z     vdW  Elec       q    Type
REMARK                         _______ _______ _______ _____ _____    ______ ____
ROOT
ATOM      1  N   UNL     1      34.991 -25.309 -15.001  0.00  0.00    +0.385 N 
ATOM      2  C   UNL     1      33.040 -24.229 -16.135  0.00  0.00    +0.091 C 
ATOM      3  C   UNL     1      33.801 -22.937 -16.481  0.00  0.00    +0.185 C 
ATOM      4  C   UNL     1      34.585 -22.281 -15.339  0.00  0.00    +0.043 C 
ATOM      5  C   UNL     1      33.557 -25.028 -14.934  0.00  0.00    -0.058 C 
ATOM      6  C   UNL     1      35.904 -22.965 -14.970  0.00  0.00    -0.020 C 
ATOM      7  C   UNL     1      35.767 -24.310 -14.265  0.00  0.00    -0.082 C 
ATOM      8  H   UNL     1      35.285 -25.304 -15.978  0.00  0.00    -0.084 HD
ATOM      9  H   UNL     1      35.159 -26.221 -14.577  0.00  0.00    -0.084 HD
ENDROOT
BRANCH   2  11
ATOM     10  O   UNL     1      31.411 -22.476 -17.718  0.00  0.00    -0.270 OA
ATOM     11  N   UNL     1      31.636 -23.929 -15.926  0.00  0.00    -0.301 N 
ATOM     12  C   UNL     1      30.939 -23.066 -16.750  0.00  0.00    +0.246 C 
ATOM     13  H   UNL     1      31.165 -24.353 -15.173  0.00  0.00    +0.150 HD
BRANCH  12  14
ATOM     14  C   UNL     1      29.516 -22.842 -16.386  0.00  0.00    +0.054 C 
ATOM     15  C   UNL     1      28.535 -23.184 -17.295  0.00  0.00    +0.008 C 
ATOM     16  C   UNL     1      29.219 -22.300 -15.153  0.00  0.00    +0.008 C 
ATOM     17  C   UNL     1      27.199 -22.974 -16.955  0.00  0.00    +0.037 C 
ATOM     18  C   UNL     1      27.883 -22.092 -14.812  0.00  0.00    +0.037 C 
ATOM     19  C   UNL     1      26.873 -22.429 -15.713  0.00  0.00    +0.134 C 
BRANCH  19  20
ATOM     20  O   UNL     1      25.569 -22.226 -15.380  0.00  0.00    -0.506 OA
ATOM     21  H   UNL     1      24.892 -22.680 -15.842  0.00  0.00    +0.292 HD
ENDBRANCH  19  20
ENDBRANCH  12  14
ENDBRANCH   2  11
BRANCH   3  22
ATOM     22  O   UNL     1      34.668 -23.181 -17.593  0.00  0.00    -0.448 OA
BRANCH  22  24
ATOM     23  O   UNL     1      33.449 -24.132 -19.298  0.00  0.00    -0.245 OA
ATOM     24  C   UNL     1      34.068 -23.199 -18.809  0.00  0.00    +0.341 C 
BRANCH  24  25
ATOM     25  C   UNL     1      34.266 -21.901 -19.502  0.00  0.00    +0.076 C 
ATOM     26  C   UNL     1      35.548 -21.408 -19.639  0.00  0.00    +0.007 C 
ATOM     27  C   UNL     1      33.163 -21.228 -19.985  0.00  0.00    +0.007 C 
ATOM     28  C   UNL     1      35.733 -20.187 -20.289  0.00  0.00    +0.003 C 
ATOM     29  C   UNL     1      33.349 -20.008 -20.635  0.00  0.00    +0.003 C 
ATOM     30  C   UNL     1      34.635 -19.487 -20.787  0.00  0.00    +0.039 C 
BRANCH  30  32
ATOM     31  O   UNL     1      35.234 -17.227 -20.834  0.00  0.00    -0.286 OA
ATOM     32  C   UNL     1      34.828 -18.215 -21.464  0.00  0.00    +0.198 C 
BRANCH  32  33
ATOM     33  C   UNL     1      34.553 -18.034 -22.922  0.00  0.00    +0.073 C 
ATOM     34  C   UNL     1      34.476 -16.764 -23.445  0.00  0.00    +0.137 C 
ATOM     35  C   UNL     1      34.389 -19.166 -23.688  0.00  0.00    +0.006 C 
ATOM     36  C   UNL     1      34.219 -16.617 -24.808  0.00  0.00    +0.037 C 
ATOM     37  C   UNL     1      34.133 -19.019 -25.051  0.00  0.00    +0.000 C 
ATOM     38  C   UNL     1      34.047 -17.745 -25.611  0.00  0.00    +0.003 C 
BRANCH  34  39
ATOM     39  O   UNL     1      34.640 -15.650 -22.677  0.00  0.00    -0.505 OA
ATOM     40  H   UNL     1      35.197 -14.956 -22.971  0.00  0.00    +0.292 HD
ENDBRANCH  34  39
ENDBRANCH  32  33
ENDBRANCH  30  32
ENDBRANCH  24  25
ENDBRANCH  22  24
ENDBRANCH   3  22
TORSDOF 9
ENDMDL
MODEL 5
REMARK VINA RESULT:     -10.6      1.696      2.397
REMARK  Name = 10050566
REMARK  9 active torsions:
REMARK  status: ('A' for Active; 'I' for Inactive)
REMARK    1  A    between atoms: C_2  and  N_11
REMARK    2  A    between atoms: C_3  and  O_22
REMARK    3  A    between atoms: C_12  and  C_14
REMARK    4  A    between atoms: C_19  and  O_20
REMARK    5  A    between atoms: O_22  and  C_24
REMARK    6  A    between atoms: C_24  and  C_25
REMARK    7  A    between atoms: C_30  and  C_32
REMARK    8  A    between atoms: C_32  and  C_33
REMARK    9  A    between atoms: C_34  and  O_39
REMARK                            x       y       z     vdW  Elec       q    Type
REMARK                         _______ _______ _______ _____ _____    ______ ____
ROOT
ATOM      1  N   UNL     1      35.603  -9.795 -25.996  0.00  0.00    +0.385 N 
ATOM      2  C   UNL     1      33.905  -9.114 -24.290  0.00  0.00    +0.091 C 
ATOM      3  C   UNL     1      33.077 -10.404 -24.420  0.00  0.00    +0.185 C 
ATOM      4  C   UNL     1      32.717 -10.843 -25.844  0.00  0.00    +0.043 C 
ATOM      5  C   UNL     1      34.749  -8.715 -25.505  0.00  0.00    -0.058 C 
ATOM      6  C   UNL     1      33.855 -11.485 -26.641  0.00  0.00    -0.020 C 
ATOM      7  C   UNL     1      34.962 -10.534 -27.084  0.00  0.00    -0.082 C 
ATOM      8  H   UNL     1      35.798 -10.439 -25.228  0.00  0.00    -0.084 HD
ATOM      9  H   UNL     1      36.466  -9.385 -26.353  0.00  0.00    -0.084 HD
ENDROOT
BRANCH   2  11
ATOM     10  O   UNL     1      33.001  -8.408 -21.660  0.00  0.00    -0.270 OA
ATOM     11  N   UNL     1      33.034  -8.007 -23.943  0.00  0.00    -0.301 N 
ATOM     12  C   UNL     1      32.656  -7.751 -22.638  0.00  0.00    +0.246 C 
ATOM     13  H   UNL     1      32.701  -7.419 -24.659  0.00  0.00    +0.150 HD
BRANCH  12  14
ATOM     14  C   UNL     1      31.739  -6.597 -22.452  0.00  0.00    +0.054 C 
ATOM     15  C   UNL     1      31.339  -5.879 -23.560  0.00  0.00    +0.008 C 
ATOM     16  C   UNL     1      31.316  -6.279 -21.178  0.00  0.00    +0.008 C 
ATOM     17  C   UNL     1      30.478  -4.796 -23.386  0.00  0.00    +0.037 C 
ATOM     18  C   UNL     1      30.455  -5.197 -21.004  0.00  0.00    +0.037 C 
ATOM     19  C   UNL     1      30.036  -4.455 -22.109  0.00  0.00    +0.134 C 
BRANCH  19  20
ATOM     20  O   UNL     1      29.193  -3.399 -21.938  0.00  0.00    -0.506 OA
ATOM     21  H   UNL     1      29.201  -2.920 -21.133  0.00  0.00    +0.292 HD
ENDBRANCH  19  20
ENDBRANCH  12  14
ENDBRANCH   2  11
BRANCH   3  22
ATOM     22  O   UNL     1      33.746 -11.468 -23.736  0.00  0.00    -0.448 OA
BRANCH  22  24
ATOM     23  O   UNL     1      31.970 -12.009 -22.377  0.00  0.00    -0.245 OA
ATOM     24  C   UNL     1      32.944 -12.316 -23.045  0.00  0.00    +0.341 C 
BRANCH  24  25
ATOM     25  C   UNL     1      33.414 -13.715 -23.205  0.00  0.00    +0.076 C 
ATOM     26  C   UNL     1      34.050 -14.330 -22.145  0.00  0.00    +0.007 C 
ATOM     27  C   UNL     1      33.203 -14.357 -24.407  0.00  0.00    +0.007 C 
ATOM     28  C   UNL     1      34.493 -15.644 -22.295  0.00  0.00    +0.003 C 
ATOM     29  C   UNL     1      33.645 -15.671 -24.558  0.00  0.00    +0.003 C 
ATOM     30  C   UNL     1      34.290 -16.315 -23.501  0.00  0.00    +0.039 C 
BRANCH  30  32
ATOM     31  O   UNL     1      34.886 -18.174 -24.789  0.00  0.00    -0.286 OA
ATOM     32  C   UNL     1      34.752 -17.685 -23.658  0.00  0.00    +0.198 C 
BRANCH  32  33
ATOM     33  C   UNL     1      35.080 -18.558 -22.490  0.00  0.00    +0.073 C 
ATOM     34  C   UNL     1      34.101 -19.355 -21.942  0.00  0.00    +0.137 C 
ATOM     35  C   UNL     1      36.369 -18.525 -22.008  0.00  0.00    +0.006 C 
ATOM     36  C   UNL     1      34.428 -20.161 -20.853  0.00  0.00    +0.037 C 
ATOM     37  C   UNL     1      36.696 -19.332 -20.919  0.00  0.00    +0.000 C 
ATOM     38  C   UNL     1      35.726 -20.150 -20.341  0.00  0.00    +0.003 C 
BRANCH  34  39
ATOM     39  O   UNL     1      32.828 -19.379 -22.427  0.00  0.00    -0.505 OA
ATOM     40  H   UNL     1      32.619 -19.911 -23.171  0.00  0.00    +0.292 HD
ENDBRANCH  34  39
ENDBRANCH  32  33
ENDBRANCH  30  32
ENDBRANCH  24  25
ENDBRANCH  22  24
ENDBRANCH   3  22
TORSDOF 9
ENDMDL
MODEL 6
REMARK VINA RESULT:     -10.2      7.009     14.017
REMARK  Name = 10050566
REMARK  9 active torsions:
REMARK  status: ('A' for Active; 'I' for Inactive)
REMARK    1  A    between atoms: C_2  and  N_11
REMARK    2  A    between atoms: C_3  and  O_22
REMARK    3  A    between atoms: C_12  and  C_14
REMARK    4  A    between atoms: C_19  and  O_20
REMARK    5  A    between atoms: O_22  and  C_24
REMARK    6  A    between atoms: C_24  and  C_25
REMARK    7  A    between atoms: C_30  and  C_32
REMARK    8  A    between atoms: C_32  and  C_33
REMARK    9  A    between atoms: C_34  and  O_39
REMARK                            x       y       z     vdW  Elec       q    Type
REMARK                         _______ _______ _______ _____ _____    ______ ____
ROOT
ATOM      1  N   UNL     1      29.917 -21.796 -15.244  0.00  0.00    +0.385 N 
ATOM      2  C   UNL     1      32.181 -22.853 -15.362  0.00  0.00    +0.091 C 
ATOM      3  C   UNL     1      31.874 -23.656 -16.639  0.00  0.00    +0.185 C 
ATOM      4  C   UNL     1      30.566 -24.455 -16.643  0.00  0.00    +0.043 C 
ATOM      5  C   UNL     1      30.982 -22.462 -14.493  0.00  0.00    -0.058 C 
ATOM      6  C   UNL     1      29.293 -23.630 -16.848  0.00  0.00    -0.020 C 
ATOM      7  C   UNL     1      28.890 -22.746 -15.673  0.00  0.00    -0.082 C 
ATOM      8  H   UNL     1      30.321 -21.350 -16.068  0.00  0.00    -0.084 HD
ATOM      9  H   UNL     1      29.479 -21.105 -14.634  0.00  0.00    -0.084 HD
ENDROOT
BRANCH   2  11
ATOM     10  O   UNL     1      34.932 -23.375 -15.990  0.00  0.00    -0.270 OA
ATOM     11  N   UNL     1      33.132 -23.581 -14.544  0.00  0.00    -0.301 N 
ATOM     12  C   UNL     1      34.442 -23.778 -14.938  0.00  0.00    +0.246 C 
ATOM     13  H   UNL     1      32.835 -23.947 -13.679  0.00  0.00    +0.150 HD
BRANCH  12  14
ATOM     14  C   UNL     1      35.282 -24.568 -14.001  0.00  0.00    +0.054 C 
ATOM     15  C   UNL     1      35.206 -24.297 -12.650  0.00  0.00    +0.008 C 
ATOM     16  C   UNL     1      36.112 -25.545 -14.509  0.00  0.00    +0.008 C 
ATOM     17  C   UNL     1      35.994 -25.037 -11.769  0.00  0.00    +0.037 C 
ATOM     18  C   UNL     1      36.900 -26.286 -13.629  0.00  0.00    +0.037 C 
ATOM     19  C   UNL     1      36.840 -26.031 -12.258  0.00  0.00    +0.134 C 
BRANCH  19  20
ATOM     20  O   UNL     1      37.608 -26.755 -11.399  0.00  0.00    -0.506 OA
ATOM     21  H   UNL     1      37.623 -26.538 -10.487  0.00  0.00    +0.292 HD
ENDBRANCH  19  20
ENDBRANCH  12  14
ENDBRANCH   2  11
BRANCH   3  22
ATOM     22  O   UNL     1      31.917 -22.781 -17.770  0.00  0.00    -0.448 OA
BRANCH  22  24
ATOM     23  O   UNL     1      33.222 -24.224 -19.000  0.00  0.00    -0.245 OA
ATOM     24  C   UNL     1      32.826 -23.102 -18.724  0.00  0.00    +0.341 C 
BRANCH  24  25
ATOM     25  C   UNL     1      33.300 -21.878 -19.417  0.00  0.00    +0.076 C 
ATOM     26  C   UNL     1      32.368 -20.989 -19.914  0.00  0.00    +0.007 C 
ATOM     27  C   UNL     1      34.658 -21.666 -19.544  0.00  0.00    +0.007 C 
ATOM     28  C   UNL     1      32.814 -19.839 -20.566  0.00  0.00    +0.003 C 
ATOM     29  C   UNL     1      35.103 -20.517 -20.195  0.00  0.00    +0.003 C 
ATOM     30  C   UNL     1      34.181 -19.603 -20.707  0.00  0.00    +0.039 C 
BRANCH  30  32
ATOM     31  O   UNL     1      35.234 -17.515 -20.754  0.00  0.00    -0.286 OA
ATOM     32  C   UNL     1      34.646 -18.404 -21.386  0.00  0.00    +0.198 C 
BRANCH  32  33
ATOM     33  C   UNL     1      34.443 -18.185 -22.851  0.00  0.00    +0.073 C 
ATOM     34  C   UNL     1      34.392 -16.902 -23.344  0.00  0.00    +0.137 C 
ATOM     35  C   UNL     1      34.314 -19.296 -23.653  0.00  0.00    +0.006 C 
ATOM     36  C   UNL     1      34.202 -16.719 -24.713  0.00  0.00    +0.037 C 
ATOM     37  C   UNL     1      34.125 -19.114 -25.023  0.00  0.00    +0.000 C 
ATOM     38  C   UNL     1      34.068 -17.825 -25.552  0.00  0.00    +0.003 C 
BRANCH  34  39
ATOM     39  O   UNL     1      34.521 -15.809 -22.540  0.00  0.00    -0.505 OA
ATOM     40  H   UNL     1      34.946 -15.038 -22.861  0.00  0.00    +0.292 HD
ENDBRANCH  34  39
ENDBRANCH  32  33
ENDBRANCH  30  32
ENDBRANCH  24  25
ENDBRANCH  22  24
ENDBRANCH   3  22
TORSDOF 9
ENDMDL
MODEL 7
REMARK VINA RESULT:     -10.2      6.457     12.872
REMARK  Name = 10050566
REMARK  9 active torsions:
REMARK  status: ('A' for Active; 'I' for Inactive)
REMARK    1  A    between atoms: C_2  and  N_11
REMARK    2  A    between atoms: C_3  and  O_22
REMARK    3  A    between atoms: C_12  and  C_14
REMARK    4  A    between atoms: C_19  and  O_20
REMARK    5  A    between atoms: O_22  and  C_24
REMARK    6  A    between atoms: C_24  and  C_25
REMARK    7  A    between atoms: C_30  and  C_32
REMARK    8  A    between atoms: C_32  and  C_33
REMARK    9  A    between atoms: C_34  and  O_39
REMARK                            x       y       z     vdW  Elec       q    Type
REMARK                         _______ _______ _______ _____ _____    ______ ____
ROOT
ATOM      1  N   UNL     1      35.366 -25.289 -15.518  0.00  0.00    +0.385 N 
ATOM      2  C   UNL     1      33.418 -23.923 -16.292  0.00  0.00    +0.091 C 
ATOM      3  C   UNL     1      34.189 -22.591 -16.278  0.00  0.00    +0.185 C 
ATOM      4  C   UNL     1      34.989 -22.281 -15.008  0.00  0.00    +0.043 C 
ATOM      5  C   UNL     1      33.936 -25.025 -15.362  0.00  0.00    -0.058 C 
ATOM      6  C   UNL     1      36.303 -23.051 -14.854  0.00  0.00    -0.020 C 
ATOM      7  C   UNL     1      36.158 -24.537 -14.544  0.00  0.00    -0.082 C 
ATOM      8  H   UNL     1      35.653 -25.017 -16.459  0.00  0.00    -0.084 HD
ATOM      9  H   UNL     1      35.527 -26.284 -15.362  0.00  0.00    -0.084 HD
ENDROOT
BRANCH   2  11
ATOM     10  O   UNL     1      31.507 -22.625 -17.994  0.00  0.00    -0.270 OA
ATOM     11  N   UNL     1      32.019 -23.681 -15.995  0.00  0.00    -0.301 N 
ATOM     12  C   UNL     1      31.178 -23.044 -16.887  0.00  0.00    +0.246 C 
ATOM     13  H   UNL     1      31.657 -23.979 -15.129  0.00  0.00    +0.150 HD
BRANCH  12  14
ATOM     14  C   UNL     1      29.780 -22.847 -16.422  0.00  0.00    +0.054 C 
ATOM     15  C   UNL     1      29.563 -22.421 -15.128  0.00  0.00    +0.008 C 
ATOM     16  C   UNL     1      28.744 -23.098 -17.298  0.00  0.00    +0.008 C 
ATOM     17  C   UNL     1      28.252 -22.236 -14.691  0.00  0.00    +0.037 C 
ATOM     18  C   UNL     1      27.433 -22.912 -16.861  0.00  0.00    +0.037 C 
ATOM     19  C   UNL     1      27.187 -22.482 -15.557  0.00  0.00    +0.134 C 
BRANCH  19  20
ATOM     20  O   UNL     1      25.907 -22.299 -15.131  0.00  0.00    -0.506 OA
ATOM     21  H   UNL     1      25.653 -21.483 -14.748  0.00  0.00    +0.292 HD
ENDBRANCH  19  20
ENDBRANCH  12  14
ENDBRANCH   2  11
BRANCH   3  22
ATOM     22  O   UNL     1      35.045 -22.527 -17.422  0.00  0.00    -0.448 OA
BRANCH  22  24
ATOM     23  O   UNL     1      33.735 -23.657 -18.940  0.00  0.00    -0.245 OA
ATOM     24  C   UNL     1      34.436 -22.709 -18.620  0.00  0.00    +0.341 C 
BRANCH  24  25
ATOM     25  C   UNL     1      34.738 -21.576 -19.530  0.00  0.00    +0.076 C 
ATOM     26  C   UNL     1      36.046 -21.156 -19.660  0.00  0.00    +0.007 C 
ATOM     27  C   UNL     1      33.702 -20.977 -20.217  0.00  0.00    +0.007 C 
ATOM     28  C   UNL     1      36.330 -20.089 -20.514  0.00  0.00    +0.003 C 
ATOM     29  C   UNL     1      33.985 -19.912 -21.071  0.00  0.00    +0.003 C 
ATOM     30  C   UNL     1      35.300 -19.467 -21.220  0.00  0.00    +0.039 C 
BRANCH  30  32
ATOM     31  O   UNL     1      36.299 -18.531 -23.116  0.00  0.00    -0.286 OA
ATOM     32  C   UNL     1      35.596 -18.357 -22.110  0.00  0.00    +0.198 C 
BRANCH  32  33
ATOM     33  C   UNL     1      35.081 -16.975 -21.864  0.00  0.00    +0.073 C 
ATOM     34  C   UNL     1      34.866 -16.132 -22.929  0.00  0.00    +0.137 C 
ATOM     35  C   UNL     1      34.840 -16.604 -20.560  0.00  0.00    +0.006 C 
ATOM     36  C   UNL     1      34.385 -14.848 -22.679  0.00  0.00    +0.037 C 
ATOM     37  C   UNL     1      34.358 -15.320 -20.309  0.00  0.00    +0.000 C 
ATOM     38  C   UNL     1      34.131 -14.441 -21.368  0.00  0.00    +0.003 C 
BRANCH  34  39
ATOM     39  O   UNL     1      35.108 -16.510 -24.216  0.00  0.00    -0.505 OA
ATOM     40  H   UNL     1      35.663 -17.244 -24.393  0.00  0.00    +0.292 HD
ENDBRANCH  34  39
ENDBRANCH  32  33
ENDBRANCH  30  32
ENDBRANCH  24  25
ENDBRANCH  22  24
ENDBRANCH   3  22
TORSDOF 9
ENDMDL
MODEL 8
REMARK VINA RESULT:     -10.0      4.317      6.413
REMARK  Name = 10050566
REMARK  9 active torsions:
REMARK  status: ('A' for Active; 'I' for Inactive)
REMARK    1  A    between atoms: C_2  and  N_11
REMARK    2  A    between atoms: C_3  and  O_22
REMARK    3  A    between atoms: C_12  and  C_14
REMARK    4  A    between atoms: C_19  and  O_20
REMARK    5  A    between atoms: O_22  and  C_24
REMARK    6  A    between atoms: C_24  and  C_25
REMARK    7  A    between atoms: C_30  and  C_32
REMARK    8  A    between atoms: C_32  and  C_33
REMARK    9  A    between atoms: C_34  and  O_39
REMARK                            x       y       z     vdW  Elec       q    Type
REMARK                         _______ _______ _______ _____ _____    ______ ____
ROOT
ATOM      1  N   UNL     1      30.816  -9.061 -21.571  0.00  0.00    +0.385 N 
ATOM      2  C   UNL     1      31.608  -8.281 -23.812  0.00  0.00    +0.091 C 
ATOM      3  C   UNL     1      33.071  -8.102 -23.369  0.00  0.00    +0.185 C 
ATOM      4  C   UNL     1      33.299  -7.319 -22.071  0.00  0.00    +0.043 C 
ATOM      5  C   UNL     1      30.543  -8.191 -22.714  0.00  0.00    -0.058 C 
ATOM      6  C   UNL     1      32.995  -8.083 -20.780  0.00  0.00    -0.020 C 
ATOM      7  C   UNL     1      31.517  -8.342 -20.507  0.00  0.00    -0.082 C 
ATOM      8  H   UNL     1      31.394  -9.843 -21.880  0.00  0.00    -0.084 HD
ATOM      9  H   UNL     1      29.925  -9.393 -21.201  0.00  0.00    -0.084 HD
ENDROOT
BRANCH   2  11
ATOM     10  O   UNL     1      32.043  -8.598 -26.631  0.00  0.00    -0.270 OA
ATOM     11  N   UNL     1      31.290  -7.318 -24.850  0.00  0.00    -0.301 N 
ATOM     12  C   UNL     1      31.541  -7.569 -26.186  0.00  0.00    +0.246 C 
ATOM     13  H   UNL     1      30.884  -6.459 -24.595  0.00  0.00    +0.150 HD
BRANCH  12  14
ATOM     14  C   UNL     1      31.183  -6.472 -27.122  0.00  0.00    +0.054 C 
ATOM     15  C   UNL     1      31.337  -6.678 -28.478  0.00  0.00    +0.008 C 
ATOM     16  C   UNL     1      30.710  -5.283 -26.607  0.00  0.00    +0.008 C 
ATOM     17  C   UNL     1      31.001  -5.648 -29.357  0.00  0.00    +0.037 C 
ATOM     18  C   UNL     1      30.374  -4.254 -27.486  0.00  0.00    +0.037 C 
ATOM     19  C   UNL     1      30.520  -4.437 -28.862  0.00  0.00    +0.134 C 
BRANCH  19  20
ATOM     20  O   UNL     1      30.190  -3.433 -29.719  0.00  0.00    -0.506 OA
ATOM     21  H   UNL     1      30.558  -2.579 -29.603  0.00  0.00    +0.292 HD
ENDBRANCH  19  20
ENDBRANCH  12  14
ENDBRANCH   2  11
BRANCH   3  22
ATOM     22  O   UNL     1      33.700  -9.384 -23.283  0.00  0.00    -0.448 OA
BRANCH  22  24
ATOM     23  O   UNL     1      35.552  -9.124 -24.624  0.00  0.00    -0.245 OA
ATOM     24  C   UNL     1      34.523  -9.702 -24.313  0.00  0.00    +0.341 C 
BRANCH  24  25
ATOM     25  C   UNL     1      33.999 -10.882 -25.046  0.00  0.00    +0.076 C 
ATOM     26  C   UNL     1      34.276 -11.008 -26.392  0.00  0.00    +0.007 C 
ATOM     27  C   UNL     1      33.250 -11.816 -24.360  0.00  0.00    +0.007 C 
ATOM     28  C   UNL     1      33.782 -12.116 -27.081  0.00  0.00    +0.003 C 
ATOM     29  C   UNL     1      32.757 -12.924 -25.048  0.00  0.00    +0.003 C 
ATOM     30  C   UNL     1      33.023 -13.074 -26.410  0.00  0.00    +0.039 C 
BRANCH  30  32
ATOM     31  O   UNL     1      31.841 -14.076 -28.161  0.00  0.00    -0.286 OA
ATOM     32  C   UNL     1      32.509 -14.229 -27.128  0.00  0.00    +0.198 C 
BRANCH  32  33
ATOM     33  C   UNL     1      32.750 -15.630 -26.668  0.00  0.00    +0.073 C 
ATOM     34  C   UNL     1      31.756 -16.571 -26.808  0.00  0.00    +0.137 C 
ATOM     35  C   UNL     1      33.977 -15.921 -26.117  0.00  0.00    +0.006 C 
ATOM     36  C   UNL     1      32.001 -17.873 -26.373  0.00  0.00    +0.037 C 
ATOM     37  C   UNL     1      34.224 -17.223 -25.682  0.00  0.00    +0.000 C 
ATOM     38  C   UNL     1      33.235 -18.199 -25.809  0.00  0.00    +0.003 C 
BRANCH  34  39
ATOM     39  O   UNL     1      30.544 -16.272 -27.355  0.00  0.00    -0.505 OA
ATOM     40  H   UNL     1      30.367 -16.489 -28.249  0.00  0.00    +0.292 HD
ENDBRANCH  34  39
ENDBRANCH  32  33
ENDBRANCH  30  32
ENDBRANCH  24  25
ENDBRANCH  22  24
ENDBRANCH   3  22
TORSDOF 9
ENDMDL
MODEL 9
REMARK VINA RESULT:      -9.8      2.204     11.020
REMARK  Name = 10050566
REMARK  9 active torsions:
REMARK  status: ('A' for Active; 'I' for Inactive)
REMARK    1  A    between atoms: C_2  and  N_11
REMARK    2  A    between atoms: C_3  and  O_22
REMARK    3  A    between atoms: C_12  and  C_14
REMARK    4  A    between atoms: C_19  and  O_20
REMARK    5  A    between atoms: O_22  and  C_24
REMARK    6  A    between atoms: C_24  and  C_25
REMARK    7  A    between atoms: C_30  and  C_32
REMARK    8  A    between atoms: C_32  and  C_33
REMARK    9  A    between atoms: C_34  and  O_39
REMARK                            x       y       z     vdW  Elec       q    Type
REMARK                         _______ _______ _______ _____ _____    ______ ____
ROOT
ATOM      1  N   UNL     1      32.794 -12.647 -26.659  0.00  0.00    +0.385 N 
ATOM      2  C   UNL     1      33.080 -13.591 -24.360  0.00  0.00    +0.091 C 
ATOM      3  C   UNL     1      33.337 -12.225 -23.699  0.00  0.00    +0.185 C 
ATOM      4  C   UNL     1      34.372 -11.322 -24.378  0.00  0.00    +0.043 C 
ATOM      5  C   UNL     1      33.407 -13.702 -25.853  0.00  0.00    -0.058 C 
ATOM      6  C   UNL     1      33.898 -10.623 -25.655  0.00  0.00    -0.020 C 
ATOM      7  C   UNL     1      33.714 -11.529 -26.867  0.00  0.00    -0.082 C 
ATOM      8  H   UNL     1      31.960 -12.306 -26.181  0.00  0.00    -0.084 HD
ATOM      9  H   UNL     1      32.555 -13.039 -27.570  0.00  0.00    -0.084 HD
ENDROOT
BRANCH   2  11
ATOM     10  O   UNL     1      33.132 -16.391 -24.986  0.00  0.00    -0.270 OA
ATOM     11  N   UNL     1      33.806 -14.624 -23.646  0.00  0.00    -0.301 N 
ATOM     12  C   UNL     1      33.765 -15.951 -24.030  0.00  0.00    +0.246 C 
ATOM     13  H   UNL     1      34.345 -14.372 -22.861  0.00  0.00    +0.150 HD
BRANCH  12  14
ATOM     14  C   UNL     1      34.541 -16.889 -23.179  0.00  0.00    +0.054 C 
ATOM     15  C   UNL     1      34.665 -16.618 -21.832  0.00  0.00    +0.008 C 
ATOM     16  C   UNL     1      35.113 -18.001 -23.761  0.00  0.00    +0.008 C 
ATOM     17  C   UNL     1      35.393 -17.498 -21.031  0.00  0.00    +0.037 C 
ATOM     18  C   UNL     1      35.840 -18.882 -22.961  0.00  0.00    +0.037 C 
ATOM     19  C   UNL     1      35.981 -18.630 -21.596  0.00  0.00    +0.134 C 
BRANCH  19  20
ATOM     20  O   UNL     1      36.689 -19.490 -20.815  0.00  0.00    -0.506 OA
ATOM     21  H   UNL     1      37.060 -19.192 -20.007  0.00  0.00    +0.292 HD
ENDBRANCH  19  20
ENDBRANCH  12  14
ENDBRANCH   2  11
BRANCH   3  22
ATOM     22  O   UNL     1      32.096 -11.526 -23.560  0.00  0.00    -0.448 OA
BRANCH  22  24
ATOM     23  O   UNL     1      31.305 -12.339 -21.557  0.00  0.00    -0.245 OA
ATOM     24  C   UNL     1      31.624 -11.418 -22.293  0.00  0.00    +0.341 C 
BRANCH  24  25
ATOM     25  C   UNL     1      31.537  -9.991 -21.895  0.00  0.00    +0.076 C 
ATOM     26  C   UNL     1      31.631  -9.664 -20.557  0.00  0.00    +0.007 C 
ATOM     27  C   UNL     1      31.362  -9.034 -22.874  0.00  0.00    +0.007 C 
ATOM     28  C   UNL     1      31.548  -8.323 -20.183  0.00  0.00    +0.003 C 
ATOM     29  C   UNL     1      31.279  -7.694 -22.501  0.00  0.00    +0.003 C 
ATOM     30  C   UNL     1      31.372  -7.337 -21.154  0.00  0.00    +0.039 C 
BRANCH  30  32
ATOM     31  O   UNL     1      31.230  -5.627 -19.566  0.00  0.00    -0.286 OA
ATOM     32  C   UNL     1      31.285  -5.939 -20.765  0.00  0.00    +0.198 C 
BRANCH  32  33
ATOM     33  C   UNL     1      31.256  -4.830 -21.765  0.00  0.00    +0.073 C 
ATOM     34  C   UNL     1      30.083  -4.147 -21.989  0.00  0.00    +0.137 C 
ATOM     35  C   UNL     1      32.426  -4.535 -22.428  0.00  0.00    +0.006 C 
ATOM     36  C   UNL     1      30.078  -3.116 -22.926  0.00  0.00    +0.037 C 
ATOM     37  C   UNL     1      32.422  -3.502 -23.366  0.00  0.00    +0.000 C 
ATOM     38  C   UNL     1      31.247  -2.793 -23.615  0.00  0.00    +0.003 C 
BRANCH  34  39
ATOM     39  O   UNL     1      28.930  -4.448 -21.327  0.00  0.00    -0.505 OA
ATOM     40  H   UNL     1      28.188  -4.773 -21.799  0.00  0.00    +0.292 HD
ENDBRANCH  34  39
ENDBRANCH  32  33
ENDBRANCH  30  32
ENDBRANCH  24  25
ENDBRANCH  22  24
ENDBRANCH   3  22
TORSDOF 9
ENDMDL
