MODEL 1
REMARK VINA RESULT:     -12.2      0.000      0.000
REMARK  Name = 25113615
REMARK  7 active torsions:
REMARK  status: ('A' for Active; 'I' for Inactive)
REMARK    1  A    between atoms: N_2  and  C_20
REMARK    2  A    between atoms: C_3  and  C_7
REMARK    3  A    between atoms: C_11  and  C_12
REMARK    4  A    between atoms: C_12  and  C_13
REMARK    5  A    between atoms: C_13  and  C_14
REMARK    6  A    between atoms: C_20  and  C_21
REMARK    7  A    between atoms: C_26  and  C_29
REMARK                            x       y       z     vdW  Elec       q    Type
REMARK                         _______ _______ _______ _____ _____    ______ ____
ROOT
ATOM      1  O   UNL     1      34.461 -23.911 -13.012  0.00  0.00    -0.273 OA
ATOM      2  N   UNL     1      32.908 -25.010 -14.355  0.00  0.00    -0.299 N 
ATOM      3  C   UNL     1      34.169 -24.541 -14.026  0.00  0.00    +0.241 C 
ATOM      4  H   UNL     1      32.798 -25.504 -15.199  0.00  0.00    +0.150 HD
ENDROOT
BRANCH   3   7
ATOM      5  O   UNL     1      36.342 -21.770 -16.585  0.00  0.00    -0.275 OA
ATOM      6  N   UNL     1      35.958 -23.704 -15.382  0.00  0.00    -0.273 N 
ATOM      7  C   UNL     1      35.197 -24.908 -15.053  0.00  0.00    +0.152 C 
ATOM      8  C   UNL     1      36.231 -25.864 -14.465  0.00  0.00    +0.031 C 
ATOM      9  C   UNL     1      37.259 -24.928 -13.832  0.00  0.00    +0.024 C 
ATOM     10  C   UNL     1      37.288 -23.748 -14.790  0.00  0.00    +0.094 C 
ATOM     11  C   UNL     1      35.592 -22.690 -16.251  0.00  0.00    +0.226 C 
BRANCH  11  12
ATOM     12  C   UNL     1      34.189 -22.758 -16.799  0.00  0.00    +0.090 C 
BRANCH  12  13
ATOM     13  C   UNL     1      34.207 -23.135 -18.273  0.00  0.00    +0.036 C 
BRANCH  13  14
ATOM     14  C   UNL     1      34.048 -21.949 -19.194  0.00  0.00    -0.022 C 
ATOM     15  C   UNL     1      32.777 -21.442 -19.464  0.00  0.00    -0.004 C 
ATOM     16  C   UNL     1      35.172 -21.362 -19.775  0.00  0.00    -0.004 C 
ATOM     17  C   UNL     1      32.629 -20.346 -20.315  0.00  0.00    -0.000 C 
ATOM     18  C   UNL     1      35.024 -20.266 -20.626  0.00  0.00    -0.000 C 
ATOM     19  C   UNL     1      33.752 -19.759 -20.896  0.00  0.00    -0.000 C 
ENDBRANCH  13  14
ENDBRANCH  12  13
ENDBRANCH  11  12
ENDBRANCH   3   7
BRANCH   2  20
ATOM     20  C   UNL     1      31.747 -24.810 -13.518  0.00  0.00    +0.116 C 
BRANCH  20  21
ATOM     21  C   UNL     1      30.570 -24.307 -14.303  0.00  0.00    -0.003 C 
ATOM     22  C   UNL     1      29.577 -25.195 -14.716  0.00  0.00    -0.003 C 
ATOM     23  C   UNL     1      30.471 -22.951 -14.621  0.00  0.00    -0.003 C 
ATOM     24  C   UNL     1      28.485 -24.728 -15.448  0.00  0.00    +0.002 C 
ATOM     25  C   UNL     1      29.378 -22.486 -15.352  0.00  0.00    +0.002 C 
ATOM     26  C   UNL     1      28.385 -23.374 -15.765  0.00  0.00    +0.031 C 
BRANCH  26  29
ATOM     27  N   UNL     1      26.233 -22.146 -15.922  0.00  0.00    -0.343 N 
ATOM     28  N   UNL     1      27.155 -23.153 -17.818  0.00  0.00    -0.285 NA
ATOM     29  C   UNL     1      27.245 -22.888 -16.526  0.00  0.00    +0.117 C 
ATOM     30  H   UNL     1      25.470 -21.827 -16.456  0.00  0.00    +0.144 HD
ATOM     31  H   UNL     1      26.280 -21.940 -14.961  0.00  0.00    +0.144 HD
ATOM     32  H   UNL     1      26.384 -22.826 -18.334  0.00  0.00    +0.188 HD
ENDBRANCH  26  29
ENDBRANCH  20  21
ENDBRANCH   2  20
TORSDOF 7
ENDMDL
MODEL 2
REMARK VINA RESULT:     -12.2      0.993      1.250
REMARK  Name = 25113615
REMARK  7 active torsions:
REMARK  status: ('A' for Active; 'I' for Inactive)
REMARK    1  A    between atoms: N_2  and  C_20
REMARK    2  A    between atoms: C_3  and  C_7
REMARK    3  A    between atoms: C_11  and  C_12
REMARK    4  A    between atoms: C_12  and  C_13
REMARK    5  A    between atoms: C_13  and  C_14
REMARK    6  A    between atoms: C_20  and  C_21
REMARK    7  A    between atoms: C_26  and  C_29
REMARK                            x       y       z     vdW  Elec       q    Type
REMARK                         _______ _______ _______ _____ _____    ______ ____
ROOT
ATOM      1  O   UNL     1      35.235 -23.731 -13.210  0.00  0.00    -0.273 OA
ATOM      2  N   UNL     1      33.549 -24.945 -14.262  0.00  0.00    -0.299 N 
ATOM      3  C   UNL     1      34.853 -24.521 -14.070  0.00  0.00    +0.241 C 
ATOM      4  H   UNL     1      33.366 -25.584 -14.988  0.00  0.00    +0.150 HD
ENDROOT
BRANCH   3   7
ATOM      5  O   UNL     1      38.277 -22.602 -15.953  0.00  0.00    -0.275 OA
ATOM      6  N   UNL     1      37.008 -24.334 -15.100  0.00  0.00    -0.273 N 
ATOM      7  C   UNL     1      35.806 -25.161 -15.034  0.00  0.00    +0.152 C 
ATOM      8  C   UNL     1      36.296 -26.504 -14.497  0.00  0.00    +0.031 C 
ATOM      9  C   UNL     1      37.495 -26.122 -13.631  0.00  0.00    +0.024 C 
ATOM     10  C   UNL     1      38.116 -24.961 -14.392  0.00  0.00    +0.094 C 
ATOM     11  C   UNL     1      37.192 -23.176 -15.838  0.00  0.00    +0.226 C 
BRANCH  11  12
ATOM     12  C   UNL     1      35.968 -22.626 -16.526  0.00  0.00    +0.090 C 
BRANCH  12  13
ATOM     13  C   UNL     1      36.345 -21.976 -17.849  0.00  0.00    +0.036 C 
BRANCH  13  14
ATOM     14  C   UNL     1      35.150 -21.620 -18.700  0.00  0.00    -0.022 C 
ATOM     15  C   UNL     1      33.894 -22.142 -18.393  0.00  0.00    -0.004 C 
ATOM     16  C   UNL     1      35.303 -20.769 -19.794  0.00  0.00    -0.004 C 
ATOM     17  C   UNL     1      32.789 -21.814 -19.179  0.00  0.00    -0.000 C 
ATOM     18  C   UNL     1      34.199 -20.440 -20.581  0.00  0.00    -0.000 C 
ATOM     19  C   UNL     1      32.942 -20.962 -20.273  0.00  0.00    -0.000 C 
ENDBRANCH  13  14
ENDBRANCH  12  13
ENDBRANCH  11  12
ENDBRANCH   3   7
BRANCH   2  20
ATOM     20  C   UNL     1      32.444 -24.494 -13.448  0.00  0.00    +0.116 C 
BRANCH  20  21
ATOM     21  C   UNL     1      31.217 -24.219 -14.270  0.00  0.00    -0.003 C 
ATOM     22  C   UNL     1      30.097 -25.041 -14.144  0.00  0.00    -0.003 C 
ATOM     23  C   UNL     1      31.199 -23.145 -15.161  0.00  0.00    -0.003 C 
ATOM     24  C   UNL     1      28.958 -24.788 -14.910  0.00  0.00    +0.002 C 
ATOM     25  C   UNL     1      30.060 -22.893 -15.925  0.00  0.00    +0.002 C 
ATOM     26  C   UNL     1      28.939 -23.714 -15.799  0.00  0.00    +0.031 C 
BRANCH  26  29
ATOM     27  N   UNL     1      26.981 -22.308 -16.391  0.00  0.00    -0.343 N 
ATOM     28  N   UNL     1      27.383 -24.307 -17.532  0.00  0.00    -0.285 NA
ATOM     29  C   UNL     1      27.751 -23.450 -16.595  0.00  0.00    +0.117 C 
ATOM     30  H   UNL     1      26.180 -22.149 -16.941  0.00  0.00    +0.144 HD
ATOM     31  H   UNL     1      27.236 -21.659 -15.696  0.00  0.00    +0.144 HD
ATOM     32  H   UNL     1      26.579 -24.130 -18.071  0.00  0.00    +0.188 HD
ENDBRANCH  26  29
ENDBRANCH  20  21
ENDBRANCH   2  20
TORSDOF 7
ENDMDL
MODEL 3
REMARK VINA RESULT:     -11.6      2.735      6.385
REMARK  Name = 25113615
REMARK  7 active torsions:
REMARK  status: ('A' for Active; 'I' for Inactive)
REMARK    1  A    between atoms: N_2  and  C_20
REMARK    2  A    between atoms: C_3  and  C_7
REMARK    3  A    between atoms: C_11  and  C_12
REMARK    4  A    between atoms: C_12  and  C_13
REMARK    5  A    between atoms: C_13  and  C_14
REMARK    6  A    between atoms: C_20  and  C_21
REMARK    7  A    between atoms: C_26  and  C_29
REMARK                            x       y       z     vdW  Elec       q    Type
REMARK                         _______ _______ _______ _____ _____    ______ ____
ROOT
ATOM      1  O   UNL     1      34.531 -24.794 -16.179  0.00  0.00    -0.273 OA
ATOM      2  N   UNL     1      34.319 -22.627 -17.004  0.00  0.00    -0.299 N 
ATOM      3  C   UNL     1      34.683 -23.580 -16.068  0.00  0.00    +0.241 C 
ATOM      4  H   UNL     1      34.492 -21.680 -16.801  0.00  0.00    +0.150 HD
ENDROOT
BRANCH   3   7
ATOM      5  O   UNL     1      34.356 -25.023 -11.973  0.00  0.00    -0.275 OA
ATOM      6  N   UNL     1      35.314 -23.963 -13.789  0.00  0.00    -0.273 N 
ATOM      7  C   UNL     1      35.332 -22.971 -14.861  0.00  0.00    +0.152 C 
ATOM      8  C   UNL     1      36.814 -22.713 -15.118  0.00  0.00    +0.031 C 
ATOM      9  C   UNL     1      37.474 -24.040 -14.749  0.00  0.00    +0.024 C 
ATOM     10  C   UNL     1      36.641 -24.526 -13.574  0.00  0.00    +0.094 C 
ATOM     11  C   UNL     1      34.260 -24.270 -12.945  0.00  0.00    +0.226 C 
BRANCH  11  12
ATOM     12  C   UNL     1      32.938 -23.622 -13.272  0.00  0.00    +0.090 C 
BRANCH  12  13
ATOM     13  C   UNL     1      31.879 -24.677 -13.553  0.00  0.00    +0.036 C 
BRANCH  13  14
ATOM     14  C   UNL     1      30.834 -24.225 -14.543  0.00  0.00    -0.022 C 
ATOM     15  C   UNL     1      29.578 -24.831 -14.557  0.00  0.00    -0.004 C 
ATOM     16  C   UNL     1      31.124 -23.201 -15.445  0.00  0.00    -0.004 C 
ATOM     17  C   UNL     1      28.610 -24.413 -15.472  0.00  0.00    -0.000 C 
ATOM     18  C   UNL     1      30.158 -22.783 -16.360  0.00  0.00    -0.000 C 
ATOM     19  C   UNL     1      28.901 -23.389 -16.374  0.00  0.00    -0.000 C 
ENDBRANCH  13  14
ENDBRANCH  12  13
ENDBRANCH  11  12
ENDBRANCH   3   7
BRANCH   2  20
ATOM     20  C   UNL     1      33.696 -22.958 -18.265  0.00  0.00    +0.116 C 
BRANCH  20  21
ATOM     21  C   UNL     1      33.833 -21.847 -19.267  0.00  0.00    -0.003 C 
ATOM     22  C   UNL     1      35.099 -21.460 -19.708  0.00  0.00    -0.003 C 
ATOM     23  C   UNL     1      32.697 -21.200 -19.754  0.00  0.00    -0.003 C 
ATOM     24  C   UNL     1      35.228 -20.426 -20.636  0.00  0.00    +0.002 C 
ATOM     25  C   UNL     1      32.826 -20.167 -20.682  0.00  0.00    +0.002 C 
ATOM     26  C   UNL     1      34.092 -19.780 -21.123  0.00  0.00    +0.031 C 
BRANCH  26  29
ATOM     27  N   UNL     1      33.544 -18.732 -23.306  0.00  0.00    -0.343 N 
ATOM     28  N   UNL     1      35.013 -17.676 -21.828  0.00  0.00    -0.285 NA
ATOM     29  C   UNL     1      34.227 -18.704 -22.092  0.00  0.00    +0.117 C 
ATOM     30  H   UNL     1      33.650 -17.993 -23.947  0.00  0.00    +0.144 HD
ATOM     31  H   UNL     1      32.956 -19.490 -23.523  0.00  0.00    +0.144 HD
ATOM     32  H   UNL     1      35.106 -16.947 -22.482  0.00  0.00    +0.188 HD
ENDBRANCH  26  29
ENDBRANCH  20  21
ENDBRANCH   2  20
TORSDOF 7
ENDMDL
MODEL 4
REMARK VINA RESULT:     -11.1      2.941      6.969
REMARK  Name = 25113615
REMARK  7 active torsions:
REMARK  status: ('A' for Active; 'I' for Inactive)
REMARK    1  A    between atoms: N_2  and  C_20
REMARK    2  A    between atoms: C_3  and  C_7
REMARK    3  A    between atoms: C_11  and  C_12
REMARK    4  A    between atoms: C_12  and  C_13
REMARK    5  A    between atoms: C_13  and  C_14
REMARK    6  A    between atoms: C_20  and  C_21
REMARK    7  A    between atoms: C_26  and  C_29
REMARK                            x       y       z     vdW  Elec       q    Type
REMARK                         _______ _______ _______ _____ _____    ______ ____
ROOT
ATOM      1  O   UNL     1      34.007 -24.377 -16.724  0.00  0.00    -0.273 OA
ATOM      2  N   UNL     1      34.559 -22.275 -17.560  0.00  0.00    -0.299 N 
ATOM      3  C   UNL     1      34.481 -23.252 -16.582  0.00  0.00    +0.241 C 
ATOM      4  H   UNL     1      34.962 -21.408 -17.326  0.00  0.00    +0.150 HD
ENDROOT
BRANCH   3   7
ATOM      5  O   UNL     1      33.430 -24.742 -12.629  0.00  0.00    -0.275 OA
ATOM      6  N   UNL     1      34.763 -23.808 -14.269  0.00  0.00    -0.273 N 
ATOM      7  C   UNL     1      35.074 -22.802 -15.282  0.00  0.00    +0.152 C 
ATOM      8  C   UNL     1      36.599 -22.797 -15.357  0.00  0.00    +0.031 C 
ATOM      9  C   UNL     1      36.977 -24.229 -14.985  0.00  0.00    +0.024 C 
ATOM     10  C   UNL     1      35.940 -24.599 -13.937  0.00  0.00    +0.094 C 
ATOM     11  C   UNL     1      33.578 -23.954 -13.566  0.00  0.00    +0.226 C 
BRANCH  11  12
ATOM     12  C   UNL     1      32.433 -23.077 -14.005  0.00  0.00    +0.090 C 
BRANCH  12  13
ATOM     13  C   UNL     1      31.112 -23.620 -13.481  0.00  0.00    +0.036 C 
BRANCH  13  14
ATOM     14  C   UNL     1      30.038 -23.698 -14.539  0.00  0.00    -0.022 C 
ATOM     15  C   UNL     1      29.445 -22.531 -15.019  0.00  0.00    -0.004 C 
ATOM     16  C   UNL     1      29.638 -24.938 -15.036  0.00  0.00    -0.004 C 
ATOM     17  C   UNL     1      28.452 -22.602 -15.997  0.00  0.00    -0.000 C 
ATOM     18  C   UNL     1      28.645 -25.010 -16.013  0.00  0.00    -0.000 C 
ATOM     19  C   UNL     1      28.052 -23.842 -16.493  0.00  0.00    -0.000 C 
ENDBRANCH  13  14
ENDBRANCH  12  13
ENDBRANCH  11  12
ENDBRANCH   3   7
BRANCH   2  20
ATOM     20  C   UNL     1      34.079 -22.467 -18.910  0.00  0.00    +0.116 C 
BRANCH  20  21
ATOM     21  C   UNL     1      34.345 -21.270 -19.776  0.00  0.00    -0.003 C 
ATOM     22  C   UNL     1      35.655 -20.832 -19.975  0.00  0.00    -0.003 C 
ATOM     23  C   UNL     1      33.284 -20.594 -20.380  0.00  0.00    -0.003 C 
ATOM     24  C   UNL     1      35.902 -19.718 -20.777  0.00  0.00    +0.002 C 
ATOM     25  C   UNL     1      33.533 -19.481 -21.182  0.00  0.00    +0.002 C 
ATOM     26  C   UNL     1      34.842 -19.043 -21.381  0.00  0.00    +0.031 C 
BRANCH  26  29
ATOM     27  N   UNL     1      34.865 -16.589 -21.759  0.00  0.00    -0.343 N 
ATOM     28  N   UNL     1      35.567 -18.047 -23.445  0.00  0.00    -0.285 NA
ATOM     29  C   UNL     1      35.101 -17.883 -22.219  0.00  0.00    +0.117 C 
ATOM     30  H   UNL     1      35.047 -15.818 -22.343  0.00  0.00    +0.144 HD
ATOM     31  H   UNL     1      34.516 -16.446 -20.850  0.00  0.00    +0.144 HD
ATOM     32  H   UNL     1      35.743 -17.263 -24.013  0.00  0.00    +0.188 HD
ENDBRANCH  26  29
ENDBRANCH  20  21
ENDBRANCH   2  20
TORSDOF 7
ENDMDL
MODEL 5
REMARK VINA RESULT:     -10.8      7.059     11.437
REMARK  Name = 25113615
REMARK  7 active torsions:
REMARK  status: ('A' for Active; 'I' for Inactive)
REMARK    1  A    between atoms: N_2  and  C_20
REMARK    2  A    between atoms: C_3  and  C_7
REMARK    3  A    between atoms: C_11  and  C_12
REMARK    4  A    between atoms: C_12  and  C_13
REMARK    5  A    between atoms: C_13  and  C_14
REMARK    6  A    between atoms: C_20  and  C_21
REMARK    7  A    between atoms: C_26  and  C_29
REMARK                            x       y       z     vdW  Elec       q    Type
REMARK                         _______ _______ _______ _____ _____    ______ ____
ROOT
ATOM      1  O   UNL     1      34.497 -17.391 -26.106  0.00  0.00    -0.273 OA
ATOM      2  N   UNL     1      33.856 -17.467 -23.869  0.00  0.00    -0.299 N 
ATOM      3  C   UNL     1      33.689 -17.161 -25.208  0.00  0.00    +0.241 C 
ATOM      4  H   UNL     1      33.135 -17.232 -23.241  0.00  0.00    +0.150 HD
ENDROOT
BRANCH   3   7
ATOM      5  O   UNL     1      33.065 -13.188 -26.876  0.00  0.00    -0.275 OA
ATOM      6  N   UNL     1      32.586 -15.397 -26.396  0.00  0.00    -0.273 N 
ATOM      7  C   UNL     1      32.365 -16.516 -25.483  0.00  0.00    +0.152 C 
ATOM      8  C   UNL     1      31.453 -17.465 -26.257  0.00  0.00    +0.031 C 
ATOM      9  C   UNL     1      31.830 -17.209 -27.714  0.00  0.00    +0.024 C 
ATOM     10  C   UNL     1      32.123 -15.718 -27.740  0.00  0.00    +0.094 C 
ATOM     11  C   UNL     1      33.029 -14.125 -26.075  0.00  0.00    +0.226 C 
BRANCH  11  12
ATOM     12  C   UNL     1      33.480 -13.919 -24.651  0.00  0.00    +0.090 C 
BRANCH  12  13
ATOM     13  C   UNL     1      33.216 -12.487 -24.207  0.00  0.00    +0.036 C 
BRANCH  13  14
ATOM     14  C   UNL     1      32.618 -12.391 -22.825  0.00  0.00    -0.022 C 
ATOM     15  C   UNL     1      31.846 -11.284 -22.474  0.00  0.00    -0.004 C 
ATOM     16  C   UNL     1      32.837 -13.410 -21.898  0.00  0.00    -0.004 C 
ATOM     17  C   UNL     1      31.292 -11.194 -21.197  0.00  0.00    -0.000 C 
ATOM     18  C   UNL     1      32.285 -13.321 -20.620  0.00  0.00    -0.000 C 
ATOM     19  C   UNL     1      31.512 -12.213 -20.270  0.00  0.00    -0.000 C 
ENDBRANCH  13  14
ENDBRANCH  12  13
ENDBRANCH  11  12
ENDBRANCH   3   7
BRANCH   2  20
ATOM     20  C   UNL     1      35.037 -18.115 -23.347  0.00  0.00    +0.116 C 
BRANCH  20  21
ATOM     21  C   UNL     1      34.709 -19.068 -22.233  0.00  0.00    -0.003 C 
ATOM     22  C   UNL     1      35.734 -19.617 -21.463  0.00  0.00    -0.003 C 
ATOM     23  C   UNL     1      33.381 -19.405 -21.971  0.00  0.00    -0.003 C 
ATOM     24  C   UNL     1      35.430 -20.504 -20.429  0.00  0.00    +0.002 C 
ATOM     25  C   UNL     1      33.077 -20.291 -20.938  0.00  0.00    +0.002 C 
ATOM     26  C   UNL     1      34.102 -20.841 -20.167  0.00  0.00    +0.031 C 
BRANCH  26  29
ATOM     27  N   UNL     1      32.467 -22.025 -18.721  0.00  0.00    -0.343 N 
ATOM     28  N   UNL     1      34.760 -22.371 -18.435  0.00  0.00    -0.285 NA
ATOM     29  C   UNL     1      33.786 -21.764 -19.089  0.00  0.00    +0.117 C 
ATOM     30  H   UNL     1      32.276 -22.653 -17.988  0.00  0.00    +0.144 HD
ATOM     31  H   UNL     1      31.727 -21.580 -19.193  0.00  0.00    +0.144 HD
ATOM     32  H   UNL     1      34.548 -22.996 -17.705  0.00  0.00    +0.188 HD
ENDBRANCH  26  29
ENDBRANCH  20  21
ENDBRANCH   2  20
TORSDOF 7
ENDMDL
MODEL 6
REMARK VINA RESULT:     -10.8      7.883     12.083
REMARK  Name = 25113615
REMARK  7 active torsions:
REMARK  status: ('A' for Active; 'I' for Inactive)
REMARK    1  A    between atoms: N_2  and  C_20
REMARK    2  A    between atoms: C_3  and  C_7
REMARK    3  A    between atoms: C_11  and  C_12
REMARK    4  A    between atoms: C_12  and  C_13
REMARK    5  A    between atoms: C_13  and  C_14
REMARK    6  A    between atoms: C_20  and  C_21
REMARK    7  A    between atoms: C_26  and  C_29
REMARK                            x       y       z     vdW  Elec       q    Type
REMARK                         _______ _______ _______ _____ _____    ______ ____
ROOT
ATOM      1  O   UNL     1      34.789 -16.784 -25.849  0.00  0.00    -0.273 OA
ATOM      2  N   UNL     1      33.930 -17.222 -23.730  0.00  0.00    -0.299 N 
ATOM      3  C   UNL     1      33.864 -16.778 -25.039  0.00  0.00    +0.241 C 
ATOM      4  H   UNL     1      33.119 -17.166 -23.175  0.00  0.00    +0.150 HD
ENDROOT
BRANCH   3   7
ATOM      5  O   UNL     1      32.955 -13.345 -27.558  0.00  0.00    -0.275 OA
ATOM      6  N   UNL     1      32.625 -15.403 -26.561  0.00  0.00    -0.273 N 
ATOM      7  C   UNL     1      32.496 -16.288 -25.405  0.00  0.00    +0.152 C 
ATOM      8  C   UNL     1      31.625 -17.439 -25.901  0.00  0.00    +0.031 C 
ATOM      9  C   UNL     1      31.950 -17.511 -27.392  0.00  0.00    +0.024 C 
ATOM     10  C   UNL     1      32.149 -16.054 -27.774  0.00  0.00    +0.094 C 
ATOM     11  C   UNL     1      32.996 -14.069 -26.560  0.00  0.00    +0.226 C 
BRANCH  11  12
ATOM     12  C   UNL     1      33.469 -13.511 -25.241  0.00  0.00    +0.090 C 
BRANCH  12  13
ATOM     13  C   UNL     1      32.727 -12.225 -24.907  0.00  0.00    +0.036 C 
BRANCH  13  14
ATOM     14  C   UNL     1      33.639 -11.033 -24.755  0.00  0.00    -0.022 C 
ATOM     15  C   UNL     1      34.792 -10.932 -25.533  0.00  0.00    -0.004 C 
ATOM     16  C   UNL     1      33.330 -10.032 -23.834  0.00  0.00    -0.004 C 
ATOM     17  C   UNL     1      35.636  -9.830 -25.394  0.00  0.00    -0.000 C 
ATOM     18  C   UNL     1      34.174  -8.930 -23.694  0.00  0.00    -0.000 C 
ATOM     19  C   UNL     1      35.327  -8.829 -24.473  0.00  0.00    -0.000 C 
ENDBRANCH  13  14
ENDBRANCH  12  13
ENDBRANCH  11  12
ENDBRANCH   3   7
BRANCH   2  20
ATOM     20  C   UNL     1      35.132 -17.766 -23.139  0.00  0.00    +0.116 C 
BRANCH  20  21
ATOM     21  C   UNL     1      34.826 -18.818 -22.112  0.00  0.00    -0.003 C 
ATOM     22  C   UNL     1      33.506 -19.213 -21.892  0.00  0.00    -0.003 C 
ATOM     23  C   UNL     1      35.860 -19.398 -21.377  0.00  0.00    -0.003 C 
ATOM     24  C   UNL     1      33.221 -20.188 -20.936  0.00  0.00    +0.002 C 
ATOM     25  C   UNL     1      35.574 -20.373 -20.422  0.00  0.00    +0.002 C 
ATOM     26  C   UNL     1      34.255 -20.769 -20.201  0.00  0.00    +0.031 C 
BRANCH  26  29
ATOM     27  N   UNL     1      32.664 -22.278 -19.036  0.00  0.00    -0.343 N 
ATOM     28  N   UNL     1      34.923 -22.260 -18.440  0.00  0.00    -0.285 NA
ATOM     29  C   UNL     1      33.957 -21.786 -19.206  0.00  0.00    +0.117 C 
ATOM     30  H   UNL     1      32.485 -22.966 -18.356  0.00  0.00    +0.144 HD
ATOM     31  H   UNL     1      31.930 -21.936 -19.595  0.00  0.00    +0.144 HD
ATOM     32  H   UNL     1      34.723 -22.948 -17.765  0.00  0.00    +0.188 HD
ENDBRANCH  26  29
ENDBRANCH  20  21
ENDBRANCH   2  20
TORSDOF 7
ENDMDL
MODEL 7
REMARK VINA RESULT:     -10.5      7.279     11.332
REMARK  Name = 25113615
REMARK  7 active torsions:
REMARK  status: ('A' for Active; 'I' for Inactive)
REMARK    1  A    between atoms: N_2  and  C_20
REMARK    2  A    between atoms: C_3  and  C_7
REMARK    3  A    between atoms: C_11  and  C_12
REMARK    4  A    between atoms: C_12  and  C_13
REMARK    5  A    between atoms: C_13  and  C_14
REMARK    6  A    between atoms: C_20  and  C_21
REMARK    7  A    between atoms: C_26  and  C_29
REMARK                            x       y       z     vdW  Elec       q    Type
REMARK                         _______ _______ _______ _____ _____    ______ ____
ROOT
ATOM      1  O   UNL     1      35.268 -15.338 -23.500  0.00  0.00    -0.273 OA
ATOM      2  N   UNL     1      34.304 -17.445 -23.271  0.00  0.00    -0.299 N 
ATOM      3  C   UNL     1      34.327 -16.114 -23.650  0.00  0.00    +0.241 C 
ATOM      4  H   UNL     1      33.489 -17.968 -23.444  0.00  0.00    +0.150 HD
ENDROOT
BRANCH   3   7
ATOM      5  O   UNL     1      33.216 -12.042 -24.716  0.00  0.00    -0.275 OA
ATOM      6  N   UNL     1      33.245 -14.348 -24.854  0.00  0.00    -0.273 N 
ATOM      7  C   UNL     1      33.051 -15.691 -24.312  0.00  0.00    +0.152 C 
ATOM      8  C   UNL     1      32.763 -16.558 -25.535  0.00  0.00    +0.031 C 
ATOM      9  C   UNL     1      33.527 -15.855 -26.655  0.00  0.00    +0.024 C 
ATOM     10  C   UNL     1      33.378 -14.383 -26.305  0.00  0.00    +0.094 C 
ATOM     11  C   UNL     1      33.174 -13.146 -24.169  0.00  0.00    +0.226 C 
BRANCH  11  12
ATOM     12  C   UNL     1      33.035 -13.243 -22.671  0.00  0.00    +0.090 C 
BRANCH  12  13
ATOM     13  C   UNL     1      31.638 -12.827 -22.235  0.00  0.00    +0.036 C 
BRANCH  13  14
ATOM     14  C   UNL     1      31.628 -11.593 -21.366  0.00  0.00    -0.022 C 
ATOM     15  C   UNL     1      31.578 -11.718 -19.978  0.00  0.00    -0.004 C 
ATOM     16  C   UNL     1      31.667 -10.327 -21.951  0.00  0.00    -0.004 C 
ATOM     17  C   UNL     1      31.569 -10.578 -19.173  0.00  0.00    -0.000 C 
ATOM     18  C   UNL     1      31.656  -9.187 -21.147  0.00  0.00    -0.000 C 
ATOM     19  C   UNL     1      31.608  -9.312 -19.759  0.00  0.00    -0.000 C 
ENDBRANCH  13  14
ENDBRANCH  12  13
ENDBRANCH  11  12
ENDBRANCH   3   7
BRANCH   2  20
ATOM     20  C   UNL     1      35.422 -18.104 -22.633  0.00  0.00    +0.116 C 
BRANCH  20  21
ATOM     21  C   UNL     1      34.971 -19.139 -21.642  0.00  0.00    -0.003 C 
ATOM     22  C   UNL     1      33.612 -19.415 -21.493  0.00  0.00    -0.003 C 
ATOM     23  C   UNL     1      35.911 -19.822 -20.869  0.00  0.00    -0.003 C 
ATOM     24  C   UNL     1      33.193 -20.374 -20.570  0.00  0.00    +0.002 C 
ATOM     25  C   UNL     1      35.491 -20.781 -19.948  0.00  0.00    +0.002 C 
ATOM     26  C   UNL     1      34.132 -21.057 -19.799  0.00  0.00    +0.031 C 
BRANCH  26  29
ATOM     27  N   UNL     1      32.343 -22.334 -18.645  0.00  0.00    -0.343 N 
ATOM     28  N   UNL     1      34.588 -22.723 -18.128  0.00  0.00    -0.285 NA
ATOM     29  C   UNL     1      33.694 -22.058 -18.839  0.00  0.00    +0.117 C 
ATOM     30  H   UNL     1      32.069 -23.016 -17.989  0.00  0.00    +0.144 HD
ATOM     31  H   UNL     1      31.662 -21.848 -19.162  0.00  0.00    +0.144 HD
ATOM     32  H   UNL     1      34.294 -23.401 -17.478  0.00  0.00    +0.188 HD
ENDBRANCH  26  29
ENDBRANCH  20  21
ENDBRANCH   2  20
TORSDOF 7
ENDMDL
MODEL 8
REMARK VINA RESULT:     -10.4      9.005     13.423
REMARK  Name = 25113615
REMARK  7 active torsions:
REMARK  status: ('A' for Active; 'I' for Inactive)
REMARK    1  A    between atoms: N_2  and  C_20
REMARK    2  A    between atoms: C_3  and  C_7
REMARK    3  A    between atoms: C_11  and  C_12
REMARK    4  A    between atoms: C_12  and  C_13
REMARK    5  A    between atoms: C_13  and  C_14
REMARK    6  A    between atoms: C_20  and  C_21
REMARK    7  A    between atoms: C_26  and  C_29
REMARK                            x       y       z     vdW  Elec       q    Type
REMARK                         _______ _______ _______ _____ _____    ______ ____
ROOT
ATOM      1  O   UNL     1      32.672 -10.991 -23.486  0.00  0.00    -0.273 OA
ATOM      2  N   UNL     1      34.216 -12.729 -23.348  0.00  0.00    -0.299 N 
ATOM      3  C   UNL     1      33.618 -11.631 -23.941  0.00  0.00    +0.241 C 
ATOM      4  H   UNL     1      34.969 -13.161 -23.811  0.00  0.00    +0.150 HD
ENDROOT
BRANCH   3   7
ATOM      5  O   UNL     1      31.892 -12.089 -27.912  0.00  0.00    -0.275 OA
ATOM      6  N   UNL     1      33.234 -11.184 -26.263  0.00  0.00    -0.273 N 
ATOM      7  C   UNL     1      34.272 -11.260 -25.237  0.00  0.00    +0.152 C 
ATOM      8  C   UNL     1      34.843  -9.846 -25.168  0.00  0.00    +0.031 C 
ATOM      9  C   UNL     1      33.659  -8.966 -25.563  0.00  0.00    +0.024 C 
ATOM     10  C   UNL     1      32.943  -9.800 -26.613  0.00  0.00    +0.094 C 
ATOM     11  C   UNL     1      32.667 -12.236 -26.963  0.00  0.00    +0.226 C 
BRANCH  11  12
ATOM     12  C   UNL     1      33.049 -13.621 -26.507  0.00  0.00    +0.090 C 
BRANCH  12  13
ATOM     13  C   UNL     1      32.523 -14.669 -27.477  0.00  0.00    +0.036 C 
BRANCH  13  14
ATOM     14  C   UNL     1      32.597 -16.075 -26.934  0.00  0.00    -0.022 C 
ATOM     15  C   UNL     1      33.770 -16.530 -26.333  0.00  0.00    -0.004 C 
ATOM     16  C   UNL     1      31.492 -16.920 -27.034  0.00  0.00    -0.004 C 
ATOM     17  C   UNL     1      33.840 -17.830 -25.831  0.00  0.00    -0.000 C 
ATOM     18  C   UNL     1      31.561 -18.220 -26.533  0.00  0.00    -0.000 C 
ATOM     19  C   UNL     1      32.734 -18.675 -25.931  0.00  0.00    -0.000 C 
ENDBRANCH  13  14
ENDBRANCH  12  13
ENDBRANCH  11  12
ENDBRANCH   3   7
BRANCH   2  20
ATOM     20  C   UNL     1      33.786 -13.273 -22.079  0.00  0.00    +0.116 C 
BRANCH  20  21
ATOM     21  C   UNL     1      34.239 -14.693 -21.896  0.00  0.00    -0.003 C 
ATOM     22  C   UNL     1      34.590 -15.461 -23.007  0.00  0.00    -0.003 C 
ATOM     23  C   UNL     1      34.306 -15.246 -20.616  0.00  0.00    -0.003 C 
ATOM     24  C   UNL     1      35.008 -16.782 -22.838  0.00  0.00    +0.002 C 
ATOM     25  C   UNL     1      34.724 -16.566 -20.448  0.00  0.00    +0.002 C 
ATOM     26  C   UNL     1      35.075 -17.334 -21.559  0.00  0.00    +0.031 C 
BRANCH  26  29
ATOM     27  N   UNL     1      34.836 -19.768 -21.986  0.00  0.00    -0.343 N 
ATOM     28  N   UNL     1      36.569 -18.974 -20.635  0.00  0.00    -0.285 NA
ATOM     29  C   UNL     1      35.513 -18.709 -21.383  0.00  0.00    +0.117 C 
ATOM     30  H   UNL     1      35.149 -20.691 -21.853  0.00  0.00    +0.144 HD
ATOM     31  H   UNL     1      34.045 -19.592 -22.544  0.00  0.00    +0.144 HD
ATOM     32  H   UNL     1      36.866 -19.904 -20.515  0.00  0.00    +0.188 HD
ENDBRANCH  26  29
ENDBRANCH  20  21
ENDBRANCH   2  20
TORSDOF 7
ENDMDL
MODEL 9
REMARK VINA RESULT:     -10.3      5.674      9.855
REMARK  Name = 25113615
REMARK  7 active torsions:
REMARK  status: ('A' for Active; 'I' for Inactive)
REMARK    1  A    between atoms: N_2  and  C_20
REMARK    2  A    between atoms: C_3  and  C_7
REMARK    3  A    between atoms: C_11  and  C_12
REMARK    4  A    between atoms: C_12  and  C_13
REMARK    5  A    between atoms: C_13  and  C_14
REMARK    6  A    between atoms: C_20  and  C_21
REMARK    7  A    between atoms: C_26  and  C_29
REMARK                            x       y       z     vdW  Elec       q    Type
REMARK                         _______ _______ _______ _____ _____    ______ ____
ROOT
ATOM      1  O   UNL     1      32.544 -19.766 -22.138  0.00  0.00    -0.273 OA
ATOM      2  N   UNL     1      34.456 -19.251 -23.363  0.00  0.00    -0.299 N 
ATOM      3  C   UNL     1      33.696 -19.342 -22.210  0.00  0.00    +0.241 C 
ATOM      4  H   UNL     1      35.371 -18.892 -23.294  0.00  0.00    +0.150 HD
ENDROOT
BRANCH   3   7
ATOM      5  O   UNL     1      35.916 -21.866 -19.444  0.00  0.00    -0.275 OA
ATOM      6  N   UNL     1      35.363 -19.943 -20.598  0.00  0.00    -0.273 N 
ATOM      7  C   UNL     1      34.445 -18.878 -20.998  0.00  0.00    +0.152 C 
ATOM      8  C   UNL     1      35.353 -17.701 -21.342  0.00  0.00    +0.031 C 
ATOM      9  C   UNL     1      36.636 -18.372 -21.825  0.00  0.00    +0.024 C 
ATOM     10  C   UNL     1      36.738 -19.603 -20.938  0.00  0.00    +0.094 C 
ATOM     11  C   UNL     1      35.065 -21.076 -19.861  0.00  0.00    +0.226 C 
BRANCH  11  12
ATOM     12  C   UNL     1      33.605 -21.316 -19.572  0.00  0.00    +0.090 C 
BRANCH  12  13
ATOM     13  C   UNL     1      33.369 -22.768 -19.180  0.00  0.00    +0.036 C 
BRANCH  13  14
ATOM     14  C   UNL     1      33.053 -22.945 -17.714  0.00  0.00    -0.022 C 
ATOM     15  C   UNL     1      31.727 -22.946 -17.282  0.00  0.00    -0.004 C 
ATOM     16  C   UNL     1      34.087 -23.107 -16.793  0.00  0.00    -0.004 C 
ATOM     17  C   UNL     1      31.434 -23.111 -15.928  0.00  0.00    -0.000 C 
ATOM     18  C   UNL     1      33.795 -23.271 -15.439  0.00  0.00    -0.000 C 
ATOM     19  C   UNL     1      32.468 -23.273 -15.006  0.00  0.00    -0.000 C 
ENDBRANCH  13  14
ENDBRANCH  12  13
ENDBRANCH  11  12
ENDBRANCH   3   7
BRANCH   2  20
ATOM     20  C   UNL     1      33.973 -19.657 -24.663  0.00  0.00    +0.116 C 
BRANCH  20  21
ATOM     21  C   UNL     1      33.354 -18.512 -25.413  0.00  0.00    -0.003 C 
ATOM     22  C   UNL     1      34.057 -17.317 -25.565  0.00  0.00    -0.003 C 
ATOM     23  C   UNL     1      32.075 -18.643 -25.957  0.00  0.00    -0.003 C 
ATOM     24  C   UNL     1      33.481 -16.253 -26.260  0.00  0.00    +0.002 C 
ATOM     25  C   UNL     1      31.500 -17.579 -26.651  0.00  0.00    +0.002 C 
ATOM     26  C   UNL     1      32.204 -16.384 -26.803  0.00  0.00    +0.031 C 
BRANCH  26  29
ATOM     27  N   UNL     1      30.273 -15.309 -27.935  0.00  0.00    -0.343 N 
ATOM     28  N   UNL     1      32.330 -14.209 -27.817  0.00  0.00    -0.285 NA
ATOM     29  C   UNL     1      31.605 -15.275 -27.528  0.00  0.00    +0.117 C 
ATOM     30  H   UNL     1      29.888 -14.548 -28.426  0.00  0.00    +0.144 HD
ATOM     31  H   UNL     1      29.717 -16.096 -27.733  0.00  0.00    +0.144 HD
ATOM     32  H   UNL     1      31.927 -13.457 -28.308  0.00  0.00    +0.188 HD
ENDBRANCH  26  29
ENDBRANCH  20  21
ENDBRANCH   2  20
TORSDOF 7
ENDMDL
