MODEL 1
REMARK VINA RESULT:     -12.4      0.000      0.000
REMARK  Name = 11538992
REMARK  4 active torsions:
REMARK  status: ('A' for Active; 'I' for Inactive)
REMARK    1  A    between atoms: C_1  and  N_7
REMARK    2  A    between atoms: C_3  and  C_24
REMARK    3  A    between atoms: C_4  and  N_30
REMARK    4  A    between atoms: C_15  and  C_20
REMARK                            x       y       z     vdW  Elec       q    Type
REMARK                         _______ _______ _______ _____ _____    ______ ____
ROOT
ATOM      1  C   UNL     1      34.450 -21.906 -19.551  0.00  0.00    -0.059 C 
ATOM      2  C   UNL     1      35.718 -21.049 -19.627  0.00  0.00    -0.042 C 
ATOM      3  C   UNL     1      34.464 -19.318 -21.010  0.00  0.00    +0.005 C 
ATOM      4  C   UNL     1      35.740 -20.192 -20.904  0.00  0.00    -0.064 C 
ATOM      5  C   UNL     1      33.193 -21.037 -19.637  0.00  0.00    -0.021 C 
ATOM      6  C   UNL     1      33.194 -20.185 -20.905  0.00  0.00    +0.000 C 
ENDROOT
BRANCH   1   7
ATOM      7  N   UNL     1      34.440 -22.668 -18.302  0.00  0.00    +0.394 N 
ATOM      8  N   UNL     1      34.210 -23.414 -15.630  0.00  0.00    -0.299 N 
ATOM      9  N   UNL     1      32.065 -23.805 -15.681  0.00  0.00    -0.136 NA
ATOM     10  N   UNL     1      32.570 -24.237 -14.465  0.00  0.00    -0.125 NA
ATOM     11  C   UNL     1      35.414 -22.114 -17.343  0.00  0.00    -0.052 C 
ATOM     12  C   UNL     1      33.080 -22.688 -17.723  0.00  0.00    -0.009 C 
ATOM     13  C   UNL     1      35.515 -23.011 -16.101  0.00  0.00    +0.086 C 
ATOM     14  C   UNL     1      33.070 -23.314 -16.374  0.00  0.00    +0.122 A 
ATOM     15  C   UNL     1      33.863 -23.994 -14.457  0.00  0.00    +0.238 A 
ATOM     16  H   UNL     1      34.715 -23.629 -18.508  0.00  0.00    -0.079 HD
BRANCH  15  20
ATOM     17  F   UNL     1      35.556 -23.214 -12.958  0.00  0.00    -0.163 F 
ATOM     18  F   UNL     1      34.239 -24.776 -12.228  0.00  0.00    -0.163 F 
ATOM     19  F   UNL     1      35.750 -25.240 -13.723  0.00  0.00    -0.163 F 
ATOM     20  C   UNL     1      34.818 -24.294 -13.377  0.00  0.00    +0.452 C 
ENDBRANCH  15  20
ENDBRANCH   1   7
BRANCH   3  24
ATOM     21  F   UNL     1      34.992 -16.529 -21.032  0.00  0.00    -0.204 F 
ATOM     22  F   UNL     1      33.770 -18.862 -25.826  0.00  0.00    -0.202 F 
ATOM     23  F   UNL     1      34.301 -16.184 -25.701  0.00  0.00    -0.202 F 
ATOM     24  C   UNL     1      34.420 -18.470 -22.274  0.00  0.00    +0.005 C 
ATOM     25  C   UNL     1      34.691 -17.107 -22.204  0.00  0.00    +0.138 C 
ATOM     26  C   UNL     1      34.109 -19.067 -23.491  0.00  0.00    +0.030 C 
ATOM     27  C   UNL     1      34.068 -18.293 -24.651  0.00  0.00    +0.167 C 
ATOM     28  C   UNL     1      34.650 -16.334 -23.364  0.00  0.00    +0.061 C 
ATOM     29  C   UNL     1      34.339 -16.926 -24.587  0.00  0.00    +0.170 C 
ENDBRANCH   3  24
BRANCH   4  30
ATOM     30  N   UNL     1      36.945 -19.355 -20.907  0.00  0.00    +0.382 N 
ATOM     31  H   UNL     1      37.748 -19.918 -21.187  0.00  0.00    -0.089 HD
ATOM     32  H   UNL     1      37.101 -18.981 -19.972  0.00  0.00    -0.089 HD
ATOM     33  H   UNL     1      36.823 -18.586 -21.566  0.00  0.00    -0.089 HD
ENDBRANCH   4  30
TORSDOF 4
ENDMDL
MODEL 2
REMARK VINA RESULT:     -11.7      0.760      1.705
REMARK  Name = 11538992
REMARK  4 active torsions:
REMARK  status: ('A' for Active; 'I' for Inactive)
REMARK    1  A    between atoms: C_1  and  N_7
REMARK    2  A    between atoms: C_3  and  C_24
REMARK    3  A    between atoms: C_4  and  N_30
REMARK    4  A    between atoms: C_15  and  C_20
REMARK                            x       y       z     vdW  Elec       q    Type
REMARK                         _______ _______ _______ _____ _____    ______ ____
ROOT
ATOM      1  C   UNL     1      34.590 -21.758 -19.677  0.00  0.00    -0.059 C 
ATOM      2  C   UNL     1      35.875 -20.925 -19.749  0.00  0.00    -0.042 C 
ATOM      3  C   UNL     1      34.645 -19.144 -21.089  0.00  0.00    +0.005 C 
ATOM      4  C   UNL     1      35.904 -20.046 -21.011  0.00  0.00    -0.064 C 
ATOM      5  C   UNL     1      33.351 -20.861 -19.737  0.00  0.00    -0.021 C 
ATOM      6  C   UNL     1      33.359 -19.988 -20.989  0.00  0.00    +0.000 C 
ENDROOT
BRANCH   1   7
ATOM      7  N   UNL     1      34.575 -22.541 -18.442  0.00  0.00    +0.394 N 
ATOM      8  N   UNL     1      34.320 -23.338 -15.787  0.00  0.00    -0.299 N 
ATOM      9  N   UNL     1      32.182 -23.763 -15.876  0.00  0.00    -0.136 NA
ATOM     10  N   UNL     1      32.676 -24.209 -14.660  0.00  0.00    -0.125 NA
ATOM     11  C   UNL     1      35.526 -21.988 -17.460  0.00  0.00    -0.052 C 
ATOM     12  C   UNL     1      33.208 -22.595 -17.883  0.00  0.00    -0.009 C 
ATOM     13  C   UNL     1      35.624 -22.906 -16.231  0.00  0.00    +0.086 C 
ATOM     14  C   UNL     1      33.189 -23.244 -16.546  0.00  0.00    +0.122 A 
ATOM     15  C   UNL     1      33.965 -23.944 -14.630  0.00  0.00    +0.238 A 
ATOM     16  H   UNL     1      34.869 -23.493 -18.660  0.00  0.00    -0.079 HD
BRANCH  15  20
ATOM     17  F   UNL     1      35.846 -25.203 -13.854  0.00  0.00    -0.163 F 
ATOM     18  F   UNL     1      35.652 -23.171 -13.120  0.00  0.00    -0.163 F 
ATOM     19  F   UNL     1      34.299 -24.716 -12.406  0.00  0.00    -0.163 F 
ATOM     20  C   UNL     1      34.910 -24.248 -13.541  0.00  0.00    +0.452 C 
ENDBRANCH  15  20
ENDBRANCH   1   7
BRANCH   3  24
ATOM     21  F   UNL     1      34.480 -20.199 -23.719  0.00  0.00    -0.204 F 
ATOM     22  F   UNL     1      34.666 -14.754 -23.237  0.00  0.00    -0.202 F 
ATOM     23  F   UNL     1      34.506 -15.906 -25.710  0.00  0.00    -0.202 F 
ATOM     24  C   UNL     1      34.608 -18.273 -22.338  0.00  0.00    +0.005 C 
ATOM     25  C   UNL     1      34.526 -18.865 -23.594  0.00  0.00    +0.138 C 
ATOM     26  C   UNL     1      34.655 -16.888 -22.211  0.00  0.00    +0.030 C 
ATOM     27  C   UNL     1      34.621 -16.087 -23.352  0.00  0.00    +0.167 C 
ATOM     28  C   UNL     1      34.492 -18.064 -24.735  0.00  0.00    +0.061 C 
ATOM     29  C   UNL     1      34.540 -16.676 -24.614  0.00  0.00    +0.170 C 
ENDBRANCH   3  24
BRANCH   4  30
ATOM     30  N   UNL     1      37.126 -19.234 -21.009  0.00  0.00    +0.382 N 
ATOM     31  H   UNL     1      37.220 -18.764 -20.109  0.00  0.00    -0.089 HD
ATOM     32  H   UNL     1      37.072 -18.538 -21.752  0.00  0.00    -0.089 HD
ATOM     33  H   UNL     1      37.934 -19.836 -21.165  0.00  0.00    -0.089 HD
ENDBRANCH   4  30
TORSDOF 4
ENDMDL
MODEL 3
REMARK VINA RESULT:     -11.3      1.495      2.131
REMARK  Name = 11538992
REMARK  4 active torsions:
REMARK  status: ('A' for Active; 'I' for Inactive)
REMARK    1  A    between atoms: C_1  and  N_7
REMARK    2  A    between atoms: C_3  and  C_24
REMARK    3  A    between atoms: C_4  and  N_30
REMARK    4  A    between atoms: C_15  and  C_20
REMARK                            x       y       z     vdW  Elec       q    Type
REMARK                         _______ _______ _______ _____ _____    ______ ____
ROOT
ATOM      1  C   UNL     1      34.659 -20.908 -20.004  0.00  0.00    -0.059 C 
ATOM      2  C   UNL     1      35.837 -19.997 -20.366  0.00  0.00    -0.042 C 
ATOM      3  C   UNL     1      34.321 -18.648 -21.903  0.00  0.00    +0.005 C 
ATOM      4  C   UNL     1      35.672 -19.398 -21.773  0.00  0.00    -0.064 C 
ATOM      5  C   UNL     1      33.329 -20.158 -20.116  0.00  0.00    -0.021 C 
ATOM      6  C   UNL     1      33.145 -19.564 -21.511  0.00  0.00    +0.000 C 
ENDROOT
BRANCH   1   7
ATOM      7  N   UNL     1      34.826 -21.418 -18.643  0.00  0.00    +0.394 N 
ATOM      8  N   UNL     1      35.451 -23.004 -16.442  0.00  0.00    -0.299 N 
ATOM      9  N   UNL     1      37.523 -22.345 -16.262  0.00  0.00    -0.136 NA
ATOM     10  N   UNL     1      37.201 -23.120 -15.158  0.00  0.00    -0.125 NA
ATOM     11  C   UNL     1      34.071 -22.671 -18.457  0.00  0.00    -0.052 C 
ATOM     12  C   UNL     1      36.259 -21.613 -18.338  0.00  0.00    -0.009 C 
ATOM     13  C   UNL     1      34.118 -23.113 -16.987  0.00  0.00    +0.086 C 
ATOM     14  C   UNL     1      36.452 -22.282 -17.025  0.00  0.00    +0.122 A 
ATOM     15  C   UNL     1      35.949 -23.503 -15.287  0.00  0.00    +0.238 A 
ATOM     16  H   UNL     1      34.451 -20.727 -17.992  0.00  0.00    -0.079 HD
BRANCH  15  20
ATOM     17  F   UNL     1      35.887 -24.791 -13.272  0.00  0.00    -0.163 F 
ATOM     18  F   UNL     1      34.091 -23.692 -13.792  0.00  0.00    -0.163 F 
ATOM     19  F   UNL     1      34.649 -25.461 -14.928  0.00  0.00    -0.163 F 
ATOM     20  C   UNL     1      35.172 -24.332 -14.350  0.00  0.00    +0.452 C 
ENDBRANCH  15  20
ENDBRANCH   1   7
BRANCH   3  24
ATOM     21  F   UNL     1      34.876 -15.942 -22.556  0.00  0.00    -0.204 F 
ATOM     22  F   UNL     1      32.891 -19.103 -26.554  0.00  0.00    -0.202 F 
ATOM     23  F   UNL     1      33.471 -16.478 -27.043  0.00  0.00    -0.202 F 
ATOM     24  C   UNL     1      34.092 -18.060 -23.289  0.00  0.00    +0.005 C 
ATOM     25  C   UNL     1      34.389 -16.722 -23.532  0.00  0.00    +0.138 C 
ATOM     26  C   UNL     1      33.587 -18.867 -24.303  0.00  0.00    +0.030 C 
ATOM     27  C   UNL     1      33.376 -18.332 -25.574  0.00  0.00    +0.167 C 
ATOM     28  C   UNL     1      34.178 -16.187 -24.802  0.00  0.00    +0.061 C 
ATOM     29  C   UNL     1      33.672 -16.991 -25.822  0.00  0.00    +0.170 C 
ENDBRANCH   3  24
BRANCH   4  30
ATOM     30  N   UNL     1      36.795 -18.498 -22.053  0.00  0.00    +0.382 N 
ATOM     31  H   UNL     1      36.441 -17.557 -22.228  0.00  0.00    -0.089 HD
ATOM     32  H   UNL     1      37.300 -18.829 -22.875  0.00  0.00    -0.089 HD
ATOM     33  H   UNL     1      37.425 -18.480 -21.251  0.00  0.00    -0.089 HD
ENDBRANCH   4  30
TORSDOF 4
ENDMDL
MODEL 4
REMARK VINA RESULT:     -11.3      1.594      2.137
REMARK  Name = 11538992
REMARK  4 active torsions:
REMARK  status: ('A' for Active; 'I' for Inactive)
REMARK    1  A    between atoms: C_1  and  N_7
REMARK    2  A    between atoms: C_3  and  C_24
REMARK    3  A    between atoms: C_4  and  N_30
REMARK    4  A    between atoms: C_15  and  C_20
REMARK                            x       y       z     vdW  Elec       q    Type
REMARK                         _______ _______ _______ _____ _____    ______ ____
ROOT
ATOM      1  C   UNL     1      35.505 -21.229 -18.527  0.00  0.00    -0.059 C 
ATOM      2  C   UNL     1      34.129 -21.431 -19.171  0.00  0.00    -0.042 C 
ATOM      3  C   UNL     1      34.938 -20.246 -21.273  0.00  0.00    +0.005 C 
ATOM      4  C   UNL     1      33.823 -20.329 -20.200  0.00  0.00    -0.064 C 
ATOM      5  C   UNL     1      36.604 -21.167 -19.591  0.00  0.00    -0.021 C 
ATOM      6  C   UNL     1      36.321 -20.071 -20.616  0.00  0.00    +0.000 C 
ENDROOT
BRANCH   1   7
ATOM      7  N   UNL     1      35.781 -22.321 -17.594  0.00  0.00    +0.394 N 
ATOM      8  N   UNL     1      36.123 -23.843 -15.288  0.00  0.00    -0.299 N 
ATOM      9  N   UNL     1      34.033 -24.433 -15.086  0.00  0.00    -0.136 NA
ATOM     10  N   UNL     1      34.790 -25.147 -14.171  0.00  0.00    -0.125 NA
ATOM     11  C   UNL     1      36.896 -21.973 -16.695  0.00  0.00    -0.052 C 
ATOM     12  C   UNL     1      34.566 -22.660 -16.824  0.00  0.00    -0.009 C 
ATOM     13  C   UNL     1      37.286 -23.180 -15.829  0.00  0.00    +0.086 C 
ATOM     14  C   UNL     1      34.855 -23.653 -15.756  0.00  0.00    +0.122 A 
ATOM     15  C   UNL     1      36.045 -24.777 -14.312  0.00  0.00    +0.238 A 
ATOM     16  H   UNL     1      36.058 -23.143 -18.133  0.00  0.00    -0.079 HD
BRANCH  15  20
ATOM     17  F   UNL     1      38.147 -25.920 -14.332  0.00  0.00    -0.163 F 
ATOM     18  F   UNL     1      37.921 -24.301 -12.907  0.00  0.00    -0.163 F 
ATOM     19  F   UNL     1      36.879 -26.183 -12.585  0.00  0.00    -0.163 F 
ATOM     20  C   UNL     1      37.209 -25.277 -13.561  0.00  0.00    +0.452 C 
ENDBRANCH  15  20
ENDBRANCH   1   7
BRANCH   3  24
ATOM     21  F   UNL     1      34.977 -17.480 -20.636  0.00  0.00    -0.204 F 
ATOM     22  F   UNL     1      33.994 -18.811 -25.849  0.00  0.00    -0.202 F 
ATOM     23  F   UNL     1      34.059 -16.185 -25.094  0.00  0.00    -0.202 F 
ATOM     24  C   UNL     1      34.701 -19.148 -22.302  0.00  0.00    +0.005 C 
ATOM     25  C   UNL     1      34.736 -17.813 -21.911  0.00  0.00    +0.138 C 
ATOM     26  C   UNL     1      34.452 -19.490 -23.627  0.00  0.00    +0.030 C 
ATOM     27  C   UNL     1      34.234 -18.488 -24.572  0.00  0.00    +0.167 C 
ATOM     28  C   UNL     1      34.518 -16.811 -22.856  0.00  0.00    +0.061 C 
ATOM     29  C   UNL     1      34.267 -17.148 -24.186  0.00  0.00    +0.170 C 
ENDBRANCH   3  24
BRANCH   4  30
ATOM     30  N   UNL     1      32.521 -20.592 -20.822  0.00  0.00    +0.382 N 
ATOM     31  H   UNL     1      31.830 -20.779 -20.096  0.00  0.00    -0.089 HD
ATOM     32  H   UNL     1      32.596 -21.401 -21.437  0.00  0.00    -0.089 HD
ATOM     33  H   UNL     1      32.233 -19.777 -21.364  0.00  0.00    -0.089 HD
ENDBRANCH   4  30
TORSDOF 4
ENDMDL
MODEL 5
REMARK VINA RESULT:     -10.7      7.701     11.700
REMARK  Name = 11538992
REMARK  4 active torsions:
REMARK  status: ('A' for Active; 'I' for Inactive)
REMARK    1  A    between atoms: C_1  and  N_7
REMARK    2  A    between atoms: C_3  and  C_24
REMARK    3  A    between atoms: C_4  and  N_30
REMARK    4  A    between atoms: C_15  and  C_20
REMARK                            x       y       z     vdW  Elec       q    Type
REMARK                         _______ _______ _______ _____ _____    ______ ____
ROOT
ATOM      1  C   UNL     1      33.173 -11.856 -24.386  0.00  0.00    -0.059 C 
ATOM      2  C   UNL     1      34.339 -10.865 -24.455  0.00  0.00    -0.042 C 
ATOM      3  C   UNL     1      33.044  -9.239 -22.985  0.00  0.00    +0.005 C 
ATOM      4  C   UNL     1      33.853  -9.414 -24.297  0.00  0.00    -0.064 C 
ATOM      5  C   UNL     1      32.389 -11.692 -23.081  0.00  0.00    -0.021 C 
ATOM      6  C   UNL     1      31.891 -10.258 -22.912  0.00  0.00    +0.000 C 
ENDROOT
BRANCH   1   7
ATOM      7  N   UNL     1      33.679 -13.225 -24.489  0.00  0.00    +0.394 N 
ATOM      8  N   UNL     1      33.872 -15.999 -24.621  0.00  0.00    -0.299 N 
ATOM      9  N   UNL     1      33.512 -16.156 -26.766  0.00  0.00    -0.136 NA
ATOM     10  N   UNL     1      33.893 -17.399 -26.284  0.00  0.00    -0.125 NA
ATOM     11  C   UNL     1      33.347 -13.999 -23.279  0.00  0.00    -0.052 C 
ATOM     12  C   UNL     1      33.144 -13.881 -25.701  0.00  0.00    -0.009 C 
ATOM     13  C   UNL     1      34.017 -15.381 -23.324  0.00  0.00    +0.086 C 
ATOM     14  C   UNL     1      33.508 -15.322 -25.749  0.00  0.00    +0.122 A 
ATOM     15  C   UNL     1      34.106 -17.280 -24.991  0.00  0.00    +0.238 A 
ATOM     16  H   UNL     1      34.696 -13.188 -24.568  0.00  0.00    -0.079 HD
BRANCH  15  20
ATOM     17  F   UNL     1      35.795 -18.147 -23.535  0.00  0.00    -0.163 F 
ATOM     18  F   UNL     1      33.731 -18.486 -22.960  0.00  0.00    -0.163 F 
ATOM     19  F   UNL     1      34.586 -19.581 -24.634  0.00  0.00    -0.163 F 
ATOM     20  C   UNL     1      34.540 -18.335 -24.061  0.00  0.00    +0.452 C 
ENDBRANCH  15  20
ENDBRANCH   1   7
BRANCH   3  24
ATOM     21  F   UNL     1      33.580  -7.675 -20.678  0.00  0.00    -0.204 F 
ATOM     22  F   UNL     1      30.472  -5.392 -24.556  0.00  0.00    -0.202 F 
ATOM     23  F   UNL     1      31.068  -3.999 -22.282  0.00  0.00    -0.202 F 
ATOM     24  C   UNL     1      32.512  -7.825 -22.793  0.00  0.00    +0.005 C 
ATOM     25  C   UNL     1      32.819  -7.121 -21.632  0.00  0.00    +0.138 C 
ATOM     26  C   UNL     1      31.722  -7.248 -23.781  0.00  0.00    +0.030 C 
ATOM     27  C   UNL     1      31.233  -5.953 -23.609  0.00  0.00    +0.167 C 
ATOM     28  C   UNL     1      32.329  -5.827 -21.460  0.00  0.00    +0.061 C 
ATOM     29  C   UNL     1      31.537  -5.243 -22.447  0.00  0.00    +0.170 C 
ENDBRANCH   3  24
BRANCH   4  30
ATOM     30  N   UNL     1      35.007  -8.509 -24.320  0.00  0.00    +0.382 N 
ATOM     31  H   UNL     1      35.690  -8.812 -23.626  0.00  0.00    -0.089 HD
ATOM     32  H   UNL     1      34.700  -7.561 -24.104  0.00  0.00    -0.089 HD
ATOM     33  H   UNL     1      35.433  -8.525 -25.247  0.00  0.00    -0.089 HD
ENDBRANCH   4  30
TORSDOF 4
ENDMDL
MODEL 6
REMARK VINA RESULT:     -10.6      1.496      2.037
REMARK  Name = 11538992
REMARK  4 active torsions:
REMARK  status: ('A' for Active; 'I' for Inactive)
REMARK    1  A    between atoms: C_1  and  N_7
REMARK    2  A    between atoms: C_3  and  C_24
REMARK    3  A    between atoms: C_4  and  N_30
REMARK    4  A    between atoms: C_15  and  C_20
REMARK                            x       y       z     vdW  Elec       q    Type
REMARK                         _______ _______ _______ _____ _____    ______ ____
ROOT
ATOM      1  C   UNL     1      33.543 -21.442 -19.483  0.00  0.00    -0.059 C 
ATOM      2  C   UNL     1      34.903 -20.739 -19.542  0.00  0.00    -0.042 C 
ATOM      3  C   UNL     1      34.006 -19.150 -21.317  0.00  0.00    +0.005 C 
ATOM      4  C   UNL     1      35.154 -20.116 -20.926  0.00  0.00    -0.064 C 
ATOM      5  C   UNL     1      32.411 -20.479 -19.851  0.00  0.00    -0.021 C 
ATOM      6  C   UNL     1      32.639 -19.858 -21.228  0.00  0.00    +0.000 C 
ENDROOT
BRANCH   1   7
ATOM      7  N   UNL     1      33.319 -21.977 -18.140  0.00  0.00    +0.394 N 
ATOM      8  N   UNL     1      32.851 -23.676 -15.985  0.00  0.00    -0.299 N 
ATOM      9  N   UNL     1      34.937 -24.230 -15.668  0.00  0.00    -0.136 NA
ATOM     10  N   UNL     1      34.178 -24.725 -14.619  0.00  0.00    -0.125 NA
ATOM     11  C   UNL     1      32.002 -22.634 -18.051  0.00  0.00    -0.052 C 
ATOM     12  C   UNL     1      34.403 -22.912 -17.771  0.00  0.00    -0.009 C 
ATOM     13  C   UNL     1      31.705 -23.049 -16.602  0.00  0.00    +0.086 C 
ATOM     14  C   UNL     1      34.120 -23.595 -16.482  0.00  0.00    +0.122 A 
ATOM     15  C   UNL     1      32.926 -24.377 -14.830  0.00  0.00    +0.238 A 
ATOM     16  H   UNL     1      33.327 -21.200 -17.478  0.00  0.00    -0.079 HD
BRANCH  15  20
ATOM     17  F   UNL     1      32.063 -25.393 -12.843  0.00  0.00    -0.163 F 
ATOM     18  F   UNL     1      31.112 -23.558 -13.503  0.00  0.00    -0.163 F 
ATOM     19  F   UNL     1      30.793 -25.404 -14.608  0.00  0.00    -0.163 F 
ATOM     20  C   UNL     1      31.765 -24.672 -13.974  0.00  0.00    +0.452 C 
ENDBRANCH  15  20
ENDBRANCH   1   7
BRANCH   3  24
ATOM     21  F   UNL     1      34.742 -16.438 -21.713  0.00  0.00    -0.204 F 
ATOM     22  F   UNL     1      33.969 -19.478 -26.193  0.00  0.00    -0.202 F 
ATOM     23  F   UNL     1      34.681 -16.850 -26.427  0.00  0.00    -0.202 F 
ATOM     24  C   UNL     1      34.188 -18.527 -22.694  0.00  0.00    +0.005 C 
ATOM     25  C   UNL     1      34.551 -17.188 -22.807  0.00  0.00    +0.138 C 
ATOM     26  C   UNL     1      33.991 -19.303 -23.832  0.00  0.00    +0.030 C 
ATOM     27  C   UNL     1      34.157 -18.736 -25.095  0.00  0.00    +0.167 C 
ATOM     28  C   UNL     1      34.717 -16.621 -24.070  0.00  0.00    +0.061 C 
ATOM     29  C   UNL     1      34.520 -17.394 -25.213  0.00  0.00    +0.170 C 
ENDBRANCH   3  24
BRANCH   4  30
ATOM     30  N   UNL     1      36.442 -19.415 -20.918  0.00  0.00    +0.382 N 
ATOM     31  H   UNL     1      36.869 -19.499 -19.996  0.00  0.00    -0.089 HD
ATOM     32  H   UNL     1      36.295 -18.429 -21.135  0.00  0.00    -0.089 HD
ATOM     33  H   UNL     1      37.059 -19.829 -21.617  0.00  0.00    -0.089 HD
ENDBRANCH   4  30
TORSDOF 4
ENDMDL
MODEL 7
REMARK VINA RESULT:     -10.6      2.149      9.942
REMARK  Name = 11538992
REMARK  4 active torsions:
REMARK  status: ('A' for Active; 'I' for Inactive)
REMARK    1  A    between atoms: C_1  and  N_7
REMARK    2  A    between atoms: C_3  and  C_24
REMARK    3  A    between atoms: C_4  and  N_30
REMARK    4  A    between atoms: C_15  and  C_20
REMARK                            x       y       z     vdW  Elec       q    Type
REMARK                         _______ _______ _______ _____ _____    ______ ____
ROOT
ATOM      1  C   UNL     1      35.726 -21.958 -18.102  0.00  0.00    -0.059 C 
ATOM      2  C   UNL     1      34.478 -22.485 -17.388  0.00  0.00    -0.042 C 
ATOM      3  C   UNL     1      35.876 -23.000 -15.323  0.00  0.00    +0.005 C 
ATOM      4  C   UNL     1      34.839 -23.549 -16.337  0.00  0.00    -0.064 C 
ATOM      5  C   UNL     1      36.739 -21.400 -17.098  0.00  0.00    -0.021 C 
ATOM      6  C   UNL     1      37.116 -22.447 -16.052  0.00  0.00    +0.000 C 
ENDROOT
BRANCH   1   7
ATOM      7  N   UNL     1      35.349 -20.914 -19.055  0.00  0.00    +0.394 N 
ATOM      8  N   UNL     1      34.707 -19.525 -21.381  0.00  0.00    -0.299 N 
ATOM      9  N   UNL     1      32.590 -20.055 -21.391  0.00  0.00    -0.136 NA
ATOM     10  N   UNL     1      32.818 -19.102 -22.370  0.00  0.00    -0.125 NA
ATOM     11  C   UNL     1      36.415 -20.706 -20.052  0.00  0.00    -0.052 C 
ATOM     12  C   UNL     1      34.069 -21.254 -19.711  0.00  0.00    -0.009 C 
ATOM     13  C   UNL     1      36.084 -19.503 -20.949  0.00  0.00    +0.086 C 
ATOM     14  C   UNL     1      33.741 -20.297 -20.800  0.00  0.00    +0.122 A 
ATOM     15  C   UNL     1      34.098 -18.796 -22.345  0.00  0.00    +0.238 A 
ATOM     16  H   UNL     1      35.225 -20.040 -18.543  0.00  0.00    -0.079 HD
BRANCH  15  20
ATOM     17  F   UNL     1      35.400 -16.796 -22.510  0.00  0.00    -0.163 F 
ATOM     18  F   UNL     1      35.806 -18.358 -23.960  0.00  0.00    -0.163 F 
ATOM     19  F   UNL     1      33.972 -17.197 -24.100  0.00  0.00    -0.163 F 
ATOM     20  C   UNL     1      34.797 -17.821 -23.198  0.00  0.00    +0.452 C 
ENDBRANCH  15  20
ENDBRANCH   1   7
BRANCH   3  24
ATOM     21  F   UNL     1      34.440 -23.436 -12.914  0.00  0.00    -0.204 F 
ATOM     22  F   UNL     1      38.906 -26.488 -13.729  0.00  0.00    -0.202 F 
ATOM     23  F   UNL     1      37.428 -26.802 -11.451  0.00  0.00    -0.202 F 
ATOM     24  C   UNL     1      36.293 -24.025 -14.277  0.00  0.00    +0.005 C 
ATOM     25  C   UNL     1      35.536 -24.180 -13.119  0.00  0.00    +0.138 C 
ATOM     26  C   UNL     1      37.429 -24.799 -14.488  0.00  0.00    +0.030 C 
ATOM     27  C   UNL     1      37.814 -25.739 -13.532  0.00  0.00    +0.167 C 
ATOM     28  C   UNL     1      35.921 -25.120 -12.163  0.00  0.00    +0.061 C 
ATOM     29  C   UNL     1      37.059 -25.899 -12.369  0.00  0.00    +0.170 C 
ENDBRANCH   3  24
BRANCH   4  30
ATOM     30  N   UNL     1      33.620 -23.987 -15.648  0.00  0.00    +0.382 N 
ATOM     31  H   UNL     1      32.812 -23.517 -16.057  0.00  0.00    -0.089 HD
ATOM     32  H   UNL     1      33.686 -23.751 -14.658  0.00  0.00    -0.089 HD
ATOM     33  H   UNL     1      33.514 -24.996 -15.752  0.00  0.00    -0.089 HD
ENDBRANCH   4  30
TORSDOF 4
ENDMDL
MODEL 8
REMARK VINA RESULT:     -10.4      4.468     11.210
REMARK  Name = 11538992
REMARK  4 active torsions:
REMARK  status: ('A' for Active; 'I' for Inactive)
REMARK    1  A    between atoms: C_1  and  N_7
REMARK    2  A    between atoms: C_3  and  C_24
REMARK    3  A    between atoms: C_4  and  N_30
REMARK    4  A    between atoms: C_15  and  C_20
REMARK                            x       y       z     vdW  Elec       q    Type
REMARK                         _______ _______ _______ _____ _____    ______ ____
ROOT
ATOM      1  C   UNL     1      35.028 -16.255 -23.222  0.00  0.00    -0.059 C 
ATOM      2  C   UNL     1      34.650 -17.584 -23.885  0.00  0.00    -0.042 C 
ATOM      3  C   UNL     1      34.344 -18.642 -21.590  0.00  0.00    +0.005 C 
ATOM      4  C   UNL     1      35.004 -18.781 -22.987  0.00  0.00    -0.064 C 
ATOM      5  C   UNL     1      34.359 -16.115 -21.852  0.00  0.00    -0.021 C 
ATOM      6  C   UNL     1      34.708 -17.292 -20.943  0.00  0.00    +0.000 C 
ENDROOT
BRANCH   1   7
ATOM      7  N   UNL     1      34.631 -15.141 -24.082  0.00  0.00    +0.394 N 
ATOM      8  N   UNL     1      33.182 -13.135 -25.358  0.00  0.00    -0.299 N 
ATOM      9  N   UNL     1      33.493 -11.613 -23.826  0.00  0.00    -0.136 NA
ATOM     10  N   UNL     1      32.895 -11.023 -24.929  0.00  0.00    -0.125 NA
ATOM     11  C   UNL     1      33.548 -15.546 -24.998  0.00  0.00    -0.052 C 
ATOM     12  C   UNL     1      34.226 -13.978 -23.265  0.00  0.00    -0.009 C 
ATOM     13  C   UNL     1      33.248 -14.425 -26.004  0.00  0.00    +0.086 C 
ATOM     14  C   UNL     1      33.664 -12.888 -24.105  0.00  0.00    +0.122 A 
ATOM     15  C   UNL     1      32.719 -11.958 -25.838  0.00  0.00    +0.238 A 
ATOM     16  H   UNL     1      35.435 -14.869 -24.650  0.00  0.00    -0.079 HD
BRANCH  15  20
ATOM     17  F   UNL     1      31.049 -12.609 -27.424  0.00  0.00    -0.163 F 
ATOM     18  F   UNL     1      31.665 -10.529 -27.441  0.00  0.00    -0.163 F 
ATOM     19  F   UNL     1      33.008 -12.064 -28.196  0.00  0.00    -0.163 F 
ATOM     20  C   UNL     1      32.128 -11.795 -27.178  0.00  0.00    +0.452 C 
ENDBRANCH  15  20
ENDBRANCH   1   7
BRANCH   3  24
ATOM     21  F   UNL     1      37.002 -19.299 -20.842  0.00  0.00    -0.204 F 
ATOM     22  F   UNL     1      32.999 -22.370 -18.729  0.00  0.00    -0.202 F 
ATOM     23  F   UNL     1      35.606 -22.890 -18.094  0.00  0.00    -0.202 F 
ATOM     24  C   UNL     1      34.688 -19.788 -20.648  0.00  0.00    +0.005 C 
ATOM     25  C   UNL     1      36.016 -20.048 -20.328  0.00  0.00    +0.138 C 
ATOM     26  C   UNL     1      33.667 -20.567 -20.112  0.00  0.00    +0.030 C 
ATOM     27  C   UNL     1      33.977 -21.617 -19.248  0.00  0.00    +0.167 C 
ATOM     28  C   UNL     1      36.327 -21.098 -19.464  0.00  0.00    +0.061 C 
ATOM     29  C   UNL     1      35.308 -21.882 -18.925  0.00  0.00    +0.170 C 
ENDBRANCH   3  24
BRANCH   4  30
ATOM     30  N   UNL     1      34.579 -20.023 -23.641  0.00  0.00    +0.382 N 
ATOM     31  H   UNL     1      35.177 -20.790 -23.333  0.00  0.00    -0.089 HD
ATOM     32  H   UNL     1      34.655 -19.918 -24.652  0.00  0.00    -0.089 HD
ATOM     33  H   UNL     1      33.611 -20.225 -23.391  0.00  0.00    -0.089 HD
ENDBRANCH   4  30
TORSDOF 4
ENDMDL
MODEL 9
REMARK VINA RESULT:     -10.3      8.658     12.355
REMARK  Name = 11538992
REMARK  4 active torsions:
REMARK  status: ('A' for Active; 'I' for Inactive)
REMARK    1  A    between atoms: C_1  and  N_7
REMARK    2  A    between atoms: C_3  and  C_24
REMARK    3  A    between atoms: C_4  and  N_30
REMARK    4  A    between atoms: C_15  and  C_20
REMARK                            x       y       z     vdW  Elec       q    Type
REMARK                         _______ _______ _______ _____ _____    ______ ____
ROOT
ATOM      1  C   UNL     1      33.370 -11.552 -23.421  0.00  0.00    -0.059 C 
ATOM      2  C   UNL     1      32.081 -11.670 -22.601  0.00  0.00    -0.042 C 
ATOM      3  C   UNL     1      31.554  -9.225 -23.079  0.00  0.00    +0.005 C 
ATOM      4  C   UNL     1      31.681 -10.317 -21.985  0.00  0.00    -0.064 C 
ATOM      5  C   UNL     1      33.232 -10.486 -24.511  0.00  0.00    -0.021 C 
ATOM      6  C   UNL     1      32.845  -9.133 -23.916  0.00  0.00    +0.000 C 
ENDROOT
BRANCH   1   7
ATOM      7  N   UNL     1      33.689 -12.843 -24.030  0.00  0.00    +0.394 N 
ATOM      8  N   UNL     1      33.528 -15.425 -25.059  0.00  0.00    -0.299 N 
ATOM      9  N   UNL     1      32.880 -14.840 -27.058  0.00  0.00    -0.136 NA
ATOM     10  N   UNL     1      33.168 -16.195 -27.060  0.00  0.00    -0.125 NA
ATOM     11  C   UNL     1      33.423 -13.947 -23.089  0.00  0.00    -0.052 C 
ATOM     12  C   UNL     1      32.929 -13.023 -25.285  0.00  0.00    -0.009 C 
ATOM     13  C   UNL     1      33.911 -15.281 -23.674  0.00  0.00    +0.086 C 
ATOM     14  C   UNL     1      33.108 -14.389 -25.842  0.00  0.00    +0.122 A 
ATOM     15  C   UNL     1      33.557 -16.525 -25.847  0.00  0.00    +0.238 A 
ATOM     16  H   UNL     1      34.685 -12.856 -24.254  0.00  0.00    -0.079 HD
BRANCH  15  20
ATOM     17  F   UNL     1      34.191 -18.769 -26.382  0.00  0.00    -0.163 F 
ATOM     18  F   UNL     1      35.147 -17.861 -24.660  0.00  0.00    -0.163 F 
ATOM     19  F   UNL     1      33.058 -18.457 -24.553  0.00  0.00    -0.163 F 
ATOM     20  C   UNL     1      33.976 -17.857 -25.378  0.00  0.00    +0.452 C 
ENDBRANCH  15  20
ENDBRANCH   1   7
BRANCH   3  24
ATOM     21  F   UNL     1      30.055  -7.301 -24.529  0.00  0.00    -0.204 F 
ATOM     22  F   UNL     1      31.657  -5.911 -19.488  0.00  0.00    -0.202 F 
ATOM     23  F   UNL     1      30.206  -4.155 -20.997  0.00  0.00    -0.202 F 
ATOM     24  C   UNL     1      31.190  -7.856 -22.520  0.00  0.00    +0.005 C 
ATOM     25  C   UNL     1      30.451  -6.966 -23.293  0.00  0.00    +0.138 C 
ATOM     26  C   UNL     1      31.598  -7.507 -21.237  0.00  0.00    +0.030 C 
ATOM     27  C   UNL     1      31.266  -6.254 -20.722  0.00  0.00    +0.167 C 
ATOM     28  C   UNL     1      30.119  -5.714 -22.778  0.00  0.00    +0.061 C 
ATOM     29  C   UNL     1      30.527  -5.357 -21.493  0.00  0.00    +0.170 C 
ENDBRANCH   3  24
BRANCH   4  30
ATOM     30  N   UNL     1      30.420 -10.470 -21.253  0.00  0.00    +0.382 N 
ATOM     31  H   UNL     1      30.523 -10.085 -20.315  0.00  0.00    -0.089 HD
ATOM     32  H   UNL     1      30.180 -11.459 -21.191  0.00  0.00    -0.089 HD
ATOM     33  H   UNL     1      29.679  -9.970 -21.745  0.00  0.00    -0.089 HD
ENDBRANCH   4  30
TORSDOF 4
ENDMDL
