MODEL 1
REMARK VINA RESULT:     -12.2      0.000      0.000
REMARK  Name = 3822
REMARK  5 active torsions:
REMARK  status: ('A' for Active; 'I' for Inactive)
REMARK    1  A    between atoms: N_1  and  C_17
REMARK    2  A    between atoms: C_2  and  C_9
REMARK    3  A    between atoms: C_9  and  C_11
REMARK    4  A    between atoms: C_17  and  C_18
REMARK    5  A    between atoms: C_18  and  N_21
REMARK                            x       y       z     vdW  Elec       q    Type
REMARK                         _______ _______ _______ _____ _____    ______ ____
ROOT
ATOM      1  N   UNL     1      34.142 -23.177 -14.210  0.00  0.00    +0.388 N 
ATOM      2  C   UNL     1      36.025 -23.787 -12.040  0.00  0.00    +0.058 C 
ATOM      3  C   UNL     1      36.420 -22.955 -13.260  0.00  0.00    -0.015 C 
ATOM      4  C   UNL     1      34.509 -23.816 -11.848  0.00  0.00    -0.015 C 
ATOM      5  C   UNL     1      35.579 -23.275 -14.498  0.00  0.00    -0.077 C 
ATOM      6  C   UNL     1      33.756 -24.113 -13.148  0.00  0.00    -0.077 C 
ATOM      7  H   UNL     1      33.948 -22.230 -13.884  0.00  0.00    -0.080 HD
ENDROOT
BRANCH   2   9
ATOM      8  O   UNL     1      36.141 -26.076 -11.405  0.00  0.00    -0.291 OA
ATOM      9  C   UNL     1      36.563 -25.185 -12.138  0.00  0.00    +0.172 C 
BRANCH   9  11
ATOM     10  F   UNL     1      40.533 -26.305 -15.901  0.00  0.00    -0.204 F 
ATOM     11  C   UNL     1      37.623 -25.483 -13.142  0.00  0.00    +0.035 C 
ATOM     12  C   UNL     1      38.834 -24.838 -13.038  0.00  0.00    +0.005 C 
ATOM     13  C   UNL     1      37.351 -26.396 -14.138  0.00  0.00    +0.005 C 
ATOM     14  C   UNL     1      39.826 -25.118 -13.978  0.00  0.00    +0.030 C 
ATOM     15  C   UNL     1      38.343 -26.676 -15.078  0.00  0.00    +0.030 C 
ATOM     16  C   UNL     1      39.581 -26.037 -14.998  0.00  0.00    +0.140 C 
ENDBRANCH   9  11
ENDBRANCH   2   9
BRANCH   1  17
ATOM     17  C   UNL     1      33.359 -23.426 -15.421  0.00  0.00    -0.052 C 
BRANCH  17  18
ATOM     18  C   UNL     1      34.281 -23.615 -16.616  0.00  0.00    +0.091 C 
BRANCH  18  21
ATOM     19  O   UNL     1      36.167 -22.253 -18.123  0.00  0.00    -0.267 OA
ATOM     20  O   UNL     1      31.631 -23.133 -17.411  0.00  0.00    -0.246 OA
ATOM     21  N   UNL     1      33.920 -22.738 -17.696  0.00  0.00    -0.251 N 
ATOM     22  N   UNL     1      32.266 -21.705 -19.066  0.00  0.00    -0.306 N 
ATOM     23  C   UNL     1      34.977 -22.097 -18.389  0.00  0.00    +0.265 A 
ATOM     24  C   UNL     1      32.545 -22.565 -18.015  0.00  0.00    +0.330 A 
ATOM     25  C   UNL     1      34.593 -21.198 -19.495  0.00  0.00    +0.072 A 
ATOM     26  C   UNL     1      33.246 -21.029 -19.799  0.00  0.00    +0.065 A 
ATOM     27  C   UNL     1      35.567 -20.519 -20.233  0.00  0.00    +0.006 C 
ATOM     28  C   UNL     1      32.862 -20.181 -20.841  0.00  0.00    +0.017 C 
ATOM     29  C   UNL     1      35.184 -19.672 -21.274  0.00  0.00    +0.000 C 
ATOM     30  C   UNL     1      33.833 -19.504 -21.578  0.00  0.00    +0.001 C 
ATOM     31  H   UNL     1      31.323 -21.563 -19.310  0.00  0.00    +0.170 HD
ENDBRANCH  18  21
ENDBRANCH  17  18
ENDBRANCH   1  17
TORSDOF 5
ENDMDL
MODEL 2
REMARK VINA RESULT:     -11.9      4.748     10.408
REMARK  Name = 3822
REMARK  5 active torsions:
REMARK  status: ('A' for Active; 'I' for Inactive)
REMARK    1  A    between atoms: N_1  and  C_17
REMARK    2  A    between atoms: C_2  and  C_9
REMARK    3  A    between atoms: C_9  and  C_11
REMARK    4  A    between atoms: C_17  and  C_18
REMARK    5  A    between atoms: C_18  and  N_21
REMARK                            x       y       z     vdW  Elec       q    Type
REMARK                         _______ _______ _______ _____ _____    ______ ____
ROOT
ATOM      1  N   UNL     1      35.338 -20.052 -20.880  0.00  0.00    +0.388 N 
ATOM      2  C   UNL     1      35.004 -18.018 -22.972  0.00  0.00    +0.058 C 
ATOM      3  C   UNL     1      36.375 -18.551 -22.557  0.00  0.00    -0.015 C 
ATOM      4  C   UNL     1      33.885 -18.976 -22.568  0.00  0.00    -0.015 C 
ATOM      5  C   UNL     1      36.403 -19.069 -21.116  0.00  0.00    -0.077 C 
ATOM      6  C   UNL     1      34.016 -19.462 -21.122  0.00  0.00    -0.077 C 
ATOM      7  H   UNL     1      35.466 -20.823 -21.537  0.00  0.00    -0.080 HD
ENDROOT
BRANCH   2   9
ATOM      8  O   UNL     1      34.986 -16.417 -21.214  0.00  0.00    -0.291 OA
ATOM      9  C   UNL     1      34.754 -16.655 -22.397  0.00  0.00    +0.172 C 
BRANCH   9  11
ATOM     10  F   UNL     1      32.744 -12.639 -25.715  0.00  0.00    -0.204 F 
ATOM     11  C   UNL     1      34.217 -15.583 -23.282  0.00  0.00    +0.035 C 
ATOM     12  C   UNL     1      34.190 -14.289 -22.813  0.00  0.00    +0.005 C 
ATOM     13  C   UNL     1      33.769 -15.926 -24.539  0.00  0.00    +0.005 C 
ATOM     14  C   UNL     1      33.688 -13.285 -23.642  0.00  0.00    +0.030 C 
ATOM     15  C   UNL     1      33.267 -14.923 -25.368  0.00  0.00    +0.030 C 
ATOM     16  C   UNL     1      33.226 -13.603 -24.920  0.00  0.00    +0.140 C 
ENDBRANCH   9  11
ENDBRANCH   2   9
BRANCH   1  17
ATOM     17  C   UNL     1      35.421 -20.579 -19.517  0.00  0.00    -0.052 C 
BRANCH  17  18
ATOM     18  C   UNL     1      35.133 -22.072 -19.509  0.00  0.00    +0.091 C 
BRANCH  18  21
ATOM     19  O   UNL     1      35.804 -22.890 -16.946  0.00  0.00    -0.267 OA
ATOM     20  O   UNL     1      32.366 -21.947 -19.971  0.00  0.00    -0.246 OA
ATOM     21  N   UNL     1      34.144 -22.407 -18.521  0.00  0.00    -0.251 N 
ATOM     22  N   UNL     1      31.867 -22.647 -17.864  0.00  0.00    -0.306 N 
ATOM     23  C   UNL     1      34.614 -22.813 -17.248  0.00  0.00    +0.265 A 
ATOM     24  C   UNL     1      32.767 -22.309 -18.862  0.00  0.00    +0.330 A 
ATOM     25  C   UNL     1      33.589 -23.156 -16.243  0.00  0.00    +0.072 A 
ATOM     26  C   UNL     1      32.243 -23.062 -16.584  0.00  0.00    +0.065 A 
ATOM     27  C   UNL     1      33.959 -23.571 -14.960  0.00  0.00    +0.006 C 
ATOM     28  C   UNL     1      31.257 -23.383 -15.647  0.00  0.00    +0.017 C 
ATOM     29  C   UNL     1      32.974 -23.892 -14.024  0.00  0.00    +0.000 C 
ATOM     30  C   UNL     1      31.625 -23.797 -14.367  0.00  0.00    +0.001 C 
ATOM     31  H   UNL     1      30.905 -22.591 -18.070  0.00  0.00    +0.170 HD
ENDBRANCH  18  21
ENDBRANCH  17  18
ENDBRANCH   1  17
TORSDOF 5
ENDMDL
MODEL 3
REMARK VINA RESULT:     -11.8      6.769     10.602
REMARK  Name = 3822
REMARK  5 active torsions:
REMARK  status: ('A' for Active; 'I' for Inactive)
REMARK    1  A    between atoms: N_1  and  C_17
REMARK    2  A    between atoms: C_2  and  C_9
REMARK    3  A    between atoms: C_9  and  C_11
REMARK    4  A    between atoms: C_17  and  C_18
REMARK    5  A    between atoms: C_18  and  N_21
REMARK                            x       y       z     vdW  Elec       q    Type
REMARK                         _______ _______ _______ _____ _____    ______ ____
ROOT
ATOM      1  N   UNL     1      35.163 -17.249 -24.041  0.00  0.00    +0.388 N 
ATOM      2  C   UNL     1      35.269 -18.792 -21.544  0.00  0.00    +0.058 C 
ATOM      3  C   UNL     1      35.976 -19.247 -22.820  0.00  0.00    -0.015 C 
ATOM      4  C   UNL     1      34.963 -17.295 -21.576  0.00  0.00    -0.015 C 
ATOM      5  C   UNL     1      35.315 -18.709 -24.093  0.00  0.00    -0.077 C 
ATOM      6  C   UNL     1      34.334 -16.849 -22.898  0.00  0.00    -0.077 C 
ATOM      7  H   UNL     1      36.089 -16.838 -23.921  0.00  0.00    -0.080 HD
ENDROOT
BRANCH   2   9
ATOM      8  O   UNL     1      33.011 -19.381 -22.002  0.00  0.00    -0.291 OA
ATOM      9  C   UNL     1      34.009 -19.574 -21.312  0.00  0.00    +0.172 C 
BRANCH   9  11
ATOM     10  F   UNL     1      33.902 -23.404 -17.251  0.00  0.00    -0.204 F 
ATOM     11  C   UNL     1      33.981 -20.597 -20.229  0.00  0.00    +0.035 C 
ATOM     12  C   UNL     1      35.175 -21.065 -19.729  0.00  0.00    +0.005 C 
ATOM     13  C   UNL     1      32.759 -21.035 -19.765  0.00  0.00    +0.005 C 
ATOM     14  C   UNL     1      35.148 -22.022 -18.714  0.00  0.00    +0.030 C 
ATOM     15  C   UNL     1      32.733 -21.992 -18.751  0.00  0.00    +0.030 C 
ATOM     16  C   UNL     1      33.927 -22.486 -18.225  0.00  0.00    +0.140 C 
ENDBRANCH   9  11
ENDBRANCH   2   9
BRANCH   1  17
ATOM     17  C   UNL     1      34.587 -16.750 -25.291  0.00  0.00    -0.052 C 
BRANCH  17  18
ATOM     18  C   UNL     1      33.213 -16.150 -25.036  0.00  0.00    +0.091 C 
BRANCH  18  21
ATOM     19  O   UNL     1      33.239 -13.990 -23.299  0.00  0.00    -0.267 OA
ATOM     20  O   UNL     1      33.063 -15.424 -27.745  0.00  0.00    -0.246 OA
ATOM     21  N   UNL     1      33.146 -14.789 -25.494  0.00  0.00    -0.251 N 
ATOM     22  N   UNL     1      33.009 -13.200 -27.264  0.00  0.00    -0.306 N 
ATOM     23  C   UNL     1      33.165 -13.773 -24.506  0.00  0.00    +0.265 A 
ATOM     24  C   UNL     1      33.072 -14.533 -26.891  0.00  0.00    +0.330 A 
ATOM     25  C   UNL     1      33.094 -12.380 -24.989  0.00  0.00    +0.072 A 
ATOM     26  C   UNL     1      33.018 -12.137 -26.357  0.00  0.00    +0.065 A 
ATOM     27  C   UNL     1      33.103 -11.312 -24.088  0.00  0.00    +0.006 C 
ATOM     28  C   UNL     1      32.949 -10.825 -26.835  0.00  0.00    +0.017 C 
ATOM     29  C   UNL     1      33.034 -10.001 -24.565  0.00  0.00    +0.000 C 
ATOM     30  C   UNL     1      32.958  -9.759 -25.936  0.00  0.00    +0.001 C 
ATOM     31  H   UNL     1      32.956 -12.990 -28.225  0.00  0.00    +0.170 HD
ENDBRANCH  18  21
ENDBRANCH  17  18
ENDBRANCH   1  17
TORSDOF 5
ENDMDL
MODEL 4
REMARK VINA RESULT:     -11.7      4.880     10.541
REMARK  Name = 3822
REMARK  5 active torsions:
REMARK  status: ('A' for Active; 'I' for Inactive)
REMARK    1  A    between atoms: N_1  and  C_17
REMARK    2  A    between atoms: C_2  and  C_9
REMARK    3  A    between atoms: C_9  and  C_11
REMARK    4  A    between atoms: C_17  and  C_18
REMARK    5  A    between atoms: C_18  and  N_21
REMARK                            x       y       z     vdW  Elec       q    Type
REMARK                         _______ _______ _______ _____ _____    ______ ____
ROOT
ATOM      1  N   UNL     1      35.310 -20.064 -20.887  0.00  0.00    +0.388 N 
ATOM      2  C   UNL     1      35.017 -18.038 -22.992  0.00  0.00    +0.058 C 
ATOM      3  C   UNL     1      36.380 -18.568 -22.547  0.00  0.00    -0.015 C 
ATOM      4  C   UNL     1      33.891 -18.995 -22.608  0.00  0.00    -0.015 C 
ATOM      5  C   UNL     1      36.379 -19.081 -21.105  0.00  0.00    -0.077 C 
ATOM      6  C   UNL     1      33.993 -19.476 -21.158  0.00  0.00    -0.077 C 
ATOM      7  H   UNL     1      35.453 -20.837 -21.538  0.00  0.00    -0.080 HD
ENDROOT
BRANCH   2   9
ATOM      8  O   UNL     1      34.981 -16.425 -21.244  0.00  0.00    -0.291 OA
ATOM      9  C   UNL     1      34.755 -16.672 -22.426  0.00  0.00    +0.172 C 
BRANCH   9  11
ATOM     10  F   UNL     1      32.719 -12.692 -25.772  0.00  0.00    -0.204 F 
ATOM     11  C   UNL     1      34.212 -15.610 -23.320  0.00  0.00    +0.035 C 
ATOM     12  C   UNL     1      33.798 -15.958 -24.586  0.00  0.00    +0.005 C 
ATOM     13  C   UNL     1      34.143 -14.319 -22.844  0.00  0.00    +0.005 C 
ATOM     14  C   UNL     1      33.289 -14.964 -25.422  0.00  0.00    +0.030 C 
ATOM     15  C   UNL     1      33.634 -13.325 -23.680  0.00  0.00    +0.030 C 
ATOM     16  C   UNL     1      33.208 -13.647 -24.969  0.00  0.00    +0.140 C 
ENDBRANCH   9  11
ENDBRANCH   2   9
BRANCH   1  17
ATOM     17  C   UNL     1      35.366 -20.586 -19.521  0.00  0.00    -0.052 C 
BRANCH  17  18
ATOM     18  C   UNL     1      35.000 -22.063 -19.504  0.00  0.00    +0.091 C 
BRANCH  18  21
ATOM     19  O   UNL     1      32.258 -22.329 -19.195  0.00  0.00    -0.267 OA
ATOM     20  O   UNL     1      36.462 -22.605 -17.168  0.00  0.00    -0.246 OA
ATOM     21  N   UNL     1      34.396 -22.435 -18.255  0.00  0.00    -0.251 N 
ATOM     22  N   UNL     1      34.584 -23.041 -15.958  0.00  0.00    -0.306 N 
ATOM     23  C   UNL     1      32.983 -22.536 -18.224  0.00  0.00    +0.265 A 
ATOM     24  C   UNL     1      35.231 -22.688 -17.131  0.00  0.00    +0.330 A 
ATOM     25  C   UNL     1      32.374 -22.917 -16.935  0.00  0.00    +0.072 A 
ATOM     26  C   UNL     1      33.197 -23.158 -15.839  0.00  0.00    +0.065 A 
ATOM     27  C   UNL     1      30.987 -23.037 -16.809  0.00  0.00    +0.006 C 
ATOM     28  C   UNL     1      32.640 -23.520 -14.609  0.00  0.00    +0.017 C 
ATOM     29  C   UNL     1      30.431 -23.398 -15.580  0.00  0.00    +0.000 C 
ATOM     30  C   UNL     1      31.257 -23.640 -14.483  0.00  0.00    +0.001 C 
ATOM     31  H   UNL     1      35.135 -23.221 -15.162  0.00  0.00    +0.170 HD
ENDBRANCH  18  21
ENDBRANCH  17  18
ENDBRANCH   1  17
TORSDOF 5
ENDMDL
MODEL 5
REMARK VINA RESULT:     -11.5      7.690     11.434
REMARK  Name = 3822
REMARK  5 active torsions:
REMARK  status: ('A' for Active; 'I' for Inactive)
REMARK    1  A    between atoms: N_1  and  C_17
REMARK    2  A    between atoms: C_2  and  C_9
REMARK    3  A    between atoms: C_9  and  C_11
REMARK    4  A    between atoms: C_17  and  C_18
REMARK    5  A    between atoms: C_18  and  N_21
REMARK                            x       y       z     vdW  Elec       q    Type
REMARK                         _______ _______ _______ _____ _____    ______ ____
ROOT
ATOM      1  N   UNL     1      34.652 -15.306 -22.174  0.00  0.00    +0.388 N 
ATOM      2  C   UNL     1      35.215 -18.157 -22.599  0.00  0.00    +0.058 C 
ATOM      3  C   UNL     1      35.069 -17.168 -23.755  0.00  0.00    -0.015 C 
ATOM      4  C   UNL     1      35.529 -17.442 -21.286  0.00  0.00    -0.015 C 
ATOM      5  C   UNL     1      34.191 -15.964 -23.404  0.00  0.00    -0.077 C 
ATOM      6  C   UNL     1      34.620 -16.235 -21.039  0.00  0.00    -0.077 C 
ATOM      7  H   UNL     1      35.619 -15.011 -22.316  0.00  0.00    -0.080 HD
ENDROOT
BRANCH   2   9
ATOM      8  O   UNL     1      33.067 -18.931 -23.263  0.00  0.00    -0.291 OA
ATOM      9  C   UNL     1      33.983 -19.002 -22.449  0.00  0.00    +0.172 C 
BRANCH   9  11
ATOM     10  F   UNL     1      33.606 -22.498 -18.111  0.00  0.00    -0.204 F 
ATOM     11  C   UNL     1      33.883 -19.936 -21.291  0.00  0.00    +0.035 C 
ATOM     12  C   UNL     1      35.031 -20.533 -20.821  0.00  0.00    +0.005 C 
ATOM     13  C   UNL     1      32.645 -20.165 -20.733  0.00  0.00    +0.005 C 
ATOM     14  C   UNL     1      34.937 -21.406 -19.738  0.00  0.00    +0.030 C 
ATOM     15  C   UNL     1      32.551 -21.038 -19.649  0.00  0.00    +0.030 C 
ATOM     16  C   UNL     1      33.696 -21.659 -19.151  0.00  0.00    +0.140 C 
ENDBRANCH   9  11
ENDBRANCH   2   9
BRANCH   1  17
ATOM     17  C   UNL     1      33.838 -14.123 -21.891  0.00  0.00    -0.052 C 
BRANCH  17  18
ATOM     18  C   UNL     1      33.136 -13.650 -23.155  0.00  0.00    +0.091 C 
BRANCH  18  21
ATOM     19  O   UNL     1      34.374 -11.805 -24.814  0.00  0.00    -0.267 OA
ATOM     20  O   UNL     1      31.277 -12.513 -21.383  0.00  0.00    -0.246 OA
ATOM     21  N   UNL     1      32.850 -12.243 -23.096  0.00  0.00    -0.251 N 
ATOM     22  N   UNL     1      31.661 -10.405 -22.152  0.00  0.00    -0.306 N 
ATOM     23  C   UNL     1      33.551 -11.401 -23.996  0.00  0.00    +0.265 A 
ATOM     24  C   UNL     1      31.889 -11.772 -22.158  0.00  0.00    +0.330 A 
ATOM     25  C   UNL     1      33.249  -9.958 -23.923  0.00  0.00    +0.072 A 
ATOM     26  C   UNL     1      32.311  -9.505 -23.001  0.00  0.00    +0.065 A 
ATOM     27  C   UNL     1      33.894  -9.052 -24.769  0.00  0.00    +0.006 C 
ATOM     28  C   UNL     1      32.012  -8.142 -22.916  0.00  0.00    +0.017 C 
ATOM     29  C   UNL     1      33.596  -7.690 -24.684  0.00  0.00    +0.000 C 
ATOM     30  C   UNL     1      32.655  -7.237 -23.760  0.00  0.00    +0.001 C 
ATOM     31  H   UNL     1      31.002 -10.048 -21.514  0.00  0.00    +0.170 HD
ENDBRANCH  18  21
ENDBRANCH  17  18
ENDBRANCH   1  17
TORSDOF 5
ENDMDL
MODEL 6
REMARK VINA RESULT:     -11.5      6.562     10.466
REMARK  Name = 3822
REMARK  5 active torsions:
REMARK  status: ('A' for Active; 'I' for Inactive)
REMARK    1  A    between atoms: N_1  and  C_17
REMARK    2  A    between atoms: C_2  and  C_9
REMARK    3  A    between atoms: C_9  and  C_11
REMARK    4  A    between atoms: C_17  and  C_18
REMARK    5  A    between atoms: C_18  and  N_21
REMARK                            x       y       z     vdW  Elec       q    Type
REMARK                         _______ _______ _______ _____ _____    ______ ____
ROOT
ATOM      1  N   UNL     1      34.452 -16.759 -23.963  0.00  0.00    +0.388 N 
ATOM      2  C   UNL     1      34.976 -19.394 -22.777  0.00  0.00    +0.058 C 
ATOM      3  C   UNL     1      34.336 -19.227 -24.154  0.00  0.00    -0.015 C 
ATOM      4  C   UNL     1      35.730 -18.135 -22.353  0.00  0.00    -0.015 C 
ATOM      5  C   UNL     1      33.591 -17.898 -24.309  0.00  0.00    -0.077 C 
ATOM      6  C   UNL     1      34.916 -16.857 -22.574  0.00  0.00    -0.077 C 
ATOM      7  H   UNL     1      35.269 -16.782 -24.573  0.00  0.00    -0.080 HD
ENDROOT
BRANCH   2   9
ATOM      8  O   UNL     1      32.780 -19.410 -21.864  0.00  0.00    -0.291 OA
ATOM      9  C   UNL     1      33.951 -19.759 -21.742  0.00  0.00    +0.172 C 
BRANCH   9  11
ATOM     10  F   UNL     1      35.528 -22.745 -17.295  0.00  0.00    -0.204 F 
ATOM     11  C   UNL     1      34.373 -20.557 -20.555  0.00  0.00    +0.035 C 
ATOM     12  C   UNL     1      35.703 -20.565 -20.203  0.00  0.00    +0.005 C 
ATOM     13  C   UNL     1      33.414 -21.254 -19.854  0.00  0.00    +0.005 C 
ATOM     14  C   UNL     1      36.097 -21.311 -19.092  0.00  0.00    +0.030 C 
ATOM     15  C   UNL     1      33.808 -22.000 -18.743  0.00  0.00    +0.030 C 
ATOM     16  C   UNL     1      35.149 -22.029 -18.362  0.00  0.00    +0.140 C 
ENDBRANCH   9  11
ENDBRANCH   2   9
BRANCH   1  17
ATOM     17  C   UNL     1      33.741 -15.498 -24.177  0.00  0.00    -0.052 C 
BRANCH  17  18
ATOM     18  C   UNL     1      34.529 -14.340 -23.581  0.00  0.00    +0.091 C 
BRANCH  18  21
ATOM     19  O   UNL     1      33.361 -14.178 -21.071  0.00  0.00    -0.267 OA
ATOM     20  O   UNL     1      33.868 -12.203 -25.279  0.00  0.00    -0.246 OA
ATOM     21  N   UNL     1      33.660 -13.260 -23.201  0.00  0.00    -0.251 N 
ATOM     22  N   UNL     1      32.544 -11.217 -23.711  0.00  0.00    -0.306 N 
ATOM     23  C   UNL     1      33.123 -13.292 -21.890  0.00  0.00    +0.265 A 
ATOM     24  C   UNL     1      33.391 -12.227 -24.141  0.00  0.00    +0.330 A 
ATOM     25  C   UNL     1      32.231 -12.178 -21.513  0.00  0.00    +0.072 A 
ATOM     26  C   UNL     1      31.969 -11.173 -22.439  0.00  0.00    +0.065 A 
ATOM     27  C   UNL     1      31.652 -12.127 -20.242  0.00  0.00    +0.006 C 
ATOM     28  C   UNL     1      31.126 -10.110 -22.101  0.00  0.00    +0.017 C 
ATOM     29  C   UNL     1      30.810 -11.066 -19.905  0.00  0.00    +0.000 C 
ATOM     30  C   UNL     1      30.548 -10.059 -20.833  0.00  0.00    +0.001 C 
ATOM     31  H   UNL     1      32.338 -10.488 -24.340  0.00  0.00    +0.170 HD
ENDBRANCH  18  21
ENDBRANCH  17  18
ENDBRANCH   1  17
TORSDOF 5
ENDMDL
MODEL 7
REMARK VINA RESULT:     -11.4      0.739      2.039
REMARK  Name = 3822
REMARK  5 active torsions:
REMARK  status: ('A' for Active; 'I' for Inactive)
REMARK    1  A    between atoms: N_1  and  C_17
REMARK    2  A    between atoms: C_2  and  C_9
REMARK    3  A    between atoms: C_9  and  C_11
REMARK    4  A    between atoms: C_17  and  C_18
REMARK    5  A    between atoms: C_18  and  N_21
REMARK                            x       y       z     vdW  Elec       q    Type
REMARK                         _______ _______ _______ _____ _____    ______ ____
ROOT
ATOM      1  N   UNL     1      34.298 -23.052 -14.221  0.00  0.00    +0.388 N 
ATOM      2  C   UNL     1      36.032 -23.831 -11.983  0.00  0.00    +0.058 C 
ATOM      3  C   UNL     1      36.515 -22.933 -13.122  0.00  0.00    -0.015 C 
ATOM      4  C   UNL     1      34.507 -23.842 -11.886  0.00  0.00    -0.015 C 
ATOM      5  C   UNL     1      35.748 -23.160 -14.427  0.00  0.00    -0.077 C 
ATOM      6  C   UNL     1      33.831 -24.044 -13.245  0.00  0.00    -0.077 C 
ATOM      7  H   UNL     1      34.098 -22.123 -13.849  0.00  0.00    -0.080 HD
ENDROOT
BRANCH   2   9
ATOM      8  O   UNL     1      36.119 -26.144 -11.439  0.00  0.00    -0.291 OA
ATOM      9  C   UNL     1      36.553 -25.230 -12.135  0.00  0.00    +0.172 C 
BRANCH   9  11
ATOM     10  F   UNL     1      40.519 -26.245 -15.933  0.00  0.00    -0.204 F 
ATOM     11  C   UNL     1      37.612 -25.502 -13.149  0.00  0.00    +0.035 C 
ATOM     12  C   UNL     1      37.336 -26.376 -14.176  0.00  0.00    +0.005 C 
ATOM     13  C   UNL     1      38.827 -24.866 -13.021  0.00  0.00    +0.005 C 
ATOM     14  C   UNL     1      38.326 -26.629 -15.125  0.00  0.00    +0.030 C 
ATOM     15  C   UNL     1      39.818 -25.119 -13.970  0.00  0.00    +0.030 C 
ATOM     16  C   UNL     1      39.568 -26.001 -15.022  0.00  0.00    +0.140 C 
ENDBRANCH   9  11
ENDBRANCH   2   9
BRANCH   1  17
ATOM     17  C   UNL     1      33.588 -23.211 -15.491  0.00  0.00    -0.052 C 
BRANCH  17  18
ATOM     18  C   UNL     1      34.549 -23.660 -16.581  0.00  0.00    +0.091 C 
BRANCH  18  21
ATOM     19  O   UNL     1      32.332 -22.900 -18.061  0.00  0.00    -0.267 OA
ATOM     20  O   UNL     1      36.918 -22.355 -17.337  0.00  0.00    -0.246 OA
ATOM     21  N   UNL     1      34.623 -22.693 -17.641  0.00  0.00    -0.251 N 
ATOM     22  N   UNL     1      35.877 -21.169 -18.976  0.00  0.00    -0.306 N 
ATOM     23  C   UNL     1      33.418 -22.391 -18.325  0.00  0.00    +0.265 A 
ATOM     24  C   UNL     1      35.876 -22.092 -17.943  0.00  0.00    +0.330 A 
ATOM     25  C   UNL     1      33.508 -21.397 -19.413  0.00  0.00    +0.072 A 
ATOM     26  C   UNL     1      34.738 -20.816 -19.705  0.00  0.00    +0.065 A 
ATOM     27  C   UNL     1      32.372 -21.039 -20.146  0.00  0.00    +0.006 C 
ATOM     28  C   UNL     1      34.843 -19.874 -20.732  0.00  0.00    +0.017 C 
ATOM     29  C   UNL     1      32.478 -20.098 -21.172  0.00  0.00    +0.000 C 
ATOM     30  C   UNL     1      33.711 -19.516 -21.464  0.00  0.00    +0.001 C 
ATOM     31  H   UNL     1      36.730 -20.736 -19.210  0.00  0.00    +0.170 HD
ENDBRANCH  18  21
ENDBRANCH  17  18
ENDBRANCH   1  17
TORSDOF 5
ENDMDL
MODEL 8
REMARK VINA RESULT:     -11.4      7.304     11.265
REMARK  Name = 3822
REMARK  5 active torsions:
REMARK  status: ('A' for Active; 'I' for Inactive)
REMARK    1  A    between atoms: N_1  and  C_17
REMARK    2  A    between atoms: C_2  and  C_9
REMARK    3  A    between atoms: C_9  and  C_11
REMARK    4  A    between atoms: C_17  and  C_18
REMARK    5  A    between atoms: C_18  and  N_21
REMARK                            x       y       z     vdW  Elec       q    Type
REMARK                         _______ _______ _______ _____ _____    ______ ____
ROOT
ATOM      1  N   UNL     1      34.592 -16.860 -24.748  0.00  0.00    +0.388 N 
ATOM      2  C   UNL     1      35.183 -18.834 -22.656  0.00  0.00    +0.058 C 
ATOM      3  C   UNL     1      35.246 -19.172 -24.145  0.00  0.00    -0.015 C 
ATOM      4  C   UNL     1      35.280 -17.328 -22.419  0.00  0.00    -0.015 C 
ATOM      5  C   UNL     1      34.336 -18.284 -24.998  0.00  0.00    -0.077 C 
ATOM      6  C   UNL     1      34.357 -16.524 -23.339  0.00  0.00    -0.077 C 
ATOM      7  H   UNL     1      35.572 -16.671 -24.960  0.00  0.00    -0.080 HD
ENDROOT
BRANCH   2   9
ATOM      8  O   UNL     1      32.825 -19.080 -22.465  0.00  0.00    -0.291 OA
ATOM      9  C   UNL     1      33.933 -19.379 -22.027  0.00  0.00    +0.172 C 
BRANCH   9  11
ATOM     10  F   UNL     1      34.379 -22.811 -17.645  0.00  0.00    -0.204 F 
ATOM     11  C   UNL     1      34.052 -20.295 -20.857  0.00  0.00    +0.035 C 
ATOM     12  C   UNL     1      32.901 -20.766 -20.266  0.00  0.00    +0.005 C 
ATOM     13  C   UNL     1      35.309 -20.638 -20.412  0.00  0.00    +0.005 C 
ATOM     14  C   UNL     1      33.012 -21.623 -19.171  0.00  0.00    +0.030 C 
ATOM     15  C   UNL     1      35.421 -21.495 -19.317  0.00  0.00    +0.030 C 
ATOM     16  C   UNL     1      34.272 -21.988 -18.696  0.00  0.00    +0.140 C 
ENDBRANCH   9  11
ENDBRANCH   2   9
BRANCH   1  17
ATOM     17  C   UNL     1      33.756 -16.030 -25.617  0.00  0.00    -0.052 C 
BRANCH  17  18
ATOM     18  C   UNL     1      32.980 -15.015 -24.791  0.00  0.00    +0.091 C 
BRANCH  18  21
ATOM     19  O   UNL     1      34.190 -13.077 -23.221  0.00  0.00    -0.267 OA
ATOM     20  O   UNL     1      32.282 -14.118 -27.360  0.00  0.00    -0.246 OA
ATOM     21  N   UNL     1      33.213 -13.676 -25.259  0.00  0.00    -0.251 N 
ATOM     22  N   UNL     1      33.072 -12.020 -26.967  0.00  0.00    -0.306 N 
ATOM     23  C   UNL     1      33.839 -12.777 -24.359  0.00  0.00    +0.265 A 
ATOM     24  C   UNL     1      32.819 -13.327 -26.580  0.00  0.00    +0.330 A 
ATOM     25  C   UNL     1      34.071 -11.404 -24.851  0.00  0.00    +0.072 A 
ATOM     26  C   UNL     1      33.679 -11.069 -26.143  0.00  0.00    +0.065 A 
ATOM     27  C   UNL     1      34.678 -10.447 -24.033  0.00  0.00    +0.006 C 
ATOM     28  C   UNL     1      33.890  -9.774 -26.627  0.00  0.00    +0.017 C 
ATOM     29  C   UNL     1      34.889  -9.154 -24.516  0.00  0.00    +0.000 C 
ATOM     30  C   UNL     1      34.495  -8.819 -25.811  0.00  0.00    +0.001 C 
ATOM     31  H   UNL     1      32.809 -11.748 -27.876  0.00  0.00    +0.170 HD
ENDBRANCH  18  21
ENDBRANCH  17  18
ENDBRANCH   1  17
TORSDOF 5
ENDMDL
MODEL 9
REMARK VINA RESULT:     -11.4      8.155     12.232
REMARK  Name = 3822
REMARK  5 active torsions:
REMARK  status: ('A' for Active; 'I' for Inactive)
REMARK    1  A    between atoms: N_1  and  C_17
REMARK    2  A    between atoms: C_2  and  C_9
REMARK    3  A    between atoms: C_9  and  C_11
REMARK    4  A    between atoms: C_17  and  C_18
REMARK    5  A    between atoms: C_18  and  N_21
REMARK                            x       y       z     vdW  Elec       q    Type
REMARK                         _______ _______ _______ _____ _____    ______ ____
ROOT
ATOM      1  N   UNL     1      34.323 -14.890 -23.121  0.00  0.00    +0.388 N 
ATOM      2  C   UNL     1      34.968 -17.686 -23.749  0.00  0.00    +0.058 C 
ATOM      3  C   UNL     1      34.518 -16.688 -24.815  0.00  0.00    -0.015 C 
ATOM      4  C   UNL     1      35.505 -16.975 -22.508  0.00  0.00    -0.015 C 
ATOM      5  C   UNL     1      33.657 -15.556 -24.248  0.00  0.00    -0.077 C 
ATOM      6  C   UNL     1      34.592 -15.840 -22.036  0.00  0.00    -0.077 C 
ATOM      7  H   UNL     1      35.217 -14.525 -23.452  0.00  0.00    -0.080 HD
ENDROOT
BRANCH   2   9
ATOM      8  O   UNL     1      32.848 -18.713 -24.070  0.00  0.00    -0.291 OA
ATOM      9  C   UNL     1      33.854 -18.619 -23.372  0.00  0.00    +0.172 C 
BRANCH   9  11
ATOM     10  F   UNL     1      34.334 -21.681 -18.728  0.00  0.00    -0.204 F 
ATOM     11  C   UNL     1      33.983 -19.437 -22.133  0.00  0.00    +0.035 C 
ATOM     12  C   UNL     1      35.240 -19.806 -21.711  0.00  0.00    +0.005 C 
ATOM     13  C   UNL     1      32.838 -19.791 -21.453  0.00  0.00    +0.005 C 
ATOM     14  C   UNL     1      35.360 -20.571 -20.551  0.00  0.00    +0.030 C 
ATOM     15  C   UNL     1      32.958 -20.556 -20.293  0.00  0.00    +0.030 C 
ATOM     16  C   UNL     1      34.219 -20.946 -19.842  0.00  0.00    +0.140 C 
ENDBRANCH   9  11
ENDBRANCH   2   9
BRANCH   1  17
ATOM     17  C   UNL     1      33.512 -13.774 -22.635  0.00  0.00    -0.052 C 
BRANCH  17  18
ATOM     18  C   UNL     1      32.926 -12.997 -23.805  0.00  0.00    +0.091 C 
BRANCH  18  21
ATOM     19  O   UNL     1      31.279 -11.766 -21.945  0.00  0.00    -0.267 OA
ATOM     20  O   UNL     1      34.660 -11.229 -25.129  0.00  0.00    -0.246 OA
ATOM     21  N   UNL     1      32.961 -11.581 -23.559  0.00  0.00    -0.251 N 
ATOM     22  N   UNL     1      33.860  -9.420 -24.003  0.00  0.00    -0.306 N 
ATOM     23  C   UNL     1      32.067 -11.072 -22.584  0.00  0.00    +0.265 A 
ATOM     24  C   UNL     1      33.879 -10.776 -24.287  0.00  0.00    +0.330 A 
ATOM     25  C   UNL     1      32.111  -9.617 -22.343  0.00  0.00    +0.072 A 
ATOM     26  C   UNL     1      33.009  -8.834 -23.062  0.00  0.00    +0.065 A 
ATOM     27  C   UNL     1      31.262  -9.024 -21.403  0.00  0.00    +0.006 C 
ATOM     28  C   UNL     1      33.065  -7.454 -22.848  0.00  0.00    +0.017 C 
ATOM     29  C   UNL     1      31.319  -7.646 -21.189  0.00  0.00    +0.000 C 
ATOM     30  C   UNL     1      32.219  -6.863 -21.911  0.00  0.00    +0.001 C 
ATOM     31  H   UNL     1      34.483  -8.835 -24.492  0.00  0.00    +0.170 HD
ENDBRANCH  18  21
ENDBRANCH  17  18
ENDBRANCH   1  17
TORSDOF 5
ENDMDL
