MODEL 1
REMARK VINA RESULT:     -12.8      0.000      0.000
REMARK  Name = 5291
REMARK  6 active torsions:
REMARK  status: ('A' for Active; 'I' for Inactive)
REMARK    1  A    between atoms: C_1  and  N_23
REMARK    2  A    between atoms: C_2  and  N_8
REMARK    3  A    between atoms: C_12  and  C_17
REMARK    4  A    between atoms: C_24  and  C_31
REMARK    5  A    between atoms: C_26  and  C_32
REMARK    6  A    between atoms: C_32  and  N_33
REMARK                            x       y       z     vdW  Elec       q    Type
REMARK                         _______ _______ _______ _____ _____    ______ ____
ROOT
ATOM      1  C   UNL     1      32.947 -17.201 -25.055  0.00  0.00    +0.052 C 
ATOM      2  C   UNL     1      32.882 -15.191 -26.359  0.00  0.00    +0.055 C 
ATOM      3  C   UNL     1      33.448 -15.939 -25.329  0.00  0.00    +0.030 C 
ATOM      4  C   UNL     1      31.822 -15.714 -27.101  0.00  0.00    -0.008 C 
ATOM      5  C   UNL     1      31.896 -17.735 -25.780  0.00  0.00    +0.014 C 
ATOM      6  C   UNL     1      31.329 -16.985 -26.810  0.00  0.00    -0.002 C 
ATOM      7  C   UNL     1      31.195 -14.933 -28.209  0.00  0.00    +0.032 C 
ENDROOT
BRANCH   2   8
ATOM      8  N   UNL     1      33.393 -13.904 -26.641  0.00  0.00    -0.248 N 
ATOM      9  N   UNL     1      32.856 -12.740 -24.675  0.00  0.00    -0.337 NA
ATOM     10  N   UNL     1      34.000 -11.642 -26.490  0.00  0.00    -0.170 NA
ATOM     11  C   UNL     1      33.418 -12.707 -25.901  0.00  0.00    +0.149 C 
ATOM     12  C   UNL     1      32.896 -11.576 -23.994  0.00  0.00    +0.147 C 
ATOM     13  C   UNL     1      33.464 -10.419 -24.487  0.00  0.00    +0.055 C 
ATOM     14  C   UNL     1      34.006 -10.511 -25.752  0.00  0.00    +0.114 C 
ATOM     15  H   UNL     1      33.815 -13.831 -27.527  0.00  0.00    +0.165 HD
BRANCH  12  17
ATOM     16  N   UNL     1      31.101 -10.459 -20.925  0.00  0.00    -0.242 NA
ATOM     17  C   UNL     1      32.296 -11.613 -22.682  0.00  0.00    +0.050 C 
ATOM     18  C   UNL     1      32.315 -12.774 -21.916  0.00  0.00    +0.006 C 
ATOM     19  C   UNL     1      31.682 -10.493 -22.145  0.00  0.00    +0.101 C 
ATOM     20  C   UNL     1      31.729 -12.778 -20.656  0.00  0.00    +0.021 C 
ATOM     21  C   UNL     1      31.140 -11.606 -20.210  0.00  0.00    +0.099 C 
ENDBRANCH  12  17
ENDBRANCH   2   8
BRANCH   1  23
ATOM     22  O   UNL     1      34.589 -16.329 -22.702  0.00  0.00    -0.270 OA
ATOM     23  N   UNL     1      33.523 -17.962 -24.009  0.00  0.00    -0.280 N 
ATOM     24  C   UNL     1      34.288 -17.514 -22.922  0.00  0.00    +0.249 C 
ATOM     25  H   UNL     1      33.366 -18.933 -24.050  0.00  0.00    +0.155 HD
BRANCH  24  31
ATOM     26  C   UNL     1      35.688 -20.511 -20.286  0.00  0.00    -0.043 C 
ATOM     27  C   UNL     1      34.340 -20.464 -20.613  0.00  0.00    -0.006 C 
ATOM     28  C   UNL     1      36.583 -19.589 -20.811  0.00  0.00    -0.006 C 
ATOM     29  C   UNL     1      33.879 -19.476 -21.482  0.00  0.00    +0.004 C 
ATOM     30  C   UNL     1      36.122 -18.601 -21.680  0.00  0.00    +0.004 C 
ATOM     31  C   UNL     1      34.770 -18.545 -22.017  0.00  0.00    +0.054 C 
BRANCH  26  32
ATOM     32  C   UNL     1      36.187 -21.578 -19.348  0.00  0.00    -0.050 C 
BRANCH  32  33
ATOM     33  N   UNL     1      35.259 -21.808 -18.241  0.00  0.00    +0.387 N 
ATOM     34  N   UNL     1      33.931 -23.488 -16.299  0.00  0.00    +0.383 N 
ATOM     35  C   UNL     1      35.970 -22.318 -17.063  0.00  0.00    -0.100 C 
ATOM     36  C   UNL     1      34.194 -22.736 -18.639  0.00  0.00    -0.100 C 
ATOM     37  C   UNL     1      34.998 -22.560 -15.903  0.00  0.00    -0.101 C 
ATOM     38  C   UNL     1      33.222 -22.980 -17.480  0.00  0.00    -0.101 C 
ATOM     39  C   UNL     1      33.004 -23.716 -15.194  0.00  0.00    -0.101 C 
ATOM     40  H   UNL     1      34.834 -20.914 -17.998  0.00  0.00    -0.079 HD
ATOM     41  H   UNL     1      34.357 -24.382 -16.542  0.00  0.00    -0.080 HD
ENDBRANCH  32  33
ENDBRANCH  26  32
ENDBRANCH  24  31
ENDBRANCH   1  23
TORSDOF 6
ENDMDL
MODEL 2
REMARK VINA RESULT:     -11.8      1.895      2.954
REMARK  Name = 5291
REMARK  6 active torsions:
REMARK  status: ('A' for Active; 'I' for Inactive)
REMARK    1  A    between atoms: C_1  and  N_23
REMARK    2  A    between atoms: C_2  and  N_8
REMARK    3  A    between atoms: C_12  and  C_17
REMARK    4  A    between atoms: C_24  and  C_31
REMARK    5  A    between atoms: C_26  and  C_32
REMARK    6  A    between atoms: C_32  and  N_33
REMARK                            x       y       z     vdW  Elec       q    Type
REMARK                         _______ _______ _______ _____ _____    ______ ____
ROOT
ATOM      1  C   UNL     1      33.220 -13.989 -25.442  0.00  0.00    +0.052 C 
ATOM      2  C   UNL     1      33.159 -11.681 -26.087  0.00  0.00    +0.055 C 
ATOM      3  C   UNL     1      33.662 -12.689 -25.265  0.00  0.00    +0.030 C 
ATOM      4  C   UNL     1      32.221 -11.989 -27.073  0.00  0.00    -0.008 C 
ATOM      5  C   UNL     1      32.290 -14.312 -26.414  0.00  0.00    +0.014 C 
ATOM      6  C   UNL     1      31.786 -13.303 -27.236  0.00  0.00    -0.002 C 
ATOM      7  C   UNL     1      31.664 -10.928 -27.966  0.00  0.00    +0.032 C 
ENDROOT
BRANCH   2   8
ATOM      8  N   UNL     1      33.610 -10.354 -25.909  0.00  0.00    -0.248 N 
ATOM      9  N   UNL     1      32.783  -9.856 -23.769  0.00  0.00    -0.337 NA
ATOM     10  N   UNL     1      34.042  -8.226 -25.020  0.00  0.00    -0.170 NA
ATOM     11  C   UNL     1      33.472  -9.437 -24.851  0.00  0.00    +0.149 C 
ATOM     12  C   UNL     1      32.669  -8.952 -22.775  0.00  0.00    +0.147 C 
ATOM     13  C   UNL     1      33.208  -7.682 -22.828  0.00  0.00    +0.055 C 
ATOM     14  C   UNL     1      33.890  -7.371 -23.986  0.00  0.00    +0.114 C 
ATOM     15  H   UNL     1      34.121 -10.004 -26.673  0.00  0.00    +0.165 HD
BRANCH  12  17
ATOM     16  N   UNL     1      31.494  -9.214 -19.248  0.00  0.00    -0.242 NA
ATOM     17  C   UNL     1      31.932  -9.401 -21.619  0.00  0.00    +0.050 C 
ATOM     18  C   UNL     1      30.981 -10.411 -21.722  0.00  0.00    +0.006 C 
ATOM     19  C   UNL     1      32.149  -8.841 -20.370  0.00  0.00    +0.101 C 
ATOM     20  C   UNL     1      30.287 -10.823 -20.590  0.00  0.00    +0.021 C 
ATOM     21  C   UNL     1      30.577 -10.199 -19.388  0.00  0.00    +0.099 C 
ENDBRANCH  12  17
ENDBRANCH   2   8
BRANCH   1  23
ATOM     22  O   UNL     1      33.877 -13.959 -22.516  0.00  0.00    -0.270 OA
ATOM     23  N   UNL     1      33.732 -15.013 -24.608  0.00  0.00    -0.280 N 
ATOM     24  C   UNL     1      34.027 -14.958 -23.238  0.00  0.00    +0.249 C 
ATOM     25  H   UNL     1      33.904 -15.877 -25.047  0.00  0.00    +0.155 HD
BRANCH  24  31
ATOM     26  C   UNL     1      35.609 -18.498 -21.547  0.00  0.00    -0.043 C 
ATOM     27  C   UNL     1      35.486 -18.395 -22.925  0.00  0.00    -0.006 C 
ATOM     28  C   UNL     1      35.221 -17.457 -20.715  0.00  0.00    -0.006 C 
ATOM     29  C   UNL     1      34.965 -17.228 -23.483  0.00  0.00    +0.004 C 
ATOM     30  C   UNL     1      34.700 -16.290 -21.272  0.00  0.00    +0.004 C 
ATOM     31  C   UNL     1      34.572 -16.174 -22.656  0.00  0.00    +0.054 C 
BRANCH  26  32
ATOM     32  C   UNL     1      36.172 -19.757 -20.945  0.00  0.00    -0.050 C 
BRANCH  32  33
ATOM     33  N   UNL     1      35.284 -20.320 -19.928  0.00  0.00    +0.387 N 
ATOM     34  N   UNL     1      33.686 -22.445 -18.793  0.00  0.00    +0.383 N 
ATOM     35  C   UNL     1      35.908 -21.475 -19.272  0.00  0.00    -0.100 C 
ATOM     36  C   UNL     1      33.994 -20.699 -20.516  0.00  0.00    -0.100 C 
ATOM     37  C   UNL     1      34.977 -22.065 -18.207  0.00  0.00    -0.101 C 
ATOM     38  C   UNL     1      33.062 -21.290 -19.452  0.00  0.00    -0.101 C 
ATOM     39  C   UNL     1      32.799 -23.004 -17.776  0.00  0.00    -0.101 C 
ATOM     40  H   UNL     1      35.118 -19.600 -19.224  0.00  0.00    -0.079 HD
ATOM     41  H   UNL     1      33.852 -23.164 -19.496  0.00  0.00    -0.080 HD
ENDBRANCH  32  33
ENDBRANCH  26  32
ENDBRANCH  24  31
ENDBRANCH   1  23
TORSDOF 6
ENDMDL
MODEL 3
REMARK VINA RESULT:     -11.7      2.377      5.117
REMARK  Name = 5291
REMARK  6 active torsions:
REMARK  status: ('A' for Active; 'I' for Inactive)
REMARK    1  A    between atoms: C_1  and  N_23
REMARK    2  A    between atoms: C_2  and  N_8
REMARK    3  A    between atoms: C_12  and  C_17
REMARK    4  A    between atoms: C_24  and  C_31
REMARK    5  A    between atoms: C_26  and  C_32
REMARK    6  A    between atoms: C_32  and  N_33
REMARK                            x       y       z     vdW  Elec       q    Type
REMARK                         _______ _______ _______ _____ _____    ______ ____
ROOT
ATOM      1  C   UNL     1      34.544 -19.198 -21.691  0.00  0.00    +0.052 C 
ATOM      2  C   UNL     1      33.876 -18.408 -23.854  0.00  0.00    +0.055 C 
ATOM      3  C   UNL     1      33.715 -19.301 -22.796  0.00  0.00    +0.030 C 
ATOM      4  C   UNL     1      34.865 -17.426 -23.793  0.00  0.00    -0.008 C 
ATOM      5  C   UNL     1      35.530 -18.230 -21.615  0.00  0.00    +0.014 C 
ATOM      6  C   UNL     1      35.692 -17.337 -22.674  0.00  0.00    -0.002 C 
ATOM      7  C   UNL     1      35.061 -16.457 -24.914  0.00  0.00    +0.032 C 
ENDROOT
BRANCH   2   8
ATOM      8  N   UNL     1      33.030 -18.511 -24.980  0.00  0.00    -0.248 N 
ATOM      9  N   UNL     1      32.940 -16.282 -25.710  0.00  0.00    -0.337 NA
ATOM     10  N   UNL     1      31.739 -18.016 -26.876  0.00  0.00    -0.170 NA
ATOM     11  C   UNL     1      32.548 -17.560 -25.898  0.00  0.00    +0.149 C 
ATOM     12  C   UNL     1      32.458 -15.396 -26.606  0.00  0.00    +0.147 C 
ATOM     13  C   UNL     1      31.625 -15.739 -27.651  0.00  0.00    +0.055 C 
ATOM     14  C   UNL     1      31.294 -17.076 -27.738  0.00  0.00    +0.114 C 
ATOM     15  H   UNL     1      32.718 -19.427 -25.159  0.00  0.00    +0.165 HD
BRANCH  12  17
ATOM     16  N   UNL     1      33.265 -12.191 -24.883  0.00  0.00    -0.242 NA
ATOM     17  C   UNL     1      32.879 -14.031 -26.405  0.00  0.00    +0.050 C 
ATOM     18  C   UNL     1      33.295 -13.242 -27.473  0.00  0.00    +0.006 C 
ATOM     19  C   UNL     1      32.883 -13.462 -25.141  0.00  0.00    +0.101 C 
ATOM     20  C   UNL     1      33.694 -11.930 -27.248  0.00  0.00    +0.021 C 
ATOM     21  C   UNL     1      33.662 -11.457 -25.946  0.00  0.00    +0.099 C 
ENDBRANCH  12  17
ENDBRANCH   2   8
BRANCH   1  23
ATOM     22  O   UNL     1      32.093 -20.623 -20.715  0.00  0.00    -0.270 OA
ATOM     23  N   UNL     1      34.380 -20.104 -20.616  0.00  0.00    -0.280 N 
ATOM     24  C   UNL     1      33.211 -20.752 -20.190  0.00  0.00    +0.249 C 
ATOM     25  H   UNL     1      35.193 -20.307 -20.099  0.00  0.00    +0.155 HD
BRANCH  24  31
ATOM     26  C   UNL     1      33.612 -23.253 -16.803  0.00  0.00    -0.043 C 
ATOM     27  C   UNL     1      32.345 -22.930 -17.266  0.00  0.00    -0.006 C 
ATOM     28  C   UNL     1      34.750 -22.768 -17.433  0.00  0.00    -0.006 C 
ATOM     29  C   UNL     1      32.213 -22.106 -18.384  0.00  0.00    +0.004 C 
ATOM     30  C   UNL     1      34.618 -21.944 -18.550  0.00  0.00    +0.004 C 
ATOM     31  C   UNL     1      33.349 -21.613 -19.026  0.00  0.00    +0.054 C 
BRANCH  26  32
ATOM     32  C   UNL     1      33.756 -24.143 -15.597  0.00  0.00    -0.050 C 
BRANCH  32  33
ATOM     33  N   UNL     1      35.159 -24.405 -15.277  0.00  0.00    +0.387 N 
ATOM     34  N   UNL     1      37.264 -25.505 -13.630  0.00  0.00    +0.383 N 
ATOM     35  C   UNL     1      35.425 -25.848 -15.245  0.00  0.00    -0.100 C 
ATOM     36  C   UNL     1      35.526 -23.787 -13.998  0.00  0.00    -0.100 C 
ATOM     37  C   UNL     1      36.896 -26.123 -14.910  0.00  0.00    -0.101 C 
ATOM     38  C   UNL     1      36.995 -24.062 -13.660  0.00  0.00    -0.101 C 
ATOM     39  C   UNL     1      38.666 -25.766 -13.313  0.00  0.00    -0.101 C 
ATOM     40  H   UNL     1      35.731 -23.988 -16.012  0.00  0.00    -0.079 HD
ATOM     41  H   UNL     1      36.693 -25.922 -12.895  0.00  0.00    -0.080 HD
ENDBRANCH  32  33
ENDBRANCH  26  32
ENDBRANCH  24  31
ENDBRANCH   1  23
TORSDOF 6
ENDMDL
MODEL 4
REMARK VINA RESULT:     -11.6      4.124      8.446
REMARK  Name = 5291
REMARK  6 active torsions:
REMARK  status: ('A' for Active; 'I' for Inactive)
REMARK    1  A    between atoms: C_1  and  N_23
REMARK    2  A    between atoms: C_2  and  N_8
REMARK    3  A    between atoms: C_12  and  C_17
REMARK    4  A    between atoms: C_24  and  C_31
REMARK    5  A    between atoms: C_26  and  C_32
REMARK    6  A    between atoms: C_32  and  N_33
REMARK                            x       y       z     vdW  Elec       q    Type
REMARK                         _______ _______ _______ _____ _____    ______ ____
ROOT
ATOM      1  C   UNL     1      32.924  -7.837 -25.841  0.00  0.00    +0.052 C 
ATOM      2  C   UNL     1      32.667  -5.977 -24.351  0.00  0.00    +0.055 C 
ATOM      3  C   UNL     1      32.652  -7.353 -24.572  0.00  0.00    +0.030 C 
ATOM      4  C   UNL     1      32.954  -5.104 -25.401  0.00  0.00    -0.008 C 
ATOM      5  C   UNL     1      33.211  -6.986 -26.893  0.00  0.00    +0.014 C 
ATOM      6  C   UNL     1      33.225  -5.609 -26.672  0.00  0.00    -0.002 C 
ATOM      7  C   UNL     1      32.976  -3.625 -25.192  0.00  0.00    +0.032 C 
ENDROOT
BRANCH   2   8
ATOM      8  N   UNL     1      32.391  -5.482 -23.057  0.00  0.00    -0.248 N 
ATOM      9  N   UNL     1      32.018  -7.466 -21.859  0.00  0.00    -0.337 NA
ATOM     10  N   UNL     1      31.869  -5.319 -20.774  0.00  0.00    -0.170 NA
ATOM     11  C   UNL     1      32.079  -6.118 -21.841  0.00  0.00    +0.149 C 
ATOM     12  C   UNL     1      31.716  -8.043 -20.678  0.00  0.00    +0.147 C 
ATOM     13  C   UNL     1      31.481  -7.335 -19.517  0.00  0.00    +0.055 C 
ATOM     14  C   UNL     1      31.571  -5.963 -19.626  0.00  0.00    +0.114 C 
ATOM     15  H   UNL     1      32.424  -4.500 -22.993  0.00  0.00    +0.165 HD
BRANCH  12  17
ATOM     16  N   UNL     1      31.556 -11.530 -21.987  0.00  0.00    -0.242 NA
ATOM     17  C   UNL     1      31.653  -9.485 -20.699  0.00  0.00    +0.050 C 
ATOM     18  C   UNL     1      31.629 -10.219 -19.518  0.00  0.00    +0.006 C 
ATOM     19  C   UNL     1      31.615 -10.182 -21.896  0.00  0.00    +0.101 C 
ATOM     20  C   UNL     1      31.568 -11.607 -19.570  0.00  0.00    +0.021 C 
ATOM     21  C   UNL     1      31.534 -12.209 -20.818  0.00  0.00    +0.099 C 
ENDBRANCH  12  17
ENDBRANCH   2   8
BRANCH   1  23
ATOM     22  O   UNL     1      35.192  -9.784 -26.084  0.00  0.00    -0.270 OA
ATOM     23  N   UNL     1      32.910  -9.235 -26.065  0.00  0.00    -0.280 N 
ATOM     24  C   UNL     1      33.998 -10.114 -26.173  0.00  0.00    +0.249 C 
ATOM     25  H   UNL     1      32.019  -9.645 -26.158  0.00  0.00    +0.155 HD
BRANCH  24  31
ATOM     26  C   UNL     1      33.031 -14.160 -26.938  0.00  0.00    -0.043 C 
ATOM     27  C   UNL     1      33.696 -13.422 -27.907  0.00  0.00    -0.006 C 
ATOM     28  C   UNL     1      32.680 -13.591 -25.722  0.00  0.00    -0.006 C 
ATOM     29  C   UNL     1      34.015 -12.088 -27.654  0.00  0.00    +0.004 C 
ATOM     30  C   UNL     1      32.999 -12.257 -25.469  0.00  0.00    +0.004 C 
ATOM     31  C   UNL     1      33.667 -11.505 -26.435  0.00  0.00    +0.054 C 
BRANCH  26  32
ATOM     32  C   UNL     1      32.687 -15.601 -27.209  0.00  0.00    -0.050 C 
BRANCH  32  33
ATOM     33  N   UNL     1      32.959 -16.453 -26.052  0.00  0.00    +0.387 N 
ATOM     34  N   UNL     1      34.317 -18.627 -24.715  0.00  0.00    +0.383 N 
ATOM     35  C   UNL     1      34.361 -16.333 -25.634  0.00  0.00    -0.100 C 
ATOM     36  C   UNL     1      32.630 -17.852 -26.347  0.00  0.00    -0.100 C 
ATOM     37  C   UNL     1      34.647 -17.227 -24.422  0.00  0.00    -0.101 C 
ATOM     38  C   UNL     1      32.915 -18.747 -25.136  0.00  0.00    -0.101 C 
ATOM     39  C   UNL     1      34.587 -19.477 -23.559  0.00  0.00    -0.101 C 
ATOM     40  H   UNL     1      32.367 -16.137 -25.285  0.00  0.00    -0.079 HD
ATOM     41  H   UNL     1      34.910 -18.942 -25.483  0.00  0.00    -0.080 HD
ENDBRANCH  32  33
ENDBRANCH  26  32
ENDBRANCH  24  31
ENDBRANCH   1  23
TORSDOF 6
ENDMDL
MODEL 5
REMARK VINA RESULT:     -11.6      2.277     11.695
REMARK  Name = 5291
REMARK  6 active torsions:
REMARK  status: ('A' for Active; 'I' for Inactive)
REMARK    1  A    between atoms: C_1  and  N_23
REMARK    2  A    between atoms: C_2  and  N_8
REMARK    3  A    between atoms: C_12  and  C_17
REMARK    4  A    between atoms: C_24  and  C_31
REMARK    5  A    between atoms: C_26  and  C_32
REMARK    6  A    between atoms: C_32  and  N_33
REMARK                            x       y       z     vdW  Elec       q    Type
REMARK                         _______ _______ _______ _____ _____    ______ ____
ROOT
ATOM      1  C   UNL     1      33.869 -20.174 -20.482  0.00  0.00    +0.052 C 
ATOM      2  C   UNL     1      32.714 -21.771 -19.116  0.00  0.00    +0.055 C 
ATOM      3  C   UNL     1      32.736 -20.543 -19.776  0.00  0.00    +0.030 C 
ATOM      4  C   UNL     1      33.826 -22.612 -19.171  0.00  0.00    -0.008 C 
ATOM      5  C   UNL     1      34.980 -20.996 -20.546  0.00  0.00    +0.014 C 
ATOM      6  C   UNL     1      34.959 -22.224 -19.885  0.00  0.00    -0.002 C 
ATOM      7  C   UNL     1      33.831 -23.932 -18.472  0.00  0.00    +0.032 C 
ENDROOT
BRANCH   2   8
ATOM      8  N   UNL     1      31.559 -22.150 -18.397  0.00  0.00    -0.248 N 
ATOM      9  N   UNL     1      32.483 -22.887 -16.369  0.00  0.00    -0.337 NA
ATOM     10  N   UNL     1      30.101 -22.930 -16.732  0.00  0.00    -0.170 NA
ATOM     11  C   UNL     1      31.372 -22.679 -17.107  0.00  0.00    +0.149 C 
ATOM     12  C   UNL     1      32.268 -23.396 -15.139  0.00  0.00    +0.147 C 
ATOM     13  C   UNL     1      31.016 -23.694 -14.641  0.00  0.00    +0.055 C 
ATOM     14  C   UNL     1      29.959 -23.438 -15.489  0.00  0.00    +0.114 C 
ATOM     15  H   UNL     1      30.720 -22.015 -18.895  0.00  0.00    +0.165 HD
BRANCH  12  17
ATOM     16  N   UNL     1      34.453 -24.395 -12.290  0.00  0.00    -0.242 NA
ATOM     17  C   UNL     1      33.457 -23.616 -14.351  0.00  0.00    +0.050 C 
ATOM     18  C   UNL     1      34.716 -23.288 -14.843  0.00  0.00    +0.006 C 
ATOM     19  C   UNL     1      33.381 -24.163 -13.080  0.00  0.00    +0.101 C 
ATOM     20  C   UNL     1      35.842 -23.511 -14.060  0.00  0.00    +0.021 C 
ATOM     21  C   UNL     1      35.659 -24.063 -12.802  0.00  0.00    +0.099 C 
ENDBRANCH  12  17
ENDBRANCH   2   8
BRANCH   1  23
ATOM     22  O   UNL     1      36.004 -18.072 -20.597  0.00  0.00    -0.270 OA
ATOM     23  N   UNL     1      33.890 -18.928 -21.153  0.00  0.00    -0.280 N 
ATOM     24  C   UNL     1      34.913 -17.968 -21.182  0.00  0.00    +0.249 C 
ATOM     25  H   UNL     1      33.081 -18.704 -21.667  0.00  0.00    +0.155 HD
BRANCH  24  31
ATOM     26  C   UNL     1      34.089 -14.459 -23.395  0.00  0.00    -0.043 C 
ATOM     27  C   UNL     1      34.278 -14.373 -22.023  0.00  0.00    -0.006 C 
ATOM     28  C   UNL     1      34.166 -15.679 -24.052  0.00  0.00    -0.006 C 
ATOM     29  C   UNL     1      34.551 -15.530 -21.294  0.00  0.00    +0.004 C 
ATOM     30  C   UNL     1      34.438 -16.837 -23.323  0.00  0.00    +0.004 C 
ATOM     31  C   UNL     1      34.631 -16.762 -21.944  0.00  0.00    +0.054 C 
BRANCH  26  32
ATOM     32  C   UNL     1      33.796 -13.211 -24.184  0.00  0.00    -0.050 C 
BRANCH  32  33
ATOM     33  N   UNL     1      33.369 -12.109 -23.321  0.00  0.00    +0.387 N 
ATOM     34  N   UNL     1      31.602  -9.938 -22.599  0.00  0.00    +0.383 N 
ATOM     35  C   UNL     1      32.033 -12.366 -22.772  0.00  0.00    -0.100 C 
ATOM     36  C   UNL     1      33.387 -10.838 -24.053  0.00  0.00    -0.100 C 
ATOM     37  C   UNL     1      31.585 -11.211 -21.868  0.00  0.00    -0.101 C 
ATOM     38  C   UNL     1      32.939  -9.682 -23.152  0.00  0.00    -0.101 C 
ATOM     39  C   UNL     1      31.178  -8.839 -21.736  0.00  0.00    -0.101 C 
ATOM     40  H   UNL     1      34.029 -12.044 -22.546  0.00  0.00    -0.079 HD
ATOM     41  H   UNL     1      30.942 -10.003 -23.374  0.00  0.00    -0.080 HD
ENDBRANCH  32  33
ENDBRANCH  26  32
ENDBRANCH  24  31
ENDBRANCH   1  23
TORSDOF 6
ENDMDL
MODEL 6
REMARK VINA RESULT:     -11.4      2.845      6.405
REMARK  Name = 5291
REMARK  6 active torsions:
REMARK  status: ('A' for Active; 'I' for Inactive)
REMARK    1  A    between atoms: C_1  and  N_23
REMARK    2  A    between atoms: C_2  and  N_8
REMARK    3  A    between atoms: C_12  and  C_17
REMARK    4  A    between atoms: C_24  and  C_31
REMARK    5  A    between atoms: C_26  and  C_32
REMARK    6  A    between atoms: C_32  and  N_33
REMARK                            x       y       z     vdW  Elec       q    Type
REMARK                         _______ _______ _______ _____ _____    ______ ____
ROOT
ATOM      1  C   UNL     1      34.230  -9.784 -25.935  0.00  0.00    +0.052 C 
ATOM      2  C   UNL     1      33.418  -7.537 -25.733  0.00  0.00    +0.055 C 
ATOM      3  C   UNL     1      33.314  -8.889 -25.408  0.00  0.00    +0.030 C 
ATOM      4  C   UNL     1      34.435  -7.100 -26.582  0.00  0.00    -0.008 C 
ATOM      5  C   UNL     1      35.245  -9.367 -26.779  0.00  0.00    +0.014 C 
ATOM      6  C   UNL     1      35.348  -8.015 -27.105  0.00  0.00    -0.002 C 
ATOM      7  C   UNL     1      34.569  -5.658 -26.949  0.00  0.00    +0.032 C 
ENDROOT
BRANCH   2   8
ATOM      8  N   UNL     1      32.485  -6.623 -25.195  0.00  0.00    -0.248 N 
ATOM      9  N   UNL     1      31.911  -7.667 -23.173  0.00  0.00    -0.337 NA
ATOM     10  N   UNL     1      30.924  -5.560 -23.801  0.00  0.00    -0.170 NA
ATOM     11  C   UNL     1      31.739  -6.616 -24.002  0.00  0.00    +0.149 C 
ATOM     12  C   UNL     1      31.180  -7.630 -22.040  0.00  0.00    +0.147 C 
ATOM     13  C   UNL     1      30.313  -6.605 -21.721  0.00  0.00    +0.055 C 
ATOM     14  C   UNL     1      30.224  -5.587 -22.648  0.00  0.00    +0.114 C 
ATOM     15  H   UNL     1      32.327  -5.836 -25.765  0.00  0.00    +0.165 HD
BRANCH  12  17
ATOM     16  N   UNL     1      32.339  -9.649 -19.129  0.00  0.00    -0.242 NA
ATOM     17  C   UNL     1      31.365  -8.753 -21.154  0.00  0.00    +0.050 C 
ATOM     18  C   UNL     1      30.785  -9.988 -21.428  0.00  0.00    +0.006 C 
ATOM     19  C   UNL     1      32.126  -8.638 -20.001  0.00  0.00    +0.101 C 
ATOM     20  C   UNL     1      30.981 -11.052 -20.556  0.00  0.00    +0.021 C 
ATOM     21  C   UNL     1      31.759 -10.833 -19.430  0.00  0.00    +0.099 C 
ENDBRANCH  12  17
ENDBRANCH   2   8
BRANCH   1  23
ATOM     22  O   UNL     1      33.135 -11.105 -23.477  0.00  0.00    -0.270 OA
ATOM     23  N   UNL     1      34.125 -11.156 -25.604  0.00  0.00    -0.280 N 
ATOM     24  C   UNL     1      33.604 -11.736 -24.438  0.00  0.00    +0.249 C 
ATOM     25  H   UNL     1      34.462 -11.787 -26.281  0.00  0.00    +0.155 HD
BRANCH  24  31
ATOM     26  C   UNL     1      33.753 -15.959 -24.247  0.00  0.00    -0.043 C 
ATOM     27  C   UNL     1      33.261 -15.344 -25.389  0.00  0.00    -0.006 C 
ATOM     28  C   UNL     1      34.197 -15.210 -23.166  0.00  0.00    -0.006 C 
ATOM     29  C   UNL     1      33.212 -13.952 -25.452  0.00  0.00    +0.004 C 
ATOM     30  C   UNL     1      34.149 -13.817 -23.229  0.00  0.00    +0.004 C 
ATOM     31  C   UNL     1      33.657 -13.188 -24.372  0.00  0.00    +0.054 C 
BRANCH  26  32
ATOM     32  C   UNL     1      33.807 -17.462 -24.178  0.00  0.00    -0.050 C 
BRANCH  32  33
ATOM     33  N   UNL     1      34.331 -17.930 -22.896  0.00  0.00    +0.387 N 
ATOM     34  N   UNL     1      35.538 -19.916 -21.176  0.00  0.00    +0.383 N 
ATOM     35  C   UNL     1      35.754 -18.270 -23.007  0.00  0.00    -0.100 C 
ATOM     36  C   UNL     1      33.564 -19.084 -22.410  0.00  0.00    -0.100 C 
ATOM     37  C   UNL     1      36.303 -18.762 -21.663  0.00  0.00    -0.101 C 
ATOM     38  C   UNL     1      34.113 -19.578 -21.067  0.00  0.00    -0.101 C 
ATOM     39  C   UNL     1      36.061 -20.382 -19.894  0.00  0.00    -0.101 C 
ATOM     40  H   UNL     1      34.232 -17.172 -22.221  0.00  0.00    -0.079 HD
ATOM     41  H   UNL     1      35.636 -20.675 -21.850  0.00  0.00    -0.080 HD
ENDBRANCH  32  33
ENDBRANCH  26  32
ENDBRANCH  24  31
ENDBRANCH   1  23
TORSDOF 6
ENDMDL
MODEL 7
REMARK VINA RESULT:     -11.2      4.088      7.633
REMARK  Name = 5291
REMARK  6 active torsions:
REMARK  status: ('A' for Active; 'I' for Inactive)
REMARK    1  A    between atoms: C_1  and  N_23
REMARK    2  A    between atoms: C_2  and  N_8
REMARK    3  A    between atoms: C_12  and  C_17
REMARK    4  A    between atoms: C_24  and  C_31
REMARK    5  A    between atoms: C_26  and  C_32
REMARK    6  A    between atoms: C_32  and  N_33
REMARK                            x       y       z     vdW  Elec       q    Type
REMARK                         _______ _______ _______ _____ _____    ______ ____
ROOT
ATOM      1  C   UNL     1      33.052  -9.632 -24.005  0.00  0.00    +0.052 C 
ATOM      2  C   UNL     1      32.175  -7.751 -25.203  0.00  0.00    +0.055 C 
ATOM      3  C   UNL     1      32.473  -9.111 -25.150  0.00  0.00    +0.030 C 
ATOM      4  C   UNL     1      32.459  -6.931 -24.111  0.00  0.00    -0.008 C 
ATOM      5  C   UNL     1      33.341  -8.833 -22.912  0.00  0.00    +0.014 C 
ATOM      6  C   UNL     1      33.043  -7.472 -22.966  0.00  0.00    -0.002 C 
ATOM      7  C   UNL     1      32.151  -5.469 -24.141  0.00  0.00    +0.032 C 
ENDROOT
BRANCH   2   8
ATOM      8  N   UNL     1      31.583  -7.218 -26.370  0.00  0.00    -0.248 N 
ATOM      9  N   UNL     1      33.473  -6.634 -27.634  0.00  0.00    -0.337 NA
ATOM     10  N   UNL     1      31.250  -6.251 -28.482  0.00  0.00    -0.170 NA
ATOM     11  C   UNL     1      32.126  -6.676 -27.550  0.00  0.00    +0.149 C 
ATOM     12  C   UNL     1      33.960  -6.108 -28.777  0.00  0.00    +0.147 C 
ATOM     13  C   UNL     1      33.166  -5.640 -29.805  0.00  0.00    +0.055 C 
ATOM     14  C   UNL     1      31.805  -5.737 -29.600  0.00  0.00    +0.114 C 
ATOM     15  H   UNL     1      30.599  -7.228 -26.356  0.00  0.00    +0.165 HD
BRANCH  12  17
ATOM     16  N   UNL     1      37.462  -4.887 -28.411  0.00  0.00    -0.242 NA
ATOM     17  C   UNL     1      35.399  -6.064 -28.867  0.00  0.00    +0.050 C 
ATOM     18  C   UNL     1      36.113  -7.098 -29.464  0.00  0.00    +0.006 C 
ATOM     19  C   UNL     1      36.115  -4.991 -28.360  0.00  0.00    +0.101 C 
ATOM     20  C   UNL     1      37.500  -7.027 -29.536  0.00  0.00    +0.021 C 
ATOM     21  C   UNL     1      38.121  -5.911 -28.999  0.00  0.00    +0.099 C 
ENDBRANCH  12  17
ENDBRANCH   2   8
BRANCH   1  23
ATOM     22  O   UNL     1      31.740 -11.843 -22.460  0.00  0.00    -0.270 OA
ATOM     23  N   UNL     1      33.354 -11.015 -23.950  0.00  0.00    -0.280 N 
ATOM     24  C   UNL     1      32.713 -12.021 -23.212  0.00  0.00    +0.249 C 
ATOM     25  H   UNL     1      34.113 -11.309 -24.503  0.00  0.00    +0.155 HD
BRANCH  24  31
ATOM     26  C   UNL     1      34.345 -15.905 -23.583  0.00  0.00    -0.043 C 
ATOM     27  C   UNL     1      34.542 -15.191 -22.410  0.00  0.00    -0.006 C 
ATOM     28  C   UNL     1      33.620 -15.364 -24.636  0.00  0.00    -0.006 C 
ATOM     29  C   UNL     1      34.003 -13.910 -22.288  0.00  0.00    +0.004 C 
ATOM     30  C   UNL     1      33.081 -14.084 -24.514  0.00  0.00    +0.004 C 
ATOM     31  C   UNL     1      33.272 -13.357 -23.339  0.00  0.00    +0.054 C 
BRANCH  26  32
ATOM     32  C   UNL     1      34.925 -17.288 -23.716  0.00  0.00    -0.050 C 
BRANCH  32  33
ATOM     33  N   UNL     1      34.870 -18.026 -22.455  0.00  0.00    +0.387 N 
ATOM     34  N   UNL     1      35.045 -20.437 -20.870  0.00  0.00    +0.383 N 
ATOM     35  C   UNL     1      36.165 -18.650 -22.159  0.00  0.00    -0.100 C 
ATOM     36  C   UNL     1      33.808 -19.038 -22.489  0.00  0.00    -0.100 C 
ATOM     37  C   UNL     1      36.107 -19.424 -20.837  0.00  0.00    -0.101 C 
ATOM     38  C   UNL     1      33.749 -19.813 -21.169  0.00  0.00    -0.101 C 
ATOM     39  C   UNL     1      34.989 -21.172 -19.609  0.00  0.00    -0.101 C 
ATOM     40  H   UNL     1      34.656 -17.360 -21.712  0.00  0.00    -0.079 HD
ATOM     41  H   UNL     1      35.259 -21.103 -21.613  0.00  0.00    -0.080 HD
ENDBRANCH  32  33
ENDBRANCH  26  32
ENDBRANCH  24  31
ENDBRANCH   1  23
TORSDOF 6
ENDMDL
MODEL 8
REMARK VINA RESULT:     -11.2      3.536      7.437
REMARK  Name = 5291
REMARK  6 active torsions:
REMARK  status: ('A' for Active; 'I' for Inactive)
REMARK    1  A    between atoms: C_1  and  N_23
REMARK    2  A    between atoms: C_2  and  N_8
REMARK    3  A    between atoms: C_12  and  C_17
REMARK    4  A    between atoms: C_24  and  C_31
REMARK    5  A    between atoms: C_26  and  C_32
REMARK    6  A    between atoms: C_32  and  N_33
REMARK                            x       y       z     vdW  Elec       q    Type
REMARK                         _______ _______ _______ _____ _____    ______ ____
ROOT
ATOM      1  C   UNL     1      32.002  -9.896 -22.216  0.00  0.00    +0.052 C 
ATOM      2  C   UNL     1      30.896  -7.847 -22.784  0.00  0.00    +0.055 C 
ATOM      3  C   UNL     1      31.316  -9.127 -23.141  0.00  0.00    +0.030 C 
ATOM      4  C   UNL     1      31.167  -7.354 -21.507  0.00  0.00    -0.008 C 
ATOM      5  C   UNL     1      32.279  -9.423 -20.945  0.00  0.00    +0.014 C 
ATOM      6  C   UNL     1      31.859  -8.142 -20.589  0.00  0.00    -0.002 C 
ATOM      7  C   UNL     1      30.729  -5.985 -21.098  0.00  0.00    +0.032 C 
ENDROOT
BRANCH   2   8
ATOM      8  N   UNL     1      30.195  -7.061 -23.726  0.00  0.00    -0.248 N 
ATOM      9  N   UNL     1      31.762  -6.900 -25.467  0.00  0.00    -0.337 NA
ATOM     10  N   UNL     1      29.605  -5.840 -25.642  0.00  0.00    -0.170 NA
ATOM     11  C   UNL     1      30.536  -6.578 -25.004  0.00  0.00    +0.149 C 
ATOM     12  C   UNL     1      32.056  -6.421 -26.693  0.00  0.00    +0.147 C 
ATOM     13  C   UNL     1      31.188  -5.655 -27.445  0.00  0.00    +0.055 C 
ATOM     14  C   UNL     1      29.965  -5.393 -26.863  0.00  0.00    +0.114 C 
ATOM     15  H   UNL     1      29.293  -6.802 -23.433  0.00  0.00    +0.165 HD
BRANCH  12  17
ATOM     16  N   UNL     1      35.139  -6.379 -28.787  0.00  0.00    -0.242 NA
ATOM     17  C   UNL     1      33.367  -6.767 -27.188  0.00  0.00    +0.050 C 
ATOM     18  C   UNL     1      34.117  -7.774 -26.591  0.00  0.00    +0.006 C 
ATOM     19  C   UNL     1      33.919  -6.105 -28.273  0.00  0.00    +0.101 C 
ATOM     20  C   UNL     1      35.377  -8.085 -27.090  0.00  0.00    +0.021 C 
ATOM     21  C   UNL     1      35.838  -7.364 -28.180  0.00  0.00    +0.099 C 
ENDBRANCH  12  17
ENDBRANCH   2   8
BRANCH   1  23
ATOM     22  O   UNL     1      33.770 -10.801 -24.463  0.00  0.00    -0.270 OA
ATOM     23  N   UNL     1      32.428 -11.197 -22.578  0.00  0.00    -0.280 N 
ATOM     24  C   UNL     1      33.259 -11.580 -23.642  0.00  0.00    +0.249 C 
ATOM     25  H   UNL     1      32.098 -11.930 -22.009  0.00  0.00    +0.155 HD
BRANCH  24  31
ATOM     26  C   UNL     1      33.963 -15.731 -24.038  0.00  0.00    -0.043 C 
ATOM     27  C   UNL     1      34.332 -15.085 -22.867  0.00  0.00    -0.006 C 
ATOM     28  C   UNL     1      33.366 -15.037 -25.081  0.00  0.00    -0.006 C 
ATOM     29  C   UNL     1      34.100 -13.716 -22.737  0.00  0.00    +0.004 C 
ATOM     30  C   UNL     1      33.133 -13.668 -24.950  0.00  0.00    +0.004 C 
ATOM     31  C   UNL     1      33.500 -13.007 -23.778  0.00  0.00    +0.054 C 
BRANCH  26  32
ATOM     32  C   UNL     1      34.212 -17.209 -24.180  0.00  0.00    -0.050 C 
BRANCH  32  33
ATOM     33  N   UNL     1      34.439 -17.850 -22.886  0.00  0.00    +0.387 N 
ATOM     34  N   UNL     1      35.209 -20.080 -21.214  0.00  0.00    +0.383 N 
ATOM     35  C   UNL     1      35.847 -18.241 -22.737  0.00  0.00    -0.100 C 
ATOM     36  C   UNL     1      33.563 -19.016 -22.721  0.00  0.00    -0.100 C 
ATOM     37  C   UNL     1      36.085 -18.914 -21.381  0.00  0.00    -0.101 C 
ATOM     38  C   UNL     1      33.801 -19.691 -21.365  0.00  0.00    -0.101 C 
ATOM     39  C   UNL     1      35.436 -20.718 -19.920  0.00  0.00    -0.101 C 
ATOM     40  H   UNL     1      34.215 -17.173 -22.157  0.00  0.00    -0.079 HD
ATOM     41  H   UNL     1      35.434 -20.757 -21.943  0.00  0.00    -0.080 HD
ENDBRANCH  32  33
ENDBRANCH  26  32
ENDBRANCH  24  31
ENDBRANCH   1  23
TORSDOF 6
ENDMDL
MODEL 9
REMARK VINA RESULT:     -11.0      2.044      5.237
REMARK  Name = 5291
REMARK  6 active torsions:
REMARK  status: ('A' for Active; 'I' for Inactive)
REMARK    1  A    between atoms: C_1  and  N_23
REMARK    2  A    between atoms: C_2  and  N_8
REMARK    3  A    between atoms: C_12  and  C_17
REMARK    4  A    between atoms: C_24  and  C_31
REMARK    5  A    between atoms: C_26  and  C_32
REMARK    6  A    between atoms: C_32  and  N_33
REMARK                            x       y       z     vdW  Elec       q    Type
REMARK                         _______ _______ _______ _____ _____    ______ ____
ROOT
ATOM      1  C   UNL     1      32.376 -12.120 -21.088  0.00  0.00    +0.052 C 
ATOM      2  C   UNL     1      32.036  -9.904 -21.938  0.00  0.00    +0.055 C 
ATOM      3  C   UNL     1      32.613 -11.167 -22.065  0.00  0.00    +0.030 C 
ATOM      4  C   UNL     1      31.230  -9.613 -20.837  0.00  0.00    -0.008 C 
ATOM      5  C   UNL     1      31.579 -11.848 -19.990  0.00  0.00    +0.014 C 
ATOM      6  C   UNL     1      31.003 -10.584 -19.863  0.00  0.00    -0.002 C 
ATOM      7  C   UNL     1      30.601  -8.267 -20.675  0.00  0.00    +0.032 C 
ENDROOT
BRANCH   2   8
ATOM      8  N   UNL     1      32.276  -8.931 -22.934  0.00  0.00    -0.248 N 
ATOM      9  N   UNL     1      32.738 -10.272 -24.804  0.00  0.00    -0.337 NA
ATOM     10  N   UNL     1      32.769  -7.868 -24.966  0.00  0.00    -0.170 NA
ATOM     11  C   UNL     1      32.609  -9.028 -24.297  0.00  0.00    +0.149 C 
ATOM     12  C   UNL     1      33.059 -10.328 -26.113  0.00  0.00    +0.147 C 
ATOM     13  C   UNL     1      33.248  -9.213 -26.904  0.00  0.00    +0.055 C 
ATOM     14  C   UNL     1      33.090  -7.997 -26.271  0.00  0.00    +0.114 C 
ATOM     15  H   UNL     1      32.192  -8.005 -22.611  0.00  0.00    +0.165 HD
BRANCH  12  17
ATOM     16  N   UNL     1      34.312 -13.162 -28.185  0.00  0.00    -0.242 NA
ATOM     17  C   UNL     1      33.195 -11.659 -26.654  0.00  0.00    +0.050 C 
ATOM     18  C   UNL     1      32.391 -12.702 -26.207  0.00  0.00    +0.006 C 
ATOM     19  C   UNL     1      34.133 -11.939 -27.636  0.00  0.00    +0.101 C 
ATOM     20  C   UNL     1      32.545 -13.973 -26.747  0.00  0.00    +0.021 C 
ATOM     21  C   UNL     1      33.512 -14.149 -27.725  0.00  0.00    +0.099 C 
ENDBRANCH  12  17
ENDBRANCH   2   8
BRANCH   1  23
ATOM     22  O   UNL     1      34.166 -13.227 -23.224  0.00  0.00    -0.270 OA
ATOM     23  N   UNL     1      32.961 -13.403 -21.217  0.00  0.00    -0.280 N 
ATOM     24  C   UNL     1      33.797 -13.883 -22.236  0.00  0.00    +0.249 C 
ATOM     25  H   UNL     1      32.754 -14.042 -20.498  0.00  0.00    +0.155 HD
BRANCH  24  31
ATOM     26  C   UNL     1      35.033 -17.911 -21.864  0.00  0.00    -0.043 C 
ATOM     27  C   UNL     1      34.708 -17.410 -23.117  0.00  0.00    -0.006 C 
ATOM     28  C   UNL     1      34.958 -17.112 -20.732  0.00  0.00    -0.006 C 
ATOM     29  C   UNL     1      34.301 -16.081 -23.239  0.00  0.00    +0.004 C 
ATOM     30  C   UNL     1      34.551 -15.784 -20.855  0.00  0.00    +0.004 C 
ATOM     31  C   UNL     1      34.223 -15.268 -22.108  0.00  0.00    +0.054 C 
BRANCH  26  32
ATOM     32  C   UNL     1      35.473 -19.345 -21.731  0.00  0.00    -0.050 C 
BRANCH  32  33
ATOM     33  N   UNL     1      34.883 -19.989 -20.558  0.00  0.00    +0.387 N 
ATOM     34  N   UNL     1      33.696 -22.233 -19.175  0.00  0.00    +0.383 N 
ATOM     35  C   UNL     1      35.694 -21.136 -20.131  0.00  0.00    -0.100 C 
ATOM     36  C   UNL     1      33.504 -20.409 -20.833  0.00  0.00    -0.100 C 
ATOM     37  C   UNL     1      35.076 -21.812 -18.902  0.00  0.00    -0.101 C 
ATOM     38  C   UNL     1      32.885 -21.087 -19.605  0.00  0.00    -0.101 C 
ATOM     39  C   UNL     1      33.108 -22.875 -18.002  0.00  0.00    -0.101 C 
ATOM     40  H   UNL     1      34.867 -19.307 -19.801  0.00  0.00    -0.079 HD
ATOM     41  H   UNL     1      33.712 -22.916 -19.932  0.00  0.00    -0.080 HD
ENDBRANCH  32  33
ENDBRANCH  26  32
ENDBRANCH  24  31
ENDBRANCH   1  23
TORSDOF 6
ENDMDL
