MODEL 1
REMARK VINA RESULT:     -12.7      0.000      0.000
REMARK  Name = 46911863
REMARK  3 active torsions:
REMARK  status: ('A' for Active; 'I' for Inactive)
REMARK    1  A    between atoms: C_5  and  C_18
REMARK    2  A    between atoms: C_7  and  C_12
REMARK    3  A    between atoms: C_18  and  C_20
REMARK                            x       y       z     vdW  Elec       q    Type
REMARK                         _______ _______ _______ _____ _____    ______ ____
ROOT
ATOM      1  N   UNL     1      34.095 -22.034 -18.470  0.00  0.00    -0.190 N 
ATOM      2  N   UNL     1      35.159 -22.414 -17.721  0.00  0.00    -0.162 NA
ATOM      3  N   UNL     1      32.892 -21.113 -20.053  0.00  0.00    -0.126 NA
ATOM      4  N   UNL     1      32.037 -21.765 -19.188  0.00  0.00    -0.127 NA
ATOM      5  C   UNL     1      34.117 -21.285 -19.609  0.00  0.00    +0.228 A 
ATOM      6  C   UNL     1      32.767 -22.315 -18.241  0.00  0.00    +0.187 A 
ATOM      7  C   UNL     1      34.842 -23.122 -16.674  0.00  0.00    +0.104 C 
ATOM      8  C   UNL     1      32.455 -23.096 -17.111  0.00  0.00    +0.042 C 
ATOM      9  C   UNL     1      33.442 -23.519 -16.312  0.00  0.00    +0.024 C 
ENDROOT
BRANCH   7  12
ATOM     10  N   UNL     1      37.055 -24.731 -14.287  0.00  0.00    -0.208 N 
ATOM     11  N   UNL     1      37.920 -23.779 -14.680  0.00  0.00    -0.176 NA
ATOM     12  C   UNL     1      35.922 -23.596 -15.770  0.00  0.00    +0.056 C 
ATOM     13  C   UNL     1      35.844 -24.665 -14.910  0.00  0.00    +0.087 C 
ATOM     14  C   UNL     1      37.222 -23.089 -15.585  0.00  0.00    +0.121 C 
ATOM     15  C   UNL     1      37.455 -25.697 -13.292  0.00  0.00    +0.140 C 
ENDBRANCH   7  12
BRANCH   5  18
ATOM     16  F   UNL     1      36.083 -21.782 -20.852  0.00  0.00    -0.191 F 
ATOM     17  F   UNL     1      36.286 -20.387 -19.229  0.00  0.00    -0.191 F 
ATOM     18  C   UNL     1      35.406 -20.749 -20.232  0.00  0.00    +0.335 C 
BRANCH  18  20
ATOM     19  N   UNL     1      34.418 -16.438 -23.762  0.00  0.00    -0.244 NA
ATOM     20  C   UNL     1      35.143 -19.620 -21.169  0.00  0.00    +0.045 C 
ATOM     21  C   UNL     1      34.759 -19.875 -22.482  0.00  0.00    +0.003 C 
ATOM     22  C   UNL     1      34.511 -18.813 -23.369  0.00  0.00    +0.018 C 
ATOM     23  C   UNL     1      35.281 -18.307 -20.738  0.00  0.00    +0.003 C 
ATOM     24  C   UNL     1      34.648 -17.478 -22.938  0.00  0.00    +0.081 C 
ATOM     25  C   UNL     1      35.034 -17.252 -21.620  0.00  0.00    +0.019 C 
ATOM     26  C   UNL     1      34.122 -19.042 -24.696  0.00  0.00    +0.003 C 
ATOM     27  C   UNL     1      33.884 -17.972 -25.547  0.00  0.00    +0.021 C 
ATOM     28  C   UNL     1      34.044 -16.701 -25.035  0.00  0.00    +0.099 C 
ENDBRANCH  18  20
ENDBRANCH   5  18
TORSDOF 3
ENDMDL
MODEL 2
REMARK VINA RESULT:     -12.6      2.895      9.657
REMARK  Name = 46911863
REMARK  3 active torsions:
REMARK  status: ('A' for Active; 'I' for Inactive)
REMARK    1  A    between atoms: C_5  and  C_18
REMARK    2  A    between atoms: C_7  and  C_12
REMARK    3  A    between atoms: C_18  and  C_20
REMARK                            x       y       z     vdW  Elec       q    Type
REMARK                         _______ _______ _______ _____ _____    ______ ____
ROOT
ATOM      1  N   UNL     1      34.097 -17.402 -24.392  0.00  0.00    -0.190 N 
ATOM      2  N   UNL     1      33.969 -16.151 -23.884  0.00  0.00    -0.162 NA
ATOM      3  N   UNL     1      34.596 -19.529 -24.575  0.00  0.00    -0.126 NA
ATOM      4  N   UNL     1      34.012 -19.120 -25.757  0.00  0.00    -0.127 NA
ATOM      5  C   UNL     1      34.637 -18.490 -23.771  0.00  0.00    +0.228 A 
ATOM      6  C   UNL     1      33.715 -17.843 -25.638  0.00  0.00    +0.187 A 
ATOM      7  C   UNL     1      33.420 -15.302 -24.706  0.00  0.00    +0.104 C 
ATOM      8  C   UNL     1      33.110 -16.907 -26.499  0.00  0.00    +0.042 C 
ATOM      9  C   UNL     1      32.940 -15.646 -26.084  0.00  0.00    +0.024 C 
ENDROOT
BRANCH   7  12
ATOM     10  N   UNL     1      33.032 -11.720 -24.260  0.00  0.00    -0.208 N 
ATOM     11  N   UNL     1      32.874 -12.052 -22.967  0.00  0.00    -0.176 NA
ATOM     12  C   UNL     1      33.230 -13.895 -24.268  0.00  0.00    +0.056 C 
ATOM     13  C   UNL     1      33.249 -12.787 -25.080  0.00  0.00    +0.087 C 
ATOM     14  C   UNL     1      32.996 -13.382 -22.978  0.00  0.00    +0.121 C 
ATOM     15  C   UNL     1      32.964 -10.334 -24.657  0.00  0.00    +0.140 C 
ENDBRANCH   7  12
BRANCH   5  18
ATOM     16  F   UNL     1      35.160 -17.149 -21.877  0.00  0.00    -0.191 F 
ATOM     17  F   UNL     1      36.555 -18.706 -22.381  0.00  0.00    -0.191 F 
ATOM     18  C   UNL     1      35.197 -18.448 -22.349  0.00  0.00    +0.335 C 
BRANCH  18  20
ATOM     19  N   UNL     1      32.437 -21.997 -18.914  0.00  0.00    -0.244 NA
ATOM     20  C   UNL     1      34.479 -19.386 -21.440  0.00  0.00    +0.045 C 
ATOM     21  C   UNL     1      35.193 -20.182 -20.549  0.00  0.00    +0.003 C 
ATOM     22  C   UNL     1      34.520 -21.067 -19.690  0.00  0.00    +0.018 C 
ATOM     23  C   UNL     1      33.093 -19.472 -21.478  0.00  0.00    +0.003 C 
ATOM     24  C   UNL     1      33.113 -21.159 -19.723  0.00  0.00    +0.081 C 
ATOM     25  C   UNL     1      32.425 -20.353 -20.625  0.00  0.00    +0.019 C 
ATOM     26  C   UNL     1      35.214 -21.879 -18.783  0.00  0.00    +0.003 C 
ATOM     27  C   UNL     1      34.520 -22.743 -17.948  0.00  0.00    +0.021 C 
ATOM     28  C   UNL     1      33.144 -22.764 -18.052  0.00  0.00    +0.099 C 
ENDBRANCH  18  20
ENDBRANCH   5  18
TORSDOF 3
ENDMDL
MODEL 3
REMARK VINA RESULT:     -12.5      0.685      1.585
REMARK  Name = 46911863
REMARK  3 active torsions:
REMARK  status: ('A' for Active; 'I' for Inactive)
REMARK    1  A    between atoms: C_5  and  C_18
REMARK    2  A    between atoms: C_7  and  C_12
REMARK    3  A    between atoms: C_18  and  C_20
REMARK                            x       y       z     vdW  Elec       q    Type
REMARK                         _______ _______ _______ _____ _____    ______ ____
ROOT
ATOM      1  N   UNL     1      34.097 -22.001 -18.510  0.00  0.00    -0.190 N 
ATOM      2  N   UNL     1      35.170 -22.379 -17.771  0.00  0.00    -0.162 NA
ATOM      3  N   UNL     1      32.876 -21.076 -20.077  0.00  0.00    -0.126 NA
ATOM      4  N   UNL     1      32.033 -21.745 -19.214  0.00  0.00    -0.127 NA
ATOM      5  C   UNL     1      34.105 -21.241 -19.642  0.00  0.00    +0.228 A 
ATOM      6  C   UNL     1      32.774 -22.297 -18.276  0.00  0.00    +0.187 A 
ATOM      7  C   UNL     1      34.865 -23.100 -16.730  0.00  0.00    +0.104 C 
ATOM      8  C   UNL     1      32.476 -23.092 -17.153  0.00  0.00    +0.042 C 
ATOM      9  C   UNL     1      33.471 -23.514 -16.363  0.00  0.00    +0.024 C 
ENDROOT
BRANCH   7  12
ATOM     10  N   UNL     1      37.107 -24.711 -14.371  0.00  0.00    -0.208 N 
ATOM     11  N   UNL     1      37.961 -23.748 -14.759  0.00  0.00    -0.176 NA
ATOM     12  C   UNL     1      35.955 -23.573 -15.836  0.00  0.00    +0.056 C 
ATOM     13  C   UNL     1      35.892 -24.651 -14.986  0.00  0.00    +0.087 C 
ATOM     14  C   UNL     1      37.251 -23.055 -15.654  0.00  0.00    +0.121 C 
ATOM     15  C   UNL     1      37.522 -25.683 -13.388  0.00  0.00    +0.140 C 
ENDBRANCH   7  12
BRANCH   5  18
ATOM     16  F   UNL     1      36.095 -21.717 -20.856  0.00  0.00    -0.191 F 
ATOM     17  F   UNL     1      36.247 -20.278 -19.266  0.00  0.00    -0.191 F 
ATOM     18  C   UNL     1      35.386 -20.687 -20.267  0.00  0.00    +0.335 C 
BRANCH  18  20
ATOM     19  N   UNL     1      34.311 -16.542 -23.966  0.00  0.00    -0.244 NA
ATOM     20  C   UNL     1      35.103 -19.588 -21.234  0.00  0.00    +0.045 C 
ATOM     21  C   UNL     1      35.040 -18.269 -20.795  0.00  0.00    +0.003 C 
ATOM     22  C   UNL     1      34.775 -17.229 -21.704  0.00  0.00    +0.018 C 
ATOM     23  C   UNL     1      34.900 -19.875 -22.578  0.00  0.00    +0.003 C 
ATOM     24  C   UNL     1      34.568 -17.514 -23.070  0.00  0.00    +0.081 C 
ATOM     25  C   UNL     1      34.635 -18.842 -23.480  0.00  0.00    +0.019 C 
ATOM     26  C   UNL     1      34.707 -15.892 -21.290  0.00  0.00    +0.003 C 
ATOM     27  C   UNL     1      34.443 -14.890 -22.212  0.00  0.00    +0.021 C 
ATOM     28  C   UNL     1      34.254 -15.264 -23.527  0.00  0.00    +0.099 C 
ENDBRANCH  18  20
ENDBRANCH   5  18
TORSDOF 3
ENDMDL
MODEL 4
REMARK VINA RESULT:     -12.3      3.334     10.293
REMARK  Name = 46911863
REMARK  3 active torsions:
REMARK  status: ('A' for Active; 'I' for Inactive)
REMARK    1  A    between atoms: C_5  and  C_18
REMARK    2  A    between atoms: C_7  and  C_12
REMARK    3  A    between atoms: C_18  and  C_20
REMARK                            x       y       z     vdW  Elec       q    Type
REMARK                         _______ _______ _______ _____ _____    ______ ____
ROOT
ATOM      1  N   UNL     1      33.509 -16.683 -25.017  0.00  0.00    -0.190 N 
ATOM      2  N   UNL     1      33.530 -15.333 -24.898  0.00  0.00    -0.162 NA
ATOM      3  N   UNL     1      33.833 -18.811 -24.600  0.00  0.00    -0.126 NA
ATOM      4  N   UNL     1      33.140 -18.706 -25.789  0.00  0.00    -0.127 NA
ATOM      5  C   UNL     1      34.043 -17.593 -24.153  0.00  0.00    +0.228 A 
ATOM      6  C   UNL     1      32.950 -17.426 -26.032  0.00  0.00    +0.187 A 
ATOM      7  C   UNL     1      32.946 -14.708 -25.881  0.00  0.00    +0.104 C 
ATOM      8  C   UNL     1      32.311 -16.724 -27.072  0.00  0.00    +0.042 C 
ATOM      9  C   UNL     1      32.281 -15.386 -27.041  0.00  0.00    +0.024 C 
ENDROOT
BRANCH   7  12
ATOM     10  N   UNL     1      32.991 -11.137 -25.224  0.00  0.00    -0.208 N 
ATOM     11  N   UNL     1      32.708 -11.047 -26.536  0.00  0.00    -0.176 NA
ATOM     12  C   UNL     1      32.909 -13.222 -25.870  0.00  0.00    +0.056 C 
ATOM     13  C   UNL     1      33.121 -12.418 -24.776  0.00  0.00    +0.087 C 
ATOM     14  C   UNL     1      32.658 -12.324 -26.924  0.00  0.00    +0.121 C 
ATOM     15  C   UNL     1      33.129  -9.935 -24.437  0.00  0.00    +0.140 C 
ENDBRANCH   7  12
BRANCH   5  18
ATOM     16  F   UNL     1      34.104 -16.149 -22.263  0.00  0.00    -0.191 F 
ATOM     17  F   UNL     1      35.987 -16.620 -23.187  0.00  0.00    -0.191 F 
ATOM     18  C   UNL     1      34.772 -17.197 -22.868  0.00  0.00    +0.335 C 
BRANCH  18  20
ATOM     19  N   UNL     1      35.439 -21.585 -19.358  0.00  0.00    -0.244 NA
ATOM     20  C   UNL     1      34.938 -18.354 -21.943  0.00  0.00    +0.045 C 
ATOM     21  C   UNL     1      33.821 -19.029 -21.459  0.00  0.00    +0.003 C 
ATOM     22  C   UNL     1      33.972 -20.121 -20.587  0.00  0.00    +0.018 C 
ATOM     23  C   UNL     1      36.208 -18.765 -21.558  0.00  0.00    +0.003 C 
ATOM     24  C   UNL     1      35.258 -20.543 -20.193  0.00  0.00    +0.081 C 
ATOM     25  C   UNL     1      36.357 -19.850 -20.691  0.00  0.00    +0.019 C 
ATOM     26  C   UNL     1      32.865 -20.818 -20.085  0.00  0.00    +0.003 C 
ATOM     27  C   UNL     1      33.048 -21.892 -19.226  0.00  0.00    +0.021 C 
ATOM     28  C   UNL     1      34.345 -22.232 -18.897  0.00  0.00    +0.099 C 
ENDBRANCH  18  20
ENDBRANCH   5  18
TORSDOF 3
ENDMDL
MODEL 5
REMARK VINA RESULT:     -12.1      2.101      3.081
REMARK  Name = 46911863
REMARK  3 active torsions:
REMARK  status: ('A' for Active; 'I' for Inactive)
REMARK    1  A    between atoms: C_5  and  C_18
REMARK    2  A    between atoms: C_7  and  C_12
REMARK    3  A    between atoms: C_18  and  C_20
REMARK                            x       y       z     vdW  Elec       q    Type
REMARK                         _______ _______ _______ _____ _____    ______ ____
ROOT
ATOM      1  N   UNL     1      32.581 -23.170 -16.343  0.00  0.00    -0.190 N 
ATOM      2  N   UNL     1      33.657 -23.624 -15.653  0.00  0.00    -0.162 NA
ATOM      3  N   UNL     1      31.333 -22.387 -17.966  0.00  0.00    -0.126 NA
ATOM      4  N   UNL     1      30.539 -22.541 -16.848  0.00  0.00    -0.127 NA
ATOM      5  C   UNL     1      32.550 -22.768 -17.646  0.00  0.00    +0.228 A 
ATOM      6  C   UNL     1      31.295 -23.011 -15.879  0.00  0.00    +0.187 A 
ATOM      7  C   UNL     1      33.398 -23.930 -14.414  0.00  0.00    +0.104 C 
ATOM      8  C   UNL     1      31.041 -23.365 -14.540  0.00  0.00    +0.042 C 
ATOM      9  C   UNL     1      32.043 -23.826 -13.780  0.00  0.00    +0.024 C 
ENDROOT
BRANCH   7  12
ATOM     10  N   UNL     1      36.384 -25.295 -12.863  0.00  0.00    -0.208 N 
ATOM     11  N   UNL     1      35.736 -25.010 -11.720  0.00  0.00    -0.176 NA
ATOM     12  C   UNL     1      34.498 -24.436 -13.551  0.00  0.00    +0.056 C 
ATOM     13  C   UNL     1      35.685 -24.971 -13.988  0.00  0.00    +0.087 C 
ATOM     14  C   UNL     1      34.584 -24.486 -12.147  0.00  0.00    +0.121 C 
ATOM     15  C   UNL     1      37.698 -25.890 -12.813  0.00  0.00    +0.140 C 
ENDBRANCH   7  12
BRANCH   5  18
ATOM     16  F   UNL     1      33.859 -23.995 -19.208  0.00  0.00    -0.191 F 
ATOM     17  F   UNL     1      34.924 -22.793 -17.778  0.00  0.00    -0.191 F 
ATOM     18  C   UNL     1      33.780 -22.779 -18.553  0.00  0.00    +0.335 C 
BRANCH  18  20
ATOM     19  N   UNL     1      33.725 -18.444 -22.190  0.00  0.00    -0.244 NA
ATOM     20  C   UNL     1      33.776 -21.637 -19.511  0.00  0.00    +0.045 C 
ATOM     21  C   UNL     1      34.973 -21.037 -19.890  0.00  0.00    +0.003 C 
ATOM     22  C   UNL     1      34.974 -19.960 -20.793  0.00  0.00    +0.018 C 
ATOM     23  C   UNL     1      32.577 -21.164 -20.029  0.00  0.00    +0.003 C 
ATOM     24  C   UNL     1      33.760 -19.475 -21.323  0.00  0.00    +0.081 C 
ATOM     25  C   UNL     1      32.578 -20.092 -20.926  0.00  0.00    +0.019 C 
ATOM     26  C   UNL     1      36.164 -19.338 -21.192  0.00  0.00    +0.003 C 
ATOM     27  C   UNL     1      36.131 -18.277 -22.085  0.00  0.00    +0.021 C 
ATOM     28  C   UNL     1      34.897 -17.872 -22.551  0.00  0.00    +0.099 C 
ENDBRANCH  18  20
ENDBRANCH   5  18
TORSDOF 3
ENDMDL
MODEL 6
REMARK VINA RESULT:     -12.0      2.705      9.741
REMARK  Name = 46911863
REMARK  3 active torsions:
REMARK  status: ('A' for Active; 'I' for Inactive)
REMARK    1  A    between atoms: C_5  and  C_18
REMARK    2  A    between atoms: C_7  and  C_12
REMARK    3  A    between atoms: C_18  and  C_20
REMARK                            x       y       z     vdW  Elec       q    Type
REMARK                         _______ _______ _______ _____ _____    ______ ____
ROOT
ATOM      1  N   UNL     1      34.424 -16.196 -22.163  0.00  0.00    -0.190 N 
ATOM      2  N   UNL     1      34.076 -16.154 -23.473  0.00  0.00    -0.162 NA
ATOM      3  N   UNL     1      35.051 -16.952 -20.204  0.00  0.00    -0.126 NA
ATOM      4  N   UNL     1      34.856 -15.590 -20.098  0.00  0.00    -0.127 NA
ATOM      5  C   UNL     1      34.790 -17.296 -21.445  0.00  0.00    +0.228 A 
ATOM      6  C   UNL     1      34.480 -15.144 -21.278  0.00  0.00    +0.187 A 
ATOM      7  C   UNL     1      33.763 -14.962 -23.898  0.00  0.00    +0.104 C 
ATOM      8  C   UNL     1      34.153 -13.865 -21.769  0.00  0.00    +0.042 C 
ATOM      9  C   UNL     1      33.797 -13.725 -23.052  0.00  0.00    +0.024 C 
ENDROOT
BRANCH   7  12
ATOM     10  N   UNL     1      32.581 -13.945 -27.177  0.00  0.00    -0.208 N 
ATOM     11  N   UNL     1      32.992 -15.173 -27.537  0.00  0.00    -0.176 NA
ATOM     12  C   UNL     1      33.358 -14.786 -25.317  0.00  0.00    +0.056 C 
ATOM     13  C   UNL     1      32.777 -13.664 -25.857  0.00  0.00    +0.087 C 
ATOM     14  C   UNL     1      33.465 -15.682 -26.397  0.00  0.00    +0.121 C 
ATOM     15  C   UNL     1      31.996 -13.067 -28.161  0.00  0.00    +0.140 C 
ENDBRANCH   7  12
BRANCH   5  18
ATOM     16  F   UNL     1      35.979 -18.795 -22.858  0.00  0.00    -0.191 F 
ATOM     17  F   UNL     1      33.832 -18.869 -22.951  0.00  0.00    -0.191 F 
ATOM     18  C   UNL     1      34.864 -18.700 -22.046  0.00  0.00    +0.335 C 
BRANCH  18  20
ATOM     19  N   UNL     1      34.868 -22.714 -18.057  0.00  0.00    -0.244 NA
ATOM     20  C   UNL     1      34.855 -19.757 -20.995  0.00  0.00    +0.045 C 
ATOM     21  C   UNL     1      33.648 -20.223 -20.482  0.00  0.00    +0.003 C 
ATOM     22  C   UNL     1      33.635 -21.220 -19.491  0.00  0.00    +0.018 C 
ATOM     23  C   UNL     1      36.050 -20.282 -20.521  0.00  0.00    +0.003 C 
ATOM     24  C   UNL     1      34.845 -21.758 -19.006  0.00  0.00    +0.081 C 
ATOM     25  C   UNL     1      36.036 -21.272 -19.536  0.00  0.00    +0.019 C 
ATOM     26  C   UNL     1      32.434 -21.708 -18.957  0.00  0.00    +0.003 C 
ATOM     27  C   UNL     1      32.455 -22.693 -17.980  0.00  0.00    +0.021 C 
ATOM     28  C   UNL     1      33.687 -23.158 -17.569  0.00  0.00    +0.099 C 
ENDBRANCH  18  20
ENDBRANCH   5  18
TORSDOF 3
ENDMDL
MODEL 7
REMARK VINA RESULT:     -11.4      5.057      8.720
REMARK  Name = 46911863
REMARK  3 active torsions:
REMARK  status: ('A' for Active; 'I' for Inactive)
REMARK    1  A    between atoms: C_5  and  C_18
REMARK    2  A    between atoms: C_7  and  C_12
REMARK    3  A    between atoms: C_18  and  C_20
REMARK                            x       y       z     vdW  Elec       q    Type
REMARK                         _______ _______ _______ _____ _____    ______ ____
ROOT
ATOM      1  N   UNL     1      33.752 -15.729 -24.320  0.00  0.00    -0.190 N 
ATOM      2  N   UNL     1      34.183 -16.391 -23.218  0.00  0.00    -0.162 NA
ATOM      3  N   UNL     1      33.060 -14.122 -25.640  0.00  0.00    -0.126 NA
ATOM      4  N   UNL     1      33.103 -15.291 -26.372  0.00  0.00    -0.127 NA
ATOM      5  C   UNL     1      33.451 -14.403 -24.417  0.00  0.00    +0.228 A 
ATOM      6  C   UNL     1      33.519 -16.251 -25.572  0.00  0.00    +0.187 A 
ATOM      7  C   UNL     1      34.384 -17.664 -23.412  0.00  0.00    +0.104 C 
ATOM      8  C   UNL     1      33.761 -17.626 -25.757  0.00  0.00    +0.042 C 
ATOM      9  C   UNL     1      34.191 -18.362 -24.724  0.00  0.00    +0.024 C 
ENDROOT
BRANCH   7  12
ATOM     10  N   UNL     1      34.970 -20.018 -20.710  0.00  0.00    -0.208 N 
ATOM     11  N   UNL     1      36.133 -19.353 -20.588  0.00  0.00    -0.176 NA
ATOM     12  C   UNL     1      34.854 -18.500 -22.277  0.00  0.00    +0.056 C 
ATOM     13  C   UNL     1      34.169 -19.546 -21.707  0.00  0.00    +0.087 C 
ATOM     14  C   UNL     1      36.055 -18.427 -21.547  0.00  0.00    +0.121 C 
ATOM     15  C   UNL     1      34.678 -21.120 -19.826  0.00  0.00    +0.140 C 
ENDBRANCH   7  12
BRANCH   5  18
ATOM     16  F   UNL     1      34.752 -13.666 -22.567  0.00  0.00    -0.191 F 
ATOM     17  F   UNL     1      32.622 -13.747 -22.286  0.00  0.00    -0.191 F 
ATOM     18  C   UNL     1      33.569 -13.431 -23.243  0.00  0.00    +0.335 C 
BRANCH  18  20
ATOM     19  N   UNL     1      33.110  -8.036 -24.886  0.00  0.00    -0.244 NA
ATOM     20  C   UNL     1      33.457 -12.011 -23.682  0.00  0.00    +0.045 C 
ATOM     21  C   UNL     1      34.373 -11.483 -24.587  0.00  0.00    +0.003 C 
ATOM     22  C   UNL     1      34.270 -10.145 -25.004  0.00  0.00    +0.018 C 
ATOM     23  C   UNL     1      32.437 -11.206 -23.189  0.00  0.00    +0.003 C 
ATOM     24  C   UNL     1      33.237  -9.322 -24.508  0.00  0.00    +0.081 C 
ATOM     25  C   UNL     1      32.336  -9.876 -23.604  0.00  0.00    +0.019 C 
ATOM     26  C   UNL     1      35.178  -9.588 -25.915  0.00  0.00    +0.003 C 
ATOM     27  C   UNL     1      35.049  -8.263 -26.307  0.00  0.00    +0.021 C 
ATOM     28  C   UNL     1      34.006  -7.537 -25.768  0.00  0.00    +0.099 C 
ENDBRANCH  18  20
ENDBRANCH   5  18
TORSDOF 3
ENDMDL
MODEL 8
REMARK VINA RESULT:     -11.3      2.938      5.155
REMARK  Name = 46911863
REMARK  3 active torsions:
REMARK  status: ('A' for Active; 'I' for Inactive)
REMARK    1  A    between atoms: C_5  and  C_18
REMARK    2  A    between atoms: C_7  and  C_12
REMARK    3  A    between atoms: C_18  and  C_20
REMARK                            x       y       z     vdW  Elec       q    Type
REMARK                         _______ _______ _______ _____ _____    ______ ____
ROOT
ATOM      1  N   UNL     1      33.207 -23.074 -16.623  0.00  0.00    -0.190 N 
ATOM      2  N   UNL     1      31.858 -23.154 -16.736  0.00  0.00    -0.162 NA
ATOM      3  N   UNL     1      35.324 -22.849 -17.140  0.00  0.00    -0.126 NA
ATOM      4  N   UNL     1      35.234 -23.064 -15.780  0.00  0.00    -0.127 NA
ATOM      5  C   UNL     1      34.104 -22.857 -17.627  0.00  0.00    +0.228 A 
ATOM      6  C   UNL     1      33.959 -23.197 -15.478  0.00  0.00    +0.187 A 
ATOM      7  C   UNL     1      31.246 -23.378 -15.607  0.00  0.00    +0.104 C 
ATOM      8  C   UNL     1      33.271 -23.422 -14.271  0.00  0.00    +0.042 C 
ATOM      9  C   UNL     1      31.936 -23.515 -14.283  0.00  0.00    +0.024 C 
ENDROOT
BRANCH   7  12
ATOM     10  N   UNL     1      27.634 -23.025 -15.721  0.00  0.00    -0.208 N 
ATOM     11  N   UNL     1      27.650 -24.342 -15.452  0.00  0.00    -0.176 NA
ATOM     12  C   UNL     1      29.764 -23.492 -15.600  0.00  0.00    +0.056 C 
ATOM     13  C   UNL     1      28.875 -22.468 -15.820  0.00  0.00    +0.087 C 
ATOM     14  C   UNL     1      28.954 -24.621 -15.379  0.00  0.00    +0.121 C 
ATOM     15  C   UNL     1      26.373 -22.340 -15.876  0.00  0.00    +0.140 C 
ENDBRANCH   7  12
BRANCH   5  18
ATOM     16  F   UNL     1      32.329 -22.452 -19.158  0.00  0.00    -0.191 F 
ATOM     17  F   UNL     1      33.838 -23.856 -19.770  0.00  0.00    -0.191 F 
ATOM     18  C   UNL     1      33.694 -22.662 -19.087  0.00  0.00    +0.335 C 
BRANCH  18  20
ATOM     19  N   UNL     1      36.623 -18.485 -21.535  0.00  0.00    -0.244 NA
ATOM     20  C   UNL     1      34.457 -21.559 -19.737  0.00  0.00    +0.045 C 
ATOM     21  C   UNL     1      33.821 -20.696 -20.625  0.00  0.00    +0.003 C 
ATOM     22  C   UNL     1      34.537 -19.654 -21.240  0.00  0.00    +0.018 C 
ATOM     23  C   UNL     1      35.807 -21.385 -19.460  0.00  0.00    +0.003 C 
ATOM     24  C   UNL     1      35.907 -19.472 -20.963  0.00  0.00    +0.081 C 
ATOM     25  C   UNL     1      36.518 -20.350 -20.072  0.00  0.00    +0.019 C 
ATOM     26  C   UNL     1      33.921 -18.771 -22.137  0.00  0.00    +0.003 C 
ATOM     27  C   UNL     1      34.656 -17.753 -22.727  0.00  0.00    +0.021 C 
ATOM     28  C   UNL     1      35.991 -17.653 -22.395  0.00  0.00    +0.099 C 
ENDBRANCH  18  20
ENDBRANCH   5  18
TORSDOF 3
ENDMDL
MODEL 9
REMARK VINA RESULT:     -11.0      5.219      8.877
REMARK  Name = 46911863
REMARK  3 active torsions:
REMARK  status: ('A' for Active; 'I' for Inactive)
REMARK    1  A    between atoms: C_5  and  C_18
REMARK    2  A    between atoms: C_7  and  C_12
REMARK    3  A    between atoms: C_18  and  C_20
REMARK                            x       y       z     vdW  Elec       q    Type
REMARK                         _______ _______ _______ _____ _____    ______ ____
ROOT
ATOM      1  N   UNL     1      33.725 -15.721 -24.388  0.00  0.00    -0.190 N 
ATOM      2  N   UNL     1      34.151 -16.373 -23.277  0.00  0.00    -0.162 NA
ATOM      3  N   UNL     1      33.044 -14.126 -25.727  0.00  0.00    -0.126 NA
ATOM      4  N   UNL     1      33.085 -15.303 -26.446  0.00  0.00    -0.127 NA
ATOM      5  C   UNL     1      33.431 -14.395 -24.500  0.00  0.00    +0.228 A 
ATOM      6  C   UNL     1      33.495 -16.256 -25.634  0.00  0.00    +0.187 A 
ATOM      7  C   UNL     1      34.348 -17.648 -23.456  0.00  0.00    +0.104 C 
ATOM      8  C   UNL     1      33.732 -17.633 -25.803  0.00  0.00    +0.042 C 
ATOM      9  C   UNL     1      34.155 -18.360 -24.762  0.00  0.00    +0.024 C 
ENDROOT
BRANCH   7  12
ATOM     10  N   UNL     1      34.918 -19.978 -20.730  0.00  0.00    -0.208 N 
ATOM     11  N   UNL     1      36.079 -19.310 -20.605  0.00  0.00    -0.176 NA
ATOM     12  C   UNL     1      34.811 -18.474 -22.310  0.00  0.00    +0.056 C 
ATOM     13  C   UNL     1      34.122 -19.516 -21.737  0.00  0.00    +0.087 C 
ATOM     14  C   UNL     1      36.007 -18.393 -21.573  0.00  0.00    +0.121 C 
ATOM     15  C   UNL     1      34.621 -21.072 -19.838  0.00  0.00    +0.140 C 
ENDBRANCH   7  12
BRANCH   5  18
ATOM     16  F   UNL     1      34.720 -13.654 -22.644  0.00  0.00    -0.191 F 
ATOM     17  F   UNL     1      32.586 -13.701 -22.387  0.00  0.00    -0.191 F 
ATOM     18  C   UNL     1      33.549 -13.410 -23.336  0.00  0.00    +0.335 C 
BRANCH  18  20
ATOM     19  N   UNL     1      33.251  -8.041 -25.096  0.00  0.00    -0.244 NA
ATOM     20  C   UNL     1      33.462 -11.994 -23.793  0.00  0.00    +0.045 C 
ATOM     21  C   UNL     1      32.514 -11.138 -23.242  0.00  0.00    +0.003 C 
ATOM     22  C   UNL     1      32.430  -9.801 -23.670  0.00  0.00    +0.018 C 
ATOM     23  C   UNL     1      34.328 -11.522 -24.772  0.00  0.00    +0.003 C 
ATOM     24  C   UNL     1      33.305  -9.315 -24.663  0.00  0.00    +0.081 C 
ATOM     25  C   UNL     1      34.243 -10.194 -25.197  0.00  0.00    +0.019 C 
ATOM     26  C   UNL     1      31.485  -8.917 -23.132  0.00  0.00    +0.003 C 
ATOM     27  C   UNL     1      31.427  -7.604 -23.575  0.00  0.00    +0.021 C 
ATOM     28  C   UNL     1      32.325  -7.219 -24.550  0.00  0.00    +0.099 C 
ENDBRANCH  18  20
ENDBRANCH   5  18
TORSDOF 3
ENDMDL
