MODEL 1
REMARK VINA RESULT:     -11.6      0.000      0.000
REMARK  Name = 23629645
REMARK  6 active torsions:
REMARK  status: ('A' for Active; 'I' for Inactive)
REMARK    1  A    between atoms: N_1  and  C_6
REMARK    2  A    between atoms: N_1  and  C_21
REMARK    3  A    between atoms: C_3  and  C_16
REMARK    4  A    between atoms: C_11  and  C_18
REMARK    5  A    between atoms: C_18  and  O_19
REMARK    6  A    between atoms: C_21  and  C_28
REMARK                            x       y       z     vdW  Elec       q    Type
REMARK                         _______ _______ _______ _____ _____    ______ ____
ROOT
ATOM      1  N   UNL     1      34.883 -18.810 -22.588  0.00  0.00    -0.300 N 
ATOM      2  C   UNL     1      35.743 -17.680 -22.299  0.00  0.00    +0.113 C 
ENDROOT
BRANCH   1   6
ATOM      3  C   UNL     1      33.553 -21.313 -19.494  0.00  0.00    +0.054 C 
ATOM      4  C   UNL     1      32.632 -20.576 -20.234  0.00  0.00    +0.006 C 
ATOM      5  C   UNL     1      34.914 -21.223 -19.776  0.00  0.00    +0.006 C 
ATOM      6  C   UNL     1      34.435 -19.652 -21.548  0.00  0.00    +0.048 C 
ATOM      7  C   UNL     1      33.073 -19.744 -21.263  0.00  0.00    +0.015 C 
ATOM      8  C   UNL     1      35.356 -20.391 -20.804  0.00  0.00    +0.015 C 
BRANCH   3  16
ATOM      9  O   UNL     1      31.872 -22.348 -18.327  0.00  0.00    -0.270 OA
ATOM     10  N   UNL     1      34.044 -22.756 -17.566  0.00  0.00    -0.276 N 
ATOM     11  C   UNL     1      35.621 -22.848 -15.133  0.00  0.00    +0.102 C 
ATOM     12  C   UNL     1      34.116 -23.140 -15.141  0.00  0.00    +0.033 C 
ATOM     13  C   UNL     1      36.060 -22.027 -16.351  0.00  0.00    +0.033 C 
ATOM     14  C   UNL     1      33.622 -23.653 -16.493  0.00  0.00    +0.094 C 
ATOM     15  C   UNL     1      35.496 -22.568 -17.665  0.00  0.00    +0.094 C 
ATOM     16  C   UNL     1      33.088 -22.189 -18.411  0.00  0.00    +0.249 C 
BRANCH  11  18
ATOM     17  O   UNL     1      35.984 -25.212 -15.431  0.00  0.00    -0.250 OA
ATOM     18  C   UNL     1      36.396 -24.130 -15.036  0.00  0.00    +0.317 C 
BRANCH  18  19
ATOM     19  O   UNL     1      37.603 -23.890 -14.449  0.00  0.00    -0.444 OA
ATOM     20  C   UNL     1      38.239 -25.029 -13.860  0.00  0.00    +0.256 C 
ENDBRANCH  18  19
ENDBRANCH  11  18
ENDBRANCH   3  16
ENDBRANCH   1   6
BRANCH   1  21
ATOM     21  C   UNL     1      34.498 -19.072 -23.961  0.00  0.00    +0.148 C 
BRANCH  21  28
ATOM     22  N   UNL     1      34.017 -16.696 -23.958  0.00  0.00    -0.392 NA
ATOM     23  N   UNL     1      33.471 -16.721 -26.671  0.00  0.00    -0.200 NA
ATOM     24  N   UNL     1      33.022 -14.450 -26.616  0.00  0.00    -0.271 NA
ATOM     25  N   UNL     1      33.188 -13.209 -24.571  0.00  0.00    -0.310 NA
ATOM     26  N   UNL     1      33.817 -14.316 -22.581  0.00  0.00    -0.329 N 
ATOM     27  N   UNL     1      32.568 -12.147 -26.564  0.00  0.00    -0.283 N 
ATOM     28  C   UNL     1      34.097 -17.813 -24.682  0.00  0.00    +0.133 C 
ATOM     29  C   UNL     1      33.830 -17.840 -26.014  0.00  0.00    +0.193 C 
ATOM     30  C   UNL     1      33.658 -15.577 -24.617  0.00  0.00    +0.248 C 
ATOM     31  C   UNL     1      33.378 -15.575 -25.985  0.00  0.00    +0.131 C 
ATOM     32  C   UNL     1      33.543 -14.360 -23.973  0.00  0.00    +0.231 C 
ATOM     33  C   UNL     1      32.944 -13.324 -25.881  0.00  0.00    +0.207 C 
ATOM     34  H   UNL     1      33.745 -13.464 -22.092  0.00  0.00    +0.145 HD
ATOM     35  H   UNL     1      34.081 -15.136 -22.105  0.00  0.00    +0.145 HD
ATOM     36  H   UNL     1      32.377 -12.179 -27.530  0.00  0.00    +0.156 HD
ATOM     37  H   UNL     1      32.494 -11.297 -26.075  0.00  0.00    +0.156 HD
ENDBRANCH  21  28
ENDBRANCH   1  21
TORSDOF 6
ENDMDL
MODEL 2
REMARK VINA RESULT:     -11.6      3.515     11.143
REMARK  Name = 23629645
REMARK  6 active torsions:
REMARK  status: ('A' for Active; 'I' for Inactive)
REMARK    1  A    between atoms: N_1  and  C_6
REMARK    2  A    between atoms: N_1  and  C_21
REMARK    3  A    between atoms: C_3  and  C_16
REMARK    4  A    between atoms: C_11  and  C_18
REMARK    5  A    between atoms: C_18  and  O_19
REMARK    6  A    between atoms: C_21  and  C_28
REMARK                            x       y       z     vdW  Elec       q    Type
REMARK                         _______ _______ _______ _____ _____    ______ ____
ROOT
ATOM      1  N   UNL     1      33.395 -23.044 -18.879  0.00  0.00    -0.300 N 
ATOM      2  C   UNL     1      33.777 -24.318 -19.455  0.00  0.00    +0.113 C 
ENDROOT
BRANCH   1   6
ATOM      3  C   UNL     1      34.565 -19.451 -20.702  0.00  0.00    +0.054 C 
ATOM      4  C   UNL     1      35.531 -20.331 -20.222  0.00  0.00    +0.006 C 
ATOM      5  C   UNL     1      33.212 -19.757 -20.580  0.00  0.00    +0.006 C 
ATOM      6  C   UNL     1      33.788 -21.836 -19.493  0.00  0.00    +0.048 C 
ATOM      7  C   UNL     1      35.142 -21.526 -19.616  0.00  0.00    +0.015 C 
ATOM      8  C   UNL     1      32.823 -20.952 -19.975  0.00  0.00    +0.015 C 
BRANCH   3  16
ATOM      9  O   UNL     1      35.518 -17.367 -20.609  0.00  0.00    -0.270 OA
ATOM     10  N   UNL     1      34.710 -18.027 -22.701  0.00  0.00    -0.276 N 
ATOM     11  C   UNL     1      33.125 -17.065 -24.932  0.00  0.00    +0.102 C 
ATOM     12  C   UNL     1      33.926 -16.117 -24.032  0.00  0.00    +0.033 C 
ATOM     13  C   UNL     1      32.830 -18.405 -24.247  0.00  0.00    +0.033 C 
ATOM     14  C   UNL     1      35.125 -16.800 -23.375  0.00  0.00    +0.094 C 
ATOM     15  C   UNL     1      34.061 -19.011 -23.574  0.00  0.00    +0.094 C 
ATOM     16  C   UNL     1      34.974 -18.193 -21.339  0.00  0.00    +0.249 C 
BRANCH  11  18
ATOM     17  O   UNL     1      34.334 -18.333 -26.587  0.00  0.00    -0.250 OA
ATOM     18  C   UNL     1      33.842 -17.269 -26.235  0.00  0.00    +0.317 C 
BRANCH  18  19
ATOM     19  O   UNL     1      33.852 -16.101 -26.938  0.00  0.00    -0.444 OA
ATOM     20  C   UNL     1      32.578 -15.667 -27.426  0.00  0.00    +0.256 C 
ENDBRANCH  18  19
ENDBRANCH  11  18
ENDBRANCH   3  16
ENDBRANCH   1   6
BRANCH   1  21
ATOM     21  C   UNL     1      32.614 -23.026 -17.658  0.00  0.00    +0.148 C 
BRANCH  21  28
ATOM     22  N   UNL     1      34.755 -23.151 -16.526  0.00  0.00    -0.392 NA
ATOM     23  N   UNL     1      33.591 -24.271 -14.277  0.00  0.00    -0.200 NA
ATOM     24  N   UNL     1      35.659 -24.369 -13.239  0.00  0.00    -0.271 NA
ATOM     25  N   UNL     1      37.636 -23.590 -14.351  0.00  0.00    -0.310 NA
ATOM     26  N   UNL     1      37.476 -22.708 -16.537  0.00  0.00    -0.329 N 
ATOM     27  N   UNL     1      37.753 -24.469 -12.183  0.00  0.00    -0.283 N 
ATOM     28  C   UNL     1      33.445 -23.391 -16.455  0.00  0.00    +0.133 C 
ATOM     29  C   UNL     1      32.860 -23.940 -15.359  0.00  0.00    +0.193 C 
ATOM     30  C   UNL     1      35.485 -23.482 -15.443  0.00  0.00    +0.248 C 
ATOM     31  C   UNL     1      34.912 -24.048 -14.302  0.00  0.00    +0.131 C 
ATOM     32  C   UNL     1      36.851 -23.281 -15.398  0.00  0.00    +0.231 C 
ATOM     33  C   UNL     1      36.981 -24.125 -13.314  0.00  0.00    +0.207 C 
ATOM     34  H   UNL     1      38.448 -22.551 -16.538  0.00  0.00    +0.145 HD
ATOM     35  H   UNL     1      36.937 -22.467 -17.325  0.00  0.00    +0.145 HD
ATOM     36  H   UNL     1      37.319 -24.866 -11.394  0.00  0.00    +0.156 HD
ATOM     37  H   UNL     1      38.725 -24.313 -12.185  0.00  0.00    +0.156 HD
ENDBRANCH  21  28
ENDBRANCH   1  21
TORSDOF 6
ENDMDL
MODEL 3
REMARK VINA RESULT:     -11.6      1.231      2.571
REMARK  Name = 23629645
REMARK  6 active torsions:
REMARK  status: ('A' for Active; 'I' for Inactive)
REMARK    1  A    between atoms: N_1  and  C_6
REMARK    2  A    between atoms: N_1  and  C_21
REMARK    3  A    between atoms: C_3  and  C_16
REMARK    4  A    between atoms: C_11  and  C_18
REMARK    5  A    between atoms: C_18  and  O_19
REMARK    6  A    between atoms: C_21  and  C_28
REMARK                            x       y       z     vdW  Elec       q    Type
REMARK                         _______ _______ _______ _____ _____    ______ ____
ROOT
ATOM      1  N   UNL     1      34.790 -18.812 -22.721  0.00  0.00    -0.300 N 
ATOM      2  C   UNL     1      34.340 -19.066 -24.075  0.00  0.00    +0.113 C 
ENDROOT
BRANCH   1   6
ATOM      3  C   UNL     1      33.517 -21.265 -19.564  0.00  0.00    +0.054 C 
ATOM      4  C   UNL     1      34.872 -21.179 -19.872  0.00  0.00    +0.006 C 
ATOM      5  C   UNL     1      32.582 -20.542 -20.300  0.00  0.00    +0.006 C 
ATOM      6  C   UNL     1      34.362 -19.637 -21.659  0.00  0.00    +0.048 C 
ATOM      7  C   UNL     1      35.296 -20.363 -20.921  0.00  0.00    +0.015 C 
ATOM      8  C   UNL     1      33.005 -19.726 -21.349  0.00  0.00    +0.015 C 
BRANCH   3  16
ATOM      9  O   UNL     1      31.855 -22.258 -18.333  0.00  0.00    -0.270 OA
ATOM     10  N   UNL     1      34.044 -22.708 -17.645  0.00  0.00    -0.276 N 
ATOM     11  C   UNL     1      35.701 -22.819 -15.266  0.00  0.00    +0.102 C 
ATOM     12  C   UNL     1      34.191 -23.079 -15.221  0.00  0.00    +0.033 C 
ATOM     13  C   UNL     1      36.114 -22.014 -16.505  0.00  0.00    +0.033 C 
ATOM     14  C   UNL     1      33.640 -23.589 -16.553  0.00  0.00    +0.094 C 
ATOM     15  C   UNL     1      35.495 -22.549 -17.795  0.00  0.00    +0.094 C 
ATOM     16  C   UNL     1      33.071 -22.125 -18.460  0.00  0.00    +0.249 C 
BRANCH  11  18
ATOM     17  O   UNL     1      35.939 -25.215 -15.343  0.00  0.00    -0.250 OA
ATOM     18  C   UNL     1      36.452 -24.116 -15.188  0.00  0.00    +0.317 C 
BRANCH  18  19
ATOM     19  O   UNL     1      37.766 -23.866 -14.923  0.00  0.00    -0.444 OA
ATOM     20  C   UNL     1      38.549 -25.009 -14.564  0.00  0.00    +0.256 C 
ENDBRANCH  18  19
ENDBRANCH  11  18
ENDBRANCH   3  16
ENDBRANCH   1   6
BRANCH   1  21
ATOM     21  C   UNL     1      35.675 -17.692 -22.469  0.00  0.00    +0.148 C 
BRANCH  21  28
ATOM     22  N   UNL     1      34.374 -15.780 -23.198  0.00  0.00    -0.392 NA
ATOM     23  N   UNL     1      34.109 -14.867 -20.598  0.00  0.00    -0.200 NA
ATOM     24  N   UNL     1      32.871 -13.058 -21.345  0.00  0.00    -0.271 NA
ATOM     25  N   UNL     1      32.401 -12.763 -23.677  0.00  0.00    -0.310 NA
ATOM     26  N   UNL     1      33.211 -14.339 -25.240  0.00  0.00    -0.329 N 
ATOM     27  N   UNL     1      31.615 -11.223 -22.098  0.00  0.00    -0.283 N 
ATOM     28  C   UNL     1      34.911 -16.430 -22.165  0.00  0.00    +0.133 C 
ATOM     29  C   UNL     1      34.790 -15.993 -20.884  0.00  0.00    +0.193 C 
ATOM     30  C   UNL     1      33.693 -14.653 -22.910  0.00  0.00    +0.248 C 
ATOM     31  C   UNL     1      33.552 -14.180 -21.604  0.00  0.00    +0.131 C 
ATOM     32  C   UNL     1      33.092 -13.896 -23.897  0.00  0.00    +0.231 C 
ATOM     33  C   UNL     1      32.330 -12.405 -22.390  0.00  0.00    +0.207 C 
ATOM     34  H   UNL     1      32.794 -13.823 -25.968  0.00  0.00    +0.145 HD
ATOM     35  H   UNL     1      33.708 -15.164 -25.444  0.00  0.00    +0.145 HD
ATOM     36  H   UNL     1      31.534 -10.916 -21.166  0.00  0.00    +0.156 HD
ATOM     37  H   UNL     1      31.200 -10.706 -22.825  0.00  0.00    +0.156 HD
ENDBRANCH  21  28
ENDBRANCH   1  21
TORSDOF 6
ENDMDL
MODEL 4
REMARK VINA RESULT:     -11.6      0.883      1.336
REMARK  Name = 23629645
REMARK  6 active torsions:
REMARK  status: ('A' for Active; 'I' for Inactive)
REMARK    1  A    between atoms: N_1  and  C_6
REMARK    2  A    between atoms: N_1  and  C_21
REMARK    3  A    between atoms: C_3  and  C_16
REMARK    4  A    between atoms: C_11  and  C_18
REMARK    5  A    between atoms: C_18  and  O_19
REMARK    6  A    between atoms: C_21  and  C_28
REMARK                            x       y       z     vdW  Elec       q    Type
REMARK                         _______ _______ _______ _____ _____    ______ ____
ROOT
ATOM      1  N   UNL     1      34.728 -18.550 -22.399  0.00  0.00    -0.300 N 
ATOM      2  C   UNL     1      34.943 -17.162 -22.045  0.00  0.00    +0.113 C 
ENDROOT
BRANCH   1   6
ATOM      3  C   UNL     1      33.646 -21.348 -19.466  0.00  0.00    +0.054 C 
ATOM      4  C   UNL     1      34.989 -21.167 -19.790  0.00  0.00    +0.006 C 
ATOM      5  C   UNL     1      32.661 -20.606 -20.112  0.00  0.00    +0.006 C 
ATOM      6  C   UNL     1      34.364 -19.491 -21.412  0.00  0.00    +0.048 C 
ATOM      7  C   UNL     1      35.349 -20.237 -20.764  0.00  0.00    +0.015 C 
ATOM      8  C   UNL     1      33.021 -19.675 -21.087  0.00  0.00    +0.015 C 
BRANCH   3  16
ATOM      9  O   UNL     1      32.083 -22.658 -18.416  0.00  0.00    -0.270 OA
ATOM     10  N   UNL     1      34.261 -22.797 -17.578  0.00  0.00    -0.276 N 
ATOM     11  C   UNL     1      35.743 -22.783 -15.084  0.00  0.00    +0.102 C 
ATOM     12  C   UNL     1      34.295 -23.279 -15.169  0.00  0.00    +0.033 C 
ATOM     13  C   UNL     1      36.108 -21.854 -16.248  0.00  0.00    +0.033 C 
ATOM     14  C   UNL     1      33.928 -23.792 -16.562  0.00  0.00    +0.094 C 
ATOM     15  C   UNL     1      35.675 -22.406 -17.606  0.00  0.00    +0.094 C 
ATOM     16  C   UNL     1      33.268 -22.329 -18.440  0.00  0.00    +0.249 C 
BRANCH  11  18
ATOM     17  O   UNL     1      37.871 -23.892 -15.302  0.00  0.00    -0.250 OA
ATOM     18  C   UNL     1      36.685 -23.949 -15.006  0.00  0.00    +0.317 C 
BRANCH  18  19
ATOM     19  O   UNL     1      36.014 -25.049 -14.561  0.00  0.00    -0.444 OA
ATOM     20  C   UNL     1      36.512 -26.305 -15.032  0.00  0.00    +0.256 C 
ENDBRANCH  18  19
ENDBRANCH  11  18
ENDBRANCH   3  16
ENDBRANCH   1   6
BRANCH   1  21
ATOM     21  C   UNL     1      34.905 -18.964 -23.777  0.00  0.00    +0.148 C 
BRANCH  21  28
ATOM     22  N   UNL     1      34.131 -16.755 -24.408  0.00  0.00    -0.392 NA
ATOM     23  N   UNL     1      33.002 -17.728 -26.741  0.00  0.00    -0.200 NA
ATOM     24  N   UNL     1      32.284 -15.598 -27.299  0.00  0.00    -0.271 NA
ATOM     25  N   UNL     1      32.736 -13.729 -25.866  0.00  0.00    -0.310 NA
ATOM     26  N   UNL     1      33.932 -14.061 -23.856  0.00  0.00    -0.329 N 
ATOM     27  N   UNL     1      31.555 -13.441 -27.868  0.00  0.00    -0.283 N 
ATOM     28  C   UNL     1      34.192 -18.046 -24.735  0.00  0.00    +0.133 C 
ATOM     29  C   UNL     1      33.642 -18.538 -25.876  0.00  0.00    +0.193 C 
ATOM     30  C   UNL     1      33.490 -15.946 -25.275  0.00  0.00    +0.248 C 
ATOM     31  C   UNL     1      32.915 -16.423 -26.455  0.00  0.00    +0.131 C 
ATOM     32  C   UNL     1      33.363 -14.589 -25.044  0.00  0.00    +0.231 C 
ATOM     33  C   UNL     1      32.225 -14.296 -26.965  0.00  0.00    +0.207 C 
ATOM     34  H   UNL     1      33.859 -13.099 -23.661  0.00  0.00    +0.145 HD
ATOM     35  H   UNL     1      34.399 -14.657 -23.227  0.00  0.00    +0.145 HD
ATOM     36  H   UNL     1      31.160 -13.808 -28.692  0.00  0.00    +0.156 HD
ATOM     37  H   UNL     1      31.482 -12.479 -27.672  0.00  0.00    +0.156 HD
ENDBRANCH  21  28
ENDBRANCH   1  21
TORSDOF 6
ENDMDL
MODEL 5
REMARK VINA RESULT:     -11.4      0.839      1.726
REMARK  Name = 23629645
REMARK  6 active torsions:
REMARK  status: ('A' for Active; 'I' for Inactive)
REMARK    1  A    between atoms: N_1  and  C_6
REMARK    2  A    between atoms: N_1  and  C_21
REMARK    3  A    between atoms: C_3  and  C_16
REMARK    4  A    between atoms: C_11  and  C_18
REMARK    5  A    between atoms: C_18  and  O_19
REMARK    6  A    between atoms: C_21  and  C_28
REMARK                            x       y       z     vdW  Elec       q    Type
REMARK                         _______ _______ _______ _____ _____    ______ ____
ROOT
ATOM      1  N   UNL     1      35.168 -18.863 -22.504  0.00  0.00    -0.300 N 
ATOM      2  C   UNL     1      36.563 -18.472 -22.524  0.00  0.00    +0.113 C 
ENDROOT
BRANCH   1   6
ATOM      3  C   UNL     1      33.705 -21.359 -19.466  0.00  0.00    +0.054 C 
ATOM      4  C   UNL     1      32.820 -20.597 -20.223  0.00  0.00    +0.006 C 
ATOM      5  C   UNL     1      35.074 -21.297 -19.711  0.00  0.00    +0.006 C 
ATOM      6  C   UNL     1      34.676 -19.703 -21.482  0.00  0.00    +0.048 C 
ATOM      7  C   UNL     1      33.305 -19.767 -21.233  0.00  0.00    +0.015 C 
ATOM      8  C   UNL     1      35.561 -20.467 -20.721  0.00  0.00    +0.015 C 
BRANCH   3  16
ATOM      9  O   UNL     1      31.975 -22.397 -18.374  0.00  0.00    -0.270 OA
ATOM     10  N   UNL     1      34.111 -22.792 -17.510  0.00  0.00    -0.276 N 
ATOM     11  C   UNL     1      35.572 -22.867 -15.004  0.00  0.00    +0.102 C 
ATOM     12  C   UNL     1      34.070 -23.166 -15.082  0.00  0.00    +0.033 C 
ATOM     13  C   UNL     1      36.064 -22.049 -16.205  0.00  0.00    +0.033 C 
ATOM     14  C   UNL     1      33.643 -23.686 -16.454  0.00  0.00    +0.094 C 
ATOM     15  C   UNL     1      35.565 -22.597 -17.541  0.00  0.00    +0.094 C 
ATOM     16  C   UNL     1      33.193 -22.233 -18.401  0.00  0.00    +0.249 C 
BRANCH  11  18
ATOM     17  O   UNL     1      35.994 -25.215 -15.340  0.00  0.00    -0.250 OA
ATOM     18  C   UNL     1      36.347 -24.144 -14.866  0.00  0.00    +0.317 C 
BRANCH  18  19
ATOM     19  O   UNL     1      37.479 -23.914 -14.142  0.00  0.00    -0.444 OA
ATOM     20  C   UNL     1      38.117 -25.080 -13.609  0.00  0.00    +0.256 C 
ENDBRANCH  18  19
ENDBRANCH  11  18
ENDBRANCH   3  16
ENDBRANCH   1   6
BRANCH   1  21
ATOM     21  C   UNL     1      34.287 -18.391 -23.553  0.00  0.00    +0.148 C 
BRANCH  21  28
ATOM     22  N   UNL     1      33.674 -16.319 -24.653  0.00  0.00    -0.392 NA
ATOM     23  N   UNL     1      34.452 -14.827 -22.455  0.00  0.00    -0.200 NA
ATOM     24  N   UNL     1      33.852 -12.876 -23.549  0.00  0.00    -0.271 NA
ATOM     25  N   UNL     1      32.950 -12.935 -25.769  0.00  0.00    -0.310 NA
ATOM     26  N   UNL     1      32.668 -15.011 -26.862  0.00  0.00    -0.329 N 
ATOM     27  N   UNL     1      33.243 -10.897 -24.654  0.00  0.00    -0.283 N 
ATOM     28  C   UNL     1      34.167 -16.890 -23.554  0.00  0.00    +0.133 C 
ATOM     29  C   UNL     1      34.554 -16.170 -22.468  0.00  0.00    +0.193 C 
ATOM     30  C   UNL     1      33.572 -14.975 -24.639  0.00  0.00    +0.248 C 
ATOM     31  C   UNL     1      33.962 -14.210 -23.538  0.00  0.00    +0.131 C 
ATOM     32  C   UNL     1      33.075 -14.273 -25.719  0.00  0.00    +0.231 C 
ATOM     33  C   UNL     1      33.353 -12.304 -24.660  0.00  0.00    +0.207 C 
ATOM     34  H   UNL     1      32.309 -14.541 -27.649  0.00  0.00    +0.145 HD
ATOM     35  H   UNL     1      32.743 -15.992 -26.866  0.00  0.00    +0.145 HD
ATOM     36  H   UNL     1      33.526 -10.385 -23.861  0.00  0.00    +0.156 HD
ATOM     37  H   UNL     1      32.886 -10.427 -25.441  0.00  0.00    +0.156 HD
ENDBRANCH  21  28
ENDBRANCH   1  21
TORSDOF 6
ENDMDL
MODEL 6
REMARK VINA RESULT:     -11.2      5.098     11.695
REMARK  Name = 23629645
REMARK  6 active torsions:
REMARK  status: ('A' for Active; 'I' for Inactive)
REMARK    1  A    between atoms: N_1  and  C_6
REMARK    2  A    between atoms: N_1  and  C_21
REMARK    3  A    between atoms: C_3  and  C_16
REMARK    4  A    between atoms: C_11  and  C_18
REMARK    5  A    between atoms: C_18  and  O_19
REMARK    6  A    between atoms: C_21  and  C_28
REMARK                            x       y       z     vdW  Elec       q    Type
REMARK                         _______ _______ _______ _____ _____    ______ ____
ROOT
ATOM      1  N   UNL     1      34.855 -17.611 -23.483  0.00  0.00    -0.300 N 
ATOM      2  C   UNL     1      34.652 -18.393 -24.685  0.00  0.00    +0.113 C 
ENDROOT
BRANCH   1   6
ATOM      3  C   UNL     1      33.320 -13.717 -23.196  0.00  0.00    +0.054 C 
ATOM      4  C   UNL     1      33.105 -14.463 -24.352  0.00  0.00    +0.006 C 
ATOM      5  C   UNL     1      34.042 -14.256 -22.135  0.00  0.00    +0.006 C 
ATOM      6  C   UNL     1      34.339 -16.301 -23.386  0.00  0.00    +0.048 C 
ATOM      7  C   UNL     1      33.615 -15.758 -24.448  0.00  0.00    +0.015 C 
ATOM      8  C   UNL     1      34.553 -15.551 -22.230  0.00  0.00    +0.015 C 
BRANCH   3  16
ATOM      9  O   UNL     1      31.807 -12.207 -22.364  0.00  0.00    -0.270 OA
ATOM     10  N   UNL     1      33.405 -11.345 -23.836  0.00  0.00    -0.276 N 
ATOM     11  C   UNL     1      33.666  -9.618 -26.153  0.00  0.00    +0.102 C 
ATOM     12  C   UNL     1      32.541  -9.441 -25.126  0.00  0.00    +0.033 C 
ATOM     13  C   UNL     1      34.259 -11.032 -26.125  0.00  0.00    +0.033 C 
ATOM     14  C   UNL     1      32.917  -9.972 -23.742  0.00  0.00    +0.094 C 
ATOM     15  C   UNL     1      34.571 -11.518 -24.710  0.00  0.00    +0.094 C 
ATOM     16  C   UNL     1      32.784 -12.353 -23.096  0.00  0.00    +0.249 C 
BRANCH  11  18
ATOM     17  O   UNL     1      35.022  -8.114 -24.848  0.00  0.00    -0.250 OA
ATOM     18  C   UNL     1      34.729  -8.581 -25.940  0.00  0.00    +0.317 C 
BRANCH  18  19
ATOM     19  O   UNL     1      35.296  -8.257 -27.137  0.00  0.00    -0.444 OA
ATOM     20  C   UNL     1      34.930  -6.977 -27.664  0.00  0.00    +0.256 C 
ENDBRANCH  18  19
ENDBRANCH  11  18
ENDBRANCH   3  16
ENDBRANCH   1   6
BRANCH   1  21
ATOM     21  C   UNL     1      35.607 -18.185 -22.384  0.00  0.00    +0.148 C 
BRANCH  21  28
ATOM     22  N   UNL     1      35.418 -19.916 -20.697  0.00  0.00    -0.392 NA
ATOM     23  N   UNL     1      32.674 -20.058 -21.034  0.00  0.00    -0.200 NA
ATOM     24  N   UNL     1      32.547 -21.709 -19.416  0.00  0.00    -0.271 NA
ATOM     25  N   UNL     1      34.516 -22.491 -18.294  0.00  0.00    -0.310 NA
ATOM     26  N   UNL     1      36.619 -21.567 -18.845  0.00  0.00    -0.329 N 
ATOM     27  N   UNL     1      32.413 -23.382 -17.775  0.00  0.00    -0.283 N 
ATOM     28  C   UNL     1      34.776 -19.145 -21.575  0.00  0.00    +0.133 C 
ATOM     29  C   UNL     1      33.430 -19.204 -21.752  0.00  0.00    +0.193 C 
ATOM     30  C   UNL     1      34.661 -20.769 -19.980  0.00  0.00    +0.248 C 
ATOM     31  C   UNL     1      33.276 -20.852 -20.140  0.00  0.00    +0.131 C 
ATOM     32  C   UNL     1      35.214 -21.617 -19.040  0.00  0.00    +0.231 C 
ATOM     33  C   UNL     1      33.199 -22.485 -18.530  0.00  0.00    +0.207 C 
ATOM     34  H   UNL     1      37.045 -22.158 -18.182  0.00  0.00    +0.145 HD
ATOM     35  H   UNL     1      37.167 -20.941 -19.371  0.00  0.00    +0.145 HD
ATOM     36  H   UNL     1      31.439 -23.417 -17.911  0.00  0.00    +0.156 HD
ATOM     37  H   UNL     1      32.840 -23.973 -17.114  0.00  0.00    +0.156 HD
ENDBRANCH  21  28
ENDBRANCH   1  21
TORSDOF 6
ENDMDL
MODEL 7
REMARK VINA RESULT:     -11.1      5.104     11.643
REMARK  Name = 23629645
REMARK  6 active torsions:
REMARK  status: ('A' for Active; 'I' for Inactive)
REMARK    1  A    between atoms: N_1  and  C_6
REMARK    2  A    between atoms: N_1  and  C_21
REMARK    3  A    between atoms: C_3  and  C_16
REMARK    4  A    between atoms: C_11  and  C_18
REMARK    5  A    between atoms: C_18  and  O_19
REMARK    6  A    between atoms: C_21  and  C_28
REMARK                            x       y       z     vdW  Elec       q    Type
REMARK                         _______ _______ _______ _____ _____    ______ ____
ROOT
ATOM      1  N   UNL     1      35.022 -17.560 -23.253  0.00  0.00    -0.300 N 
ATOM      2  C   UNL     1      34.547 -18.540 -24.208  0.00  0.00    +0.113 C 
ENDROOT
BRANCH   1   6
ATOM      3  C   UNL     1      33.307 -13.734 -23.104  0.00  0.00    +0.054 C 
ATOM      4  C   UNL     1      33.984 -14.234 -21.994  0.00  0.00    +0.006 C 
ATOM      5  C   UNL     1      33.195 -14.498 -24.262  0.00  0.00    +0.006 C 
ATOM      6  C   UNL     1      34.445 -16.273 -23.203  0.00  0.00    +0.048 C 
ATOM      7  C   UNL     1      34.554 -15.505 -22.043  0.00  0.00    +0.015 C 
ATOM      8  C   UNL     1      33.766 -15.770 -24.312  0.00  0.00    +0.015 C 
BRANCH   3  16
ATOM      9  O   UNL     1      31.715 -12.273 -22.333  0.00  0.00    -0.270 OA
ATOM     10  N   UNL     1      33.286 -11.381 -23.816  0.00  0.00    -0.276 N 
ATOM     11  C   UNL     1      33.490  -9.715 -26.182  0.00  0.00    +0.102 C 
ATOM     12  C   UNL     1      32.347  -9.561 -25.172  0.00  0.00    +0.033 C 
ATOM     13  C   UNL     1      34.150 -11.098 -26.105  0.00  0.00    +0.033 C 
ATOM     14  C   UNL     1      32.732 -10.031 -23.769  0.00  0.00    +0.094 C 
ATOM     15  C   UNL     1      34.468 -11.525 -24.673  0.00  0.00    +0.094 C 
ATOM     16  C   UNL     1      32.705 -12.395 -23.051  0.00  0.00    +0.249 C 
BRANCH  11  18
ATOM     17  O   UNL     1      35.711  -8.799 -26.003  0.00  0.00    -0.250 OA
ATOM     18  C   UNL     1      34.500  -8.622 -25.991  0.00  0.00    +0.317 C 
BRANCH  18  19
ATOM     19  O   UNL     1      33.858  -7.434 -25.808  0.00  0.00    -0.444 OA
ATOM     20  C   UNL     1      33.743  -6.610 -26.972  0.00  0.00    +0.256 C 
ENDBRANCH  18  19
ENDBRANCH  11  18
ENDBRANCH   3  16
ENDBRANCH   1   6
BRANCH   1  21
ATOM     21  C   UNL     1      36.106 -17.913 -22.357  0.00  0.00    +0.148 C 
BRANCH  21  28
ATOM     22  N   UNL     1      34.426 -19.329 -21.332  0.00  0.00    -0.392 NA
ATOM     23  N   UNL     1      36.348 -20.701 -19.887  0.00  0.00    -0.200 NA
ATOM     24  N   UNL     1      34.706 -22.027 -18.934  0.00  0.00    -0.271 NA
ATOM     25  N   UNL     1      32.395 -21.722 -19.496  0.00  0.00    -0.310 NA
ATOM     26  N   UNL     1      31.780 -20.046 -21.043  0.00  0.00    -0.329 N 
ATOM     27  N   UNL     1      33.045 -23.374 -17.968  0.00  0.00    -0.283 N 
ATOM     28  C   UNL     1      35.723 -19.033 -21.426  0.00  0.00    +0.133 C 
ATOM     29  C   UNL     1      36.677 -19.697 -20.723  0.00  0.00    +0.193 C 
ATOM     30  C   UNL     1      34.099 -20.334 -20.495  0.00  0.00    +0.248 C 
ATOM     31  C   UNL     1      35.058 -21.034 -19.760  0.00  0.00    +0.131 C 
ATOM     32  C   UNL     1      32.788 -20.731 -20.315  0.00  0.00    +0.231 C 
ATOM     33  C   UNL     1      33.396 -22.323 -18.843  0.00  0.00    +0.207 C 
ATOM     34  H   UNL     1      30.836 -20.304 -20.937  0.00  0.00    +0.145 HD
ATOM     35  H   UNL     1      32.025 -19.314 -21.653  0.00  0.00    +0.145 HD
ATOM     36  H   UNL     1      33.744 -23.849 -17.463  0.00  0.00    +0.156 HD
ATOM     37  H   UNL     1      32.101 -23.631 -17.862  0.00  0.00    +0.156 HD
ENDBRANCH  21  28
ENDBRANCH   1  21
TORSDOF 6
ENDMDL
MODEL 8
REMARK VINA RESULT:     -11.1      4.713      8.342
REMARK  Name = 23629645
REMARK  6 active torsions:
REMARK  status: ('A' for Active; 'I' for Inactive)
REMARK    1  A    between atoms: N_1  and  C_6
REMARK    2  A    between atoms: N_1  and  C_21
REMARK    3  A    between atoms: C_3  and  C_16
REMARK    4  A    between atoms: C_11  and  C_18
REMARK    5  A    between atoms: C_18  and  O_19
REMARK    6  A    between atoms: C_21  and  C_28
REMARK                            x       y       z     vdW  Elec       q    Type
REMARK                         _______ _______ _______ _____ _____    ______ ____
ROOT
ATOM      1  N   UNL     1      33.727 -10.938 -25.281  0.00  0.00    -0.300 N 
ATOM      2  C   UNL     1      35.023 -10.309 -25.429  0.00  0.00    +0.113 C 
ENDROOT
BRANCH   1   6
ATOM      3  C   UNL     1      33.422 -15.098 -24.824  0.00  0.00    +0.054 C 
ATOM      4  C   UNL     1      33.667 -14.294 -23.713  0.00  0.00    +0.006 C 
ATOM      5  C   UNL     1      33.278 -14.527 -26.086  0.00  0.00    +0.006 C 
ATOM      6  C   UNL     1      33.624 -12.337 -25.127  0.00  0.00    +0.048 C 
ATOM      7  C   UNL     1      33.768 -12.911 -23.865  0.00  0.00    +0.015 C 
ATOM      8  C   UNL     1      33.379 -13.144 -26.238  0.00  0.00    +0.015 C 
BRANCH   3  16
ATOM      9  O   UNL     1      32.472 -17.116 -25.359  0.00  0.00    -0.270 OA
ATOM     10  N   UNL     1      34.160 -17.178 -23.743  0.00  0.00    -0.276 N 
ATOM     11  C   UNL     1      34.773 -18.299 -21.138  0.00  0.00    +0.102 C 
ATOM     12  C   UNL     1      33.815 -18.987 -22.117  0.00  0.00    +0.033 C 
ATOM     13  C   UNL     1      34.926 -16.801 -21.432  0.00  0.00    +0.033 C 
ATOM     14  C   UNL     1      34.103 -18.628 -23.575  0.00  0.00    +0.094 C 
ATOM     15  C   UNL     1      35.168 -16.509 -22.912  0.00  0.00    +0.094 C 
ATOM     16  C   UNL     1      33.316 -16.554 -24.664  0.00  0.00    +0.249 C 
BRANCH  11  18
ATOM     17  O   UNL     1      36.883 -18.970 -22.088  0.00  0.00    -0.250 OA
ATOM     18  C   UNL     1      36.105 -18.990 -21.144  0.00  0.00    +0.317 C 
BRANCH  18  19
ATOM     19  O   UNL     1      36.294 -19.627 -19.953  0.00  0.00    -0.444 OA
ATOM     20  C   UNL     1      36.040 -21.035 -19.961  0.00  0.00    +0.256 C 
ENDBRANCH  18  19
ENDBRANCH  11  18
ENDBRANCH   3  16
ENDBRANCH   1   6
BRANCH   1  21
ATOM     21  C   UNL     1      32.534 -10.114 -25.307  0.00  0.00    +0.148 C 
BRANCH  21  28
ATOM     22  N   UNL     1      32.254  -9.586 -22.958  0.00  0.00    -0.392 NA
ATOM     23  N   UNL     1      32.743  -6.901 -23.419  0.00  0.00    -0.200 NA
ATOM     24  N   UNL     1      32.466  -6.448 -21.165  0.00  0.00    -0.271 NA
ATOM     25  N   UNL     1      31.954  -8.199 -19.610  0.00  0.00    -0.310 NA
ATOM     26  N   UNL     1      31.729 -10.420 -20.383  0.00  0.00    -0.329 N 
ATOM     27  N   UNL     1      32.187  -5.986 -18.881  0.00  0.00    -0.283 N 
ATOM     28  C   UNL     1      32.516  -9.117 -24.179  0.00  0.00    +0.133 C 
ATOM     29  C   UNL     1      32.757  -7.802 -24.420  0.00  0.00    +0.193 C 
ATOM     30  C   UNL     1      32.241  -8.683 -21.958  0.00  0.00    +0.248 C 
ATOM     31  C   UNL     1      32.485  -7.325 -22.176  0.00  0.00    +0.131 C 
ATOM     32  C   UNL     1      31.983  -9.050 -20.651  0.00  0.00    +0.231 C 
ATOM     33  C   UNL     1      32.202  -6.926 -19.935  0.00  0.00    +0.207 C 
ATOM     34  H   UNL     1      31.541 -10.715 -19.463  0.00  0.00    +0.145 HD
ATOM     35  H   UNL     1      31.741 -11.076 -21.118  0.00  0.00    +0.145 HD
ATOM     36  H   UNL     1      32.363  -5.035 -19.067  0.00  0.00    +0.156 HD
ATOM     37  H   UNL     1      31.998  -6.281 -17.961  0.00  0.00    +0.156 HD
ENDBRANCH  21  28
ENDBRANCH   1  21
TORSDOF 6
ENDMDL
MODEL 9
REMARK VINA RESULT:     -11.0      1.671      3.084
REMARK  Name = 23629645
REMARK  6 active torsions:
REMARK  status: ('A' for Active; 'I' for Inactive)
REMARK    1  A    between atoms: N_1  and  C_6
REMARK    2  A    between atoms: N_1  and  C_21
REMARK    3  A    between atoms: C_3  and  C_16
REMARK    4  A    between atoms: C_11  and  C_18
REMARK    5  A    between atoms: C_18  and  O_19
REMARK    6  A    between atoms: C_21  and  C_28
REMARK                            x       y       z     vdW  Elec       q    Type
REMARK                         _______ _______ _______ _____ _____    ______ ____
ROOT
ATOM      1  N   UNL     1      35.570 -20.365 -20.635  0.00  0.00    -0.300 N 
ATOM      2  C   UNL     1      36.954 -19.947 -20.730  0.00  0.00    +0.113 C 
ENDROOT
BRANCH   1   6
ATOM      3  C   UNL     1      34.268 -22.676 -17.384  0.00  0.00    +0.054 C 
ATOM      4  C   UNL     1      35.579 -22.208 -17.421  0.00  0.00    +0.006 C 
ATOM      5  C   UNL     1      33.387 -22.381 -18.421  0.00  0.00    +0.006 C 
ATOM      6  C   UNL     1      35.132 -21.142 -19.541  0.00  0.00    +0.048 C 
ATOM      7  C   UNL     1      36.012 -21.440 -18.501  0.00  0.00    +0.015 C 
ATOM      8  C   UNL     1      33.819 -21.612 -19.502  0.00  0.00    +0.015 C 
BRANCH   3  16
ATOM      9  O   UNL     1      32.603 -23.700 -16.183  0.00  0.00    -0.270 OA
ATOM     10  N   UNL     1      34.768 -23.935 -15.333  0.00  0.00    -0.276 N 
ATOM     11  C   UNL     1      36.270 -23.753 -12.857  0.00  0.00    +0.102 C 
ATOM     12  C   UNL     1      34.782 -24.122 -12.883  0.00  0.00    +0.033 C 
ATOM     13  C   UNL     1      36.705 -23.009 -14.126  0.00  0.00    +0.033 C 
ATOM     14  C   UNL     1      34.357 -24.765 -14.204  0.00  0.00    +0.094 C 
ATOM     15  C   UNL     1      36.211 -23.680 -15.407  0.00  0.00    +0.094 C 
ATOM     16  C   UNL     1      33.812 -23.486 -16.247  0.00  0.00    +0.249 C 
BRANCH  11  18
ATOM     17  O   UNL     1      36.676 -26.022 -12.158  0.00  0.00    -0.250 OA
ATOM     18  C   UNL     1      37.104 -24.981 -12.637  0.00  0.00    +0.317 C 
BRANCH  18  19
ATOM     19  O   UNL     1      38.381 -24.744 -13.049  0.00  0.00    -0.444 OA
ATOM     20  C   UNL     1      38.968 -25.772 -13.854  0.00  0.00    +0.256 C 
ENDBRANCH  18  19
ENDBRANCH  11  18
ENDBRANCH   3  16
ENDBRANCH   1   6
BRANCH   1  21
ATOM     21  C   UNL     1      34.643 -19.985 -21.683  0.00  0.00    +0.148 C 
BRANCH  21  28
ATOM     22  N   UNL     1      34.246 -18.048 -23.086  0.00  0.00    -0.392 NA
ATOM     23  N   UNL     1      34.865 -16.320 -21.014  0.00  0.00    -0.200 NA
ATOM     24  N   UNL     1      34.474 -14.502 -22.394  0.00  0.00    -0.271 NA
ATOM     25  N   UNL     1      33.804 -14.809 -24.676  0.00  0.00    -0.310 NA
ATOM     26  N   UNL     1      33.537 -16.994 -25.532  0.00  0.00    -0.329 N 
ATOM     27  N   UNL     1      34.078 -12.658 -23.791  0.00  0.00    -0.283 N 
ATOM     28  C   UNL     1      34.596 -18.493 -21.878  0.00  0.00    +0.133 C 
ATOM     29  C   UNL     1      34.903 -17.657 -20.852  0.00  0.00    +0.193 C 
ATOM     30  C   UNL     1      34.208 -16.711 -23.246  0.00  0.00    +0.248 C 
ATOM     31  C   UNL     1      34.519 -15.827 -22.210  0.00  0.00    +0.131 C 
ATOM     32  C   UNL     1      33.859 -16.133 -24.451  0.00  0.00    +0.231 C 
ATOM     33  C   UNL     1      34.120 -14.058 -23.615  0.00  0.00    +0.207 C 
ATOM     34  H   UNL     1      33.284 -16.615 -26.405  0.00  0.00    +0.145 HD
ATOM     35  H   UNL     1      33.565 -17.970 -25.409  0.00  0.00    +0.145 HD
ATOM     36  H   UNL     1      34.302 -12.061 -23.040  0.00  0.00    +0.156 HD
ATOM     37  H   UNL     1      33.826 -12.279 -24.663  0.00  0.00    +0.156 HD
ENDBRANCH  21  28
ENDBRANCH   1  21
TORSDOF 6
ENDMDL
