MODEL 1
REMARK VINA RESULT:     -12.4      0.000      0.000
REMARK  Name = 3488
REMARK  8 active torsions:
REMARK  status: ('A' for Active; 'I' for Inactive)
REMARK    1  A    between atoms: C_1  and  S_7
REMARK    2  A    between atoms: C_2  and  C_22
REMARK    3  A    between atoms: S_7  and  N_12
REMARK    4  A    between atoms: N_11  and  C_16
REMARK    5  A    between atoms: C_22  and  C_23
REMARK    6  A    between atoms: C_23  and  N_25
REMARK    7  A    between atoms: C_26  and  C_29
REMARK    8  A    between atoms: C_30  and  O_35
REMARK                            x       y       z     vdW  Elec       q    Type
REMARK                         _______ _______ _______ _____ _____    ______ ____
ROOT
ATOM      1  C   UNL     1      34.167 -21.740 -19.153  0.00  0.00    +0.125 C 
ATOM      2  C   UNL     1      35.454 -19.845 -20.708  0.00  0.00    -0.020 C 
ATOM      3  C   UNL     1      33.412 -20.869 -19.918  0.00  0.00    +0.020 C 
ATOM      4  C   UNL     1      35.550 -21.688 -19.147  0.00  0.00    +0.020 C 
ATOM      5  C   UNL     1      34.061 -19.913 -20.702  0.00  0.00    -0.003 C 
ATOM      6  C   UNL     1      36.199 -20.734 -19.931  0.00  0.00    -0.003 C 
ENDROOT
BRANCH   1   7
ATOM      7  S   UNL     1      33.345 -22.950 -18.159  0.00  0.00    +0.077 S 
ATOM      8  O   UNL     1      33.356 -24.208 -18.881  0.00  0.00    -0.150 OA
ATOM      9  O   UNL     1      32.094 -22.360 -17.729  0.00  0.00    -0.150 OA
BRANCH   7  12
ATOM     10  O   UNL     1      33.158 -24.481 -15.463  0.00  0.00    -0.251 OA
ATOM     11  N   UNL     1      35.209 -23.710 -14.727  0.00  0.00    -0.289 N 
ATOM     12  N   UNL     1      34.409 -23.055 -16.825  0.00  0.00    -0.169 N 
ATOM     13  C   UNL     1      34.173 -23.815 -15.636  0.00  0.00    +0.319 C 
ATOM     14  H   UNL     1      35.984 -23.149 -14.958  0.00  0.00    +0.151 HD
ATOM     15  H   UNL     1      35.254 -22.552 -16.881  0.00  0.00    +0.178 HD
BRANCH  11  16
ATOM     16  C   UNL     1      35.206 -24.391 -13.451  0.00  0.00    +0.073 C 
ATOM     17  C   UNL     1      35.609 -23.439 -12.319  0.00  0.00    +0.020 C 
ATOM     18  C   UNL     1      36.108 -25.628 -13.484  0.00  0.00    +0.020 C 
ATOM     19  C   UNL     1      37.095 -23.083 -12.356  0.00  0.00    +0.002 C 
ATOM     20  C   UNL     1      37.594 -25.269 -13.519  0.00  0.00    +0.002 C 
ATOM     21  C   UNL     1      37.973 -24.331 -12.376  0.00  0.00    +0.000 C 
ENDBRANCH  11  16
ENDBRANCH   7  12
ENDBRANCH   1   7
BRANCH   2  22
ATOM     22  C   UNL     1      36.148 -18.825 -21.545  0.00  0.00    +0.048 C 
BRANCH  22  23
ATOM     23  C   UNL     1      35.683 -18.812 -23.007  0.00  0.00    +0.094 C 
BRANCH  23  25
ATOM     24  O   UNL     1      33.195 -18.167 -24.285  0.00  0.00    -0.270 OA
ATOM     25  N   UNL     1      35.248 -17.509 -23.431  0.00  0.00    -0.300 N 
ATOM     26  C   UNL     1      34.021 -17.290 -24.044  0.00  0.00    +0.249 C 
ATOM     27  H   UNL     1      35.844 -16.739 -23.281  0.00  0.00    +0.150 HD
BRANCH  26  29
ATOM     28 CL   UNL     1      32.370 -14.049 -27.702  0.00  0.00    -0.082 Cl
ATOM     29  C   UNL     1      33.731 -15.890 -24.447  0.00  0.00    +0.088 C 
ATOM     30  C   UNL     1      33.946 -14.861 -23.554  0.00  0.00    +0.143 C 
ATOM     31  C   UNL     1      33.250 -15.668 -25.722  0.00  0.00    +0.019 C 
ATOM     32  C   UNL     1      33.669 -13.553 -23.951  0.00  0.00    +0.038 C 
ATOM     33  C   UNL     1      32.971 -14.359 -26.119  0.00  0.00    +0.058 C 
ATOM     34  C   UNL     1      33.181 -13.302 -25.234  0.00  0.00    +0.015 C 
BRANCH  30  35
ATOM     35  O   UNL     1      34.422 -15.085 -22.296  0.00  0.00    -0.471 OA
ATOM     36  C   UNL     1      33.950 -14.222 -21.263  0.00  0.00    +0.252 C 
ENDBRANCH  30  35
ENDBRANCH  26  29
ENDBRANCH  23  25
ENDBRANCH  22  23
ENDBRANCH   2  22
TORSDOF 8
ENDMDL
MODEL 2
REMARK VINA RESULT:     -12.2      1.280      2.182
REMARK  Name = 3488
REMARK  8 active torsions:
REMARK  status: ('A' for Active; 'I' for Inactive)
REMARK    1  A    between atoms: C_1  and  S_7
REMARK    2  A    between atoms: C_2  and  C_22
REMARK    3  A    between atoms: S_7  and  N_12
REMARK    4  A    between atoms: N_11  and  C_16
REMARK    5  A    between atoms: C_22  and  C_23
REMARK    6  A    between atoms: C_23  and  N_25
REMARK    7  A    between atoms: C_26  and  C_29
REMARK    8  A    between atoms: C_30  and  O_35
REMARK                            x       y       z     vdW  Elec       q    Type
REMARK                         _______ _______ _______ _____ _____    ______ ____
ROOT
ATOM      1  C   UNL     1      34.091 -21.506 -19.495  0.00  0.00    +0.125 C 
ATOM      2  C   UNL     1      35.276 -19.501 -20.992  0.00  0.00    -0.020 C 
ATOM      3  C   UNL     1      35.469 -21.380 -19.484  0.00  0.00    +0.020 C 
ATOM      4  C   UNL     1      33.290 -20.654 -20.235  0.00  0.00    +0.020 C 
ATOM      5  C   UNL     1      36.066 -20.370 -20.239  0.00  0.00    -0.003 C 
ATOM      6  C   UNL     1      33.887 -19.643 -20.989  0.00  0.00    -0.003 C 
ENDROOT
BRANCH   1   7
ATOM      7  S   UNL     1      33.334 -22.787 -18.539  0.00  0.00    +0.077 S 
ATOM      8  O   UNL     1      33.466 -24.033 -19.270  0.00  0.00    -0.150 OA
ATOM      9  O   UNL     1      32.028 -22.300 -18.144  0.00  0.00    -0.150 OA
BRANCH   7  12
ATOM     10  O   UNL     1      33.182 -24.360 -15.865  0.00  0.00    -0.251 OA
ATOM     11  N   UNL     1      35.141 -23.438 -15.054  0.00  0.00    -0.289 N 
ATOM     12  N   UNL     1      34.360 -22.823 -17.171  0.00  0.00    -0.169 N 
ATOM     13  C   UNL     1      34.147 -23.613 -15.997  0.00  0.00    +0.319 C 
ATOM     14  H   UNL     1      35.876 -22.814 -15.254  0.00  0.00    +0.151 HD
ATOM     15  H   UNL     1      35.163 -22.254 -17.194  0.00  0.00    +0.178 HD
BRANCH  11  16
ATOM     16  C   UNL     1      35.152 -24.132 -13.785  0.00  0.00    +0.073 C 
ATOM     17  C   UNL     1      35.934 -23.340 -12.731  0.00  0.00    +0.020 C 
ATOM     18  C   UNL     1      35.705 -25.552 -13.937  0.00  0.00    +0.020 C 
ATOM     19  C   UNL     1      37.441 -23.360 -12.985  0.00  0.00    +0.002 C 
ATOM     20  C   UNL     1      37.213 -25.568 -14.190  0.00  0.00    +0.002 C 
ATOM     21  C   UNL     1      37.971 -24.784 -13.122  0.00  0.00    +0.000 C 
ENDBRANCH  11  16
ENDBRANCH   7  12
ENDBRANCH   1   7
BRANCH   2  22
ATOM     22  C   UNL     1      35.913 -18.422 -21.799  0.00  0.00    +0.048 C 
BRANCH  22  23
ATOM     23  C   UNL     1      35.629 -18.532 -23.303  0.00  0.00    +0.094 C 
BRANCH  23  25
ATOM     24  O   UNL     1      33.022 -18.069 -24.410  0.00  0.00    -0.270 OA
ATOM     25  N   UNL     1      35.139 -17.300 -23.857  0.00  0.00    -0.300 N 
ATOM     26  C   UNL     1      33.855 -17.168 -24.373  0.00  0.00    +0.249 C 
ATOM     27  H   UNL     1      35.736 -16.516 -23.873  0.00  0.00    +0.150 HD
BRANCH  26  29
ATOM     28 CL   UNL     1      33.421 -12.084 -23.612  0.00  0.00    -0.082 Cl
ATOM     29  C   UNL     1      33.509 -15.836 -24.935  0.00  0.00    +0.088 C 
ATOM     30  C   UNL     1      33.096 -15.731 -26.247  0.00  0.00    +0.143 C 
ATOM     31  C   UNL     1      33.617 -14.735 -24.108  0.00  0.00    +0.019 C 
ATOM     32  C   UNL     1      32.776 -14.473 -26.756  0.00  0.00    +0.038 C 
ATOM     33  C   UNL     1      33.298 -13.476 -24.617  0.00  0.00    +0.058 C 
ATOM     34  C   UNL     1      32.876 -13.345 -25.940  0.00  0.00    +0.015 C 
BRANCH  30  35
ATOM     35  O   UNL     1      32.991 -16.821 -27.060  0.00  0.00    -0.471 OA
ATOM     36  C   UNL     1      31.676 -17.224 -27.434  0.00  0.00    +0.252 C 
ENDBRANCH  30  35
ENDBRANCH  26  29
ENDBRANCH  23  25
ENDBRANCH  22  23
ENDBRANCH   2  22
TORSDOF 8
ENDMDL
MODEL 3
REMARK VINA RESULT:     -12.0      4.082     12.135
REMARK  Name = 3488
REMARK  8 active torsions:
REMARK  status: ('A' for Active; 'I' for Inactive)
REMARK    1  A    between atoms: C_1  and  S_7
REMARK    2  A    between atoms: C_2  and  C_22
REMARK    3  A    between atoms: S_7  and  N_12
REMARK    4  A    between atoms: N_11  and  C_16
REMARK    5  A    between atoms: C_22  and  C_23
REMARK    6  A    between atoms: C_23  and  N_25
REMARK    7  A    between atoms: C_26  and  C_29
REMARK    8  A    between atoms: C_30  and  O_35
REMARK                            x       y       z     vdW  Elec       q    Type
REMARK                         _______ _______ _______ _____ _____    ______ ____
ROOT
ATOM      1  C   UNL     1      34.014 -17.364 -24.016  0.00  0.00    +0.125 C 
ATOM      2  C   UNL     1      34.965 -18.681 -21.774  0.00  0.00    -0.020 C 
ATOM      3  C   UNL     1      33.911 -18.742 -23.948  0.00  0.00    +0.020 C 
ATOM      4  C   UNL     1      34.580 -16.628 -22.990  0.00  0.00    +0.020 C 
ATOM      5  C   UNL     1      34.391 -19.406 -22.818  0.00  0.00    -0.003 C 
ATOM      6  C   UNL     1      35.059 -17.291 -21.859  0.00  0.00    -0.003 C 
ENDROOT
BRANCH   1   7
ATOM      7  S   UNL     1      33.407 -16.522 -25.447  0.00  0.00    +0.077 S 
ATOM      8  O   UNL     1      32.017 -16.893 -25.632  0.00  0.00    -0.150 OA
ATOM      9  O   UNL     1      34.374 -16.742 -26.504  0.00  0.00    -0.150 OA
BRANCH   7  12
ATOM     10  O   UNL     1      32.806 -13.843 -26.900  0.00  0.00    -0.251 OA
ATOM     11  N   UNL     1      33.343 -12.564 -25.051  0.00  0.00    -0.289 N 
ATOM     12  N   UNL     1      33.494 -14.894 -24.932  0.00  0.00    -0.169 N 
ATOM     13  C   UNL     1      33.180 -13.753 -25.735  0.00  0.00    +0.319 C 
ATOM     14  H   UNL     1      33.650 -12.596 -24.117  0.00  0.00    +0.151 HD
ATOM     15  H   UNL     1      33.784 -14.730 -24.005  0.00  0.00    +0.178 HD
BRANCH  11  16
ATOM     16  C   UNL     1      33.083 -11.272 -25.649  0.00  0.00    +0.073 C 
ATOM     17  C   UNL     1      34.293 -10.784 -26.453  0.00  0.00    +0.020 C 
ATOM     18  C   UNL     1      32.671 -10.247 -24.588  0.00  0.00    +0.020 C 
ATOM     19  C   UNL     1      35.458 -10.363 -25.558  0.00  0.00    +0.002 C 
ATOM     20  C   UNL     1      33.840  -9.826 -23.696  0.00  0.00    +0.002 C 
ATOM     21  C   UNL     1      35.027  -9.333 -24.518  0.00  0.00    +0.000 C 
ENDBRANCH  11  16
ENDBRANCH   7  12
ENDBRANCH   1   7
BRANCH   2  22
ATOM     22  C   UNL     1      35.478 -19.391 -20.567  0.00  0.00    +0.048 C 
BRANCH  22  23
ATOM     23  C   UNL     1      35.117 -20.882 -20.532  0.00  0.00    +0.094 C 
BRANCH  23  25
ATOM     24  O   UNL     1      33.899 -23.396 -19.875  0.00  0.00    -0.270 OA
ATOM     25  N   UNL     1      34.669 -21.305 -19.233  0.00  0.00    -0.300 N 
ATOM     26  C   UNL     1      34.088 -22.546 -19.008  0.00  0.00    +0.249 C 
ATOM     27  H   UNL     1      34.777 -20.689 -18.472  0.00  0.00    +0.150 HD
BRANCH  26  29
ATOM     28 CL   UNL     1      30.198 -23.458 -15.746  0.00  0.00    -0.082 Cl
ATOM     29  C   UNL     1      33.653 -22.822 -17.615  0.00  0.00    +0.088 C 
ATOM     30  C   UNL     1      34.591 -22.905 -16.607  0.00  0.00    +0.143 C 
ATOM     31  C   UNL     1      32.302 -22.987 -17.377  0.00  0.00    +0.019 C 
ATOM     32  C   UNL     1      34.163 -23.164 -15.305  0.00  0.00    +0.038 C 
ATOM     33  C   UNL     1      31.875 -23.248 -16.075  0.00  0.00    +0.058 C 
ATOM     34  C   UNL     1      32.804 -23.335 -15.039  0.00  0.00    +0.015 C 
BRANCH  30  35
ATOM     35  O   UNL     1      35.923 -22.741 -16.846  0.00  0.00    -0.471 OA
ATOM     36  C   UNL     1      36.799 -22.840 -15.725  0.00  0.00    +0.252 C 
ENDBRANCH  30  35
ENDBRANCH  26  29
ENDBRANCH  23  25
ENDBRANCH  22  23
ENDBRANCH   2  22
TORSDOF 8
ENDMDL
MODEL 4
REMARK VINA RESULT:     -11.7      3.158      4.894
REMARK  Name = 3488
REMARK  8 active torsions:
REMARK  status: ('A' for Active; 'I' for Inactive)
REMARK    1  A    between atoms: C_1  and  S_7
REMARK    2  A    between atoms: C_2  and  C_22
REMARK    3  A    between atoms: S_7  and  N_12
REMARK    4  A    between atoms: N_11  and  C_16
REMARK    5  A    between atoms: C_22  and  C_23
REMARK    6  A    between atoms: C_23  and  N_25
REMARK    7  A    between atoms: C_26  and  C_29
REMARK    8  A    between atoms: C_30  and  O_35
REMARK                            x       y       z     vdW  Elec       q    Type
REMARK                         _______ _______ _______ _____ _____    ______ ____
ROOT
ATOM      1  C   UNL     1      35.852 -23.490 -15.297  0.00  0.00    +0.125 C 
ATOM      2  C   UNL     1      36.190 -21.924 -17.555  0.00  0.00    -0.020 C 
ATOM      3  C   UNL     1      34.762 -23.235 -16.111  0.00  0.00    +0.020 C 
ATOM      4  C   UNL     1      37.106 -22.982 -15.584  0.00  0.00    +0.020 C 
ATOM      5  C   UNL     1      34.933 -22.446 -17.249  0.00  0.00    -0.003 C 
ATOM      6  C   UNL     1      37.277 -22.193 -16.723  0.00  0.00    -0.003 C 
ENDROOT
BRANCH   1   7
ATOM      7  S   UNL     1      35.636 -24.490 -13.855  0.00  0.00    +0.077 S 
ATOM      8  O   UNL     1      35.650 -23.619 -12.696  0.00  0.00    -0.150 OA
ATOM      9  O   UNL     1      36.575 -25.589 -13.962  0.00  0.00    -0.150 OA
BRANCH   7  12
ATOM     10  O   UNL     1      32.854 -23.381 -13.032  0.00  0.00    -0.251 OA
ATOM     11  N   UNL     1      31.714 -25.148 -13.992  0.00  0.00    -0.289 N 
ATOM     12  N   UNL     1      34.049 -25.079 -14.100  0.00  0.00    -0.169 N 
ATOM     13  C   UNL     1      32.850 -24.441 -13.650  0.00  0.00    +0.319 C 
ATOM     14  H   UNL     1      31.816 -25.991 -14.489  0.00  0.00    +0.151 HD
ATOM     15  H   UNL     1      33.954 -25.927 -14.592  0.00  0.00    +0.178 HD
BRANCH  11  16
ATOM     16  C   UNL     1      30.380 -24.703 -13.652  0.00  0.00    +0.073 C 
ATOM     17  C   UNL     1      29.322 -25.492 -14.432  0.00  0.00    +0.020 C 
ATOM     18  C   UNL     1      30.227 -23.196 -13.877  0.00  0.00    +0.020 C 
ATOM     19  C   UNL     1      29.290 -25.118 -15.914  0.00  0.00    +0.002 C 
ATOM     20  C   UNL     1      30.193 -22.826 -15.360  0.00  0.00    +0.002 C 
ATOM     21  C   UNL     1      29.125 -23.614 -16.113  0.00  0.00    +0.000 C 
ENDBRANCH  11  16
ENDBRANCH   7  12
ENDBRANCH   1   7
BRANCH   2  22
ATOM     22  C   UNL     1      36.372 -21.080 -18.771  0.00  0.00    +0.048 C 
BRANCH  22  23
ATOM     23  C   UNL     1      35.267 -21.266 -19.818  0.00  0.00    +0.094 C 
BRANCH  23  25
ATOM     24  O   UNL     1      32.970 -19.959 -20.937  0.00  0.00    -0.270 OA
ATOM     25  N   UNL     1      35.270 -20.223 -20.807  0.00  0.00    -0.300 N 
ATOM     26  C   UNL     1      34.103 -19.646 -21.292  0.00  0.00    +0.249 C 
ATOM     27  H   UNL     1      36.135 -19.903 -21.155  0.00  0.00    +0.150 HD
BRANCH  26  29
ATOM     28 CL   UNL     1      33.800 -18.344 -26.274  0.00  0.00    -0.082 Cl
ATOM     29  C   UNL     1      34.274 -18.598 -22.332  0.00  0.00    +0.088 C 
ATOM     30  C   UNL     1      34.706 -17.338 -21.971  0.00  0.00    +0.143 C 
ATOM     31  C   UNL     1      33.991 -18.931 -23.642  0.00  0.00    +0.019 C 
ATOM     32  C   UNL     1      34.861 -16.369 -22.961  0.00  0.00    +0.038 C 
ATOM     33  C   UNL     1      34.145 -17.960 -24.632  0.00  0.00    +0.058 C 
ATOM     34  C   UNL     1      34.581 -16.680 -24.292  0.00  0.00    +0.015 C 
BRANCH  30  35
ATOM     35  O   UNL     1      34.985 -17.014 -20.677  0.00  0.00    -0.471 OA
ATOM     36  C   UNL     1      34.631 -15.701 -20.248  0.00  0.00    +0.252 C 
ENDBRANCH  30  35
ENDBRANCH  26  29
ENDBRANCH  23  25
ENDBRANCH  22  23
ENDBRANCH   2  22
TORSDOF 8
ENDMDL
MODEL 5
REMARK VINA RESULT:     -11.3      4.077     11.916
REMARK  Name = 3488
REMARK  8 active torsions:
REMARK  status: ('A' for Active; 'I' for Inactive)
REMARK    1  A    between atoms: C_1  and  S_7
REMARK    2  A    between atoms: C_2  and  C_22
REMARK    3  A    between atoms: S_7  and  N_12
REMARK    4  A    between atoms: N_11  and  C_16
REMARK    5  A    between atoms: C_22  and  C_23
REMARK    6  A    between atoms: C_23  and  N_25
REMARK    7  A    between atoms: C_26  and  C_29
REMARK    8  A    between atoms: C_30  and  O_35
REMARK                            x       y       z     vdW  Elec       q    Type
REMARK                         _______ _______ _______ _____ _____    ______ ____
ROOT
ATOM      1  C   UNL     1      34.839 -20.164 -20.209  0.00  0.00    +0.125 C 
ATOM      2  C   UNL     1      33.905 -22.332 -18.762  0.00  0.00    -0.020 C 
ATOM      3  C   UNL     1      33.483 -20.443 -20.210  0.00  0.00    +0.020 C 
ATOM      4  C   UNL     1      35.739 -20.941 -19.502  0.00  0.00    +0.020 C 
ATOM      5  C   UNL     1      33.013 -21.537 -19.480  0.00  0.00    -0.003 C 
ATOM      6  C   UNL     1      35.269 -22.034 -18.771  0.00  0.00    -0.003 C 
ENDROOT
BRANCH   1   7
ATOM      7  S   UNL     1      35.434 -18.780 -21.133  0.00  0.00    +0.077 S 
ATOM      8  O   UNL     1      36.697 -19.154 -21.742  0.00  0.00    -0.150 OA
ATOM      9  O   UNL     1      35.352 -17.625 -20.261  0.00  0.00    -0.150 OA
BRANCH   7  12
ATOM     10  O   UNL     1      35.603 -18.807 -24.235  0.00  0.00    -0.251 OA
ATOM     11  N   UNL     1      33.319 -18.564 -24.496  0.00  0.00    -0.289 N 
ATOM     12  N   UNL     1      34.237 -18.656 -22.347  0.00  0.00    -0.169 N 
ATOM     13  C   UNL     1      34.480 -18.685 -23.757  0.00  0.00    +0.319 C 
ATOM     14  H   UNL     1      32.464 -18.470 -24.019  0.00  0.00    +0.151 HD
ATOM     15  H   UNL     1      33.302 -18.559 -22.051  0.00  0.00    +0.178 HD
BRANCH  11  16
ATOM     16  C   UNL     1      33.305 -18.571 -25.943  0.00  0.00    +0.073 C 
ATOM     17  C   UNL     1      34.056 -17.358 -26.506  0.00  0.00    +0.020 C 
ATOM     18  C   UNL     1      31.873 -18.636 -26.480  0.00  0.00    +0.020 C 
ATOM     19  C   UNL     1      33.291 -16.051 -26.301  0.00  0.00    +0.002 C 
ATOM     20  C   UNL     1      31.111 -17.326 -26.276  0.00  0.00    +0.002 C 
ATOM     21  C   UNL     1      31.871 -16.136 -26.854  0.00  0.00    +0.000 C 
ENDBRANCH  11  16
ENDBRANCH   7  12
ENDBRANCH   1   7
BRANCH   2  22
ATOM     22  C   UNL     1      33.404 -23.500 -17.982  0.00  0.00    +0.048 C 
BRANCH  22  23
ATOM     23  C   UNL     1      33.323 -23.241 -16.472  0.00  0.00    +0.094 C 
BRANCH  23  25
ATOM     24  O   UNL     1      35.792 -22.192 -15.452  0.00  0.00    -0.270 OA
ATOM     25  N   UNL     1      34.326 -23.965 -15.740  0.00  0.00    -0.300 N 
ATOM     26  C   UNL     1      35.496 -23.372 -15.283  0.00  0.00    +0.249 C 
ATOM     27  H   UNL     1      34.179 -24.922 -15.555  0.00  0.00    +0.150 HD
BRANCH  26  29
ATOM     28 CL   UNL     1      40.106 -25.686 -15.204  0.00  0.00    -0.082 Cl
ATOM     29  C   UNL     1      36.445 -24.263 -14.566  0.00  0.00    +0.088 C 
ATOM     30  C   UNL     1      36.088 -24.808 -13.350  0.00  0.00    +0.143 C 
ATOM     31  C   UNL     1      37.668 -24.517 -15.154  0.00  0.00    +0.019 C 
ATOM     32  C   UNL     1      36.992 -25.643 -12.693  0.00  0.00    +0.038 C 
ATOM     33  C   UNL     1      38.572 -25.350 -14.496  0.00  0.00    +0.058 C 
ATOM     34  C   UNL     1      38.234 -25.914 -13.266  0.00  0.00    +0.015 C 
BRANCH  30  35
ATOM     35  O   UNL     1      34.879 -24.556 -12.773  0.00  0.00    -0.471 OA
ATOM     36  C   UNL     1      34.880 -24.242 -11.382  0.00  0.00    +0.252 C 
ENDBRANCH  30  35
ENDBRANCH  26  29
ENDBRANCH  23  25
ENDBRANCH  22  23
ENDBRANCH   2  22
TORSDOF 8
ENDMDL
MODEL 6
REMARK VINA RESULT:     -11.2      4.219     12.282
REMARK  Name = 3488
REMARK  8 active torsions:
REMARK  status: ('A' for Active; 'I' for Inactive)
REMARK    1  A    between atoms: C_1  and  S_7
REMARK    2  A    between atoms: C_2  and  C_22
REMARK    3  A    between atoms: S_7  and  N_12
REMARK    4  A    between atoms: N_11  and  C_16
REMARK    5  A    between atoms: C_22  and  C_23
REMARK    6  A    between atoms: C_23  and  N_25
REMARK    7  A    between atoms: C_26  and  C_29
REMARK    8  A    between atoms: C_30  and  O_35
REMARK                            x       y       z     vdW  Elec       q    Type
REMARK                         _______ _______ _______ _____ _____    ______ ____
ROOT
ATOM      1  C   UNL     1      33.960 -17.298 -24.090  0.00  0.00    +0.125 C 
ATOM      2  C   UNL     1      34.902 -18.657 -21.869  0.00  0.00    -0.020 C 
ATOM      3  C   UNL     1      33.819 -18.673 -24.030  0.00  0.00    +0.020 C 
ATOM      4  C   UNL     1      34.561 -16.585 -23.067  0.00  0.00    +0.020 C 
ATOM      5  C   UNL     1      34.293 -19.359 -22.910  0.00  0.00    -0.003 C 
ATOM      6  C   UNL     1      35.035 -17.270 -21.947  0.00  0.00    -0.003 C 
ENDROOT
BRANCH   1   7
ATOM      7  S   UNL     1      33.360 -16.431 -25.509  0.00  0.00    +0.077 S 
ATOM      8  O   UNL     1      31.975 -16.811 -25.717  0.00  0.00    -0.150 OA
ATOM      9  O   UNL     1      34.339 -16.617 -26.561  0.00  0.00    -0.150 OA
BRANCH   7  12
ATOM     10  O   UNL     1      32.839 -13.720 -26.934  0.00  0.00    -0.251 OA
ATOM     11  N   UNL     1      33.287 -12.481 -25.035  0.00  0.00    -0.289 N 
ATOM     12  N   UNL     1      33.426 -14.814 -24.956  0.00  0.00    -0.169 N 
ATOM     13  C   UNL     1      33.155 -13.656 -25.750  0.00  0.00    +0.319 C 
ATOM     14  H   UNL     1      33.546 -12.533 -24.087  0.00  0.00    +0.151 HD
ATOM     15  H   UNL     1      33.669 -14.670 -24.013  0.00  0.00    +0.178 HD
BRANCH  11  16
ATOM     16  C   UNL     1      33.061 -11.176 -25.618  0.00  0.00    +0.073 C 
ATOM     17  C   UNL     1      34.290 -10.703 -26.401  0.00  0.00    +0.020 C 
ATOM     18  C   UNL     1      32.657 -10.157 -24.548  0.00  0.00    +0.020 C 
ATOM     19  C   UNL     1      35.453 -10.318 -25.487  0.00  0.00    +0.002 C 
ATOM     20  C   UNL     1      33.823  -9.773 -23.637  0.00  0.00    +0.002 C 
ATOM     21  C   UNL     1      35.030  -9.294 -24.438  0.00  0.00    +0.000 C 
ENDBRANCH  11  16
ENDBRANCH   7  12
ENDBRANCH   1   7
BRANCH   2  22
ATOM     22  C   UNL     1      35.409 -19.388 -20.673  0.00  0.00    +0.048 C 
BRANCH  22  23
ATOM     23  C   UNL     1      34.852 -20.812 -20.542  0.00  0.00    +0.094 C 
BRANCH  23  25
ATOM     24  O   UNL     1      33.711 -23.260 -19.572  0.00  0.00    -0.270 OA
ATOM     25  N   UNL     1      34.820 -21.262 -19.177  0.00  0.00    -0.300 N 
ATOM     26  C   UNL     1      34.243 -22.468 -18.799  0.00  0.00    +0.249 C 
ATOM     27  H   UNL     1      35.223 -20.693 -18.481  0.00  0.00    +0.150 HD
BRANCH  26  29
ATOM     28 CL   UNL     1      37.049 -23.173 -14.528  0.00  0.00    -0.082 Cl
ATOM     29  C   UNL     1      34.267 -22.777 -17.346  0.00  0.00    +0.088 C 
ATOM     30  C   UNL     1      33.085 -23.009 -16.674  0.00  0.00    +0.143 C 
ATOM     31  C   UNL     1      35.493 -22.822 -16.712  0.00  0.00    +0.019 C 
ATOM     32  C   UNL     1      33.128 -23.297 -15.310  0.00  0.00    +0.038 C 
ATOM     33  C   UNL     1      35.536 -23.109 -15.347  0.00  0.00    +0.058 C 
ATOM     34  C   UNL     1      34.354 -23.348 -14.647  0.00  0.00    +0.015 C 
BRANCH  30  35
ATOM     35  O   UNL     1      31.876 -22.964 -17.303  0.00  0.00    -0.471 OA
ATOM     36  C   UNL     1      30.715 -23.041 -16.480  0.00  0.00    +0.252 C 
ENDBRANCH  30  35
ENDBRANCH  26  29
ENDBRANCH  23  25
ENDBRANCH  22  23
ENDBRANCH   2  22
TORSDOF 8
ENDMDL
MODEL 7
REMARK VINA RESULT:     -11.0      3.320      5.268
REMARK  Name = 3488
REMARK  8 active torsions:
REMARK  status: ('A' for Active; 'I' for Inactive)
REMARK    1  A    between atoms: C_1  and  S_7
REMARK    2  A    between atoms: C_2  and  C_22
REMARK    3  A    between atoms: S_7  and  N_12
REMARK    4  A    between atoms: N_11  and  C_16
REMARK    5  A    between atoms: C_22  and  C_23
REMARK    6  A    between atoms: C_23  and  N_25
REMARK    7  A    between atoms: C_26  and  C_29
REMARK    8  A    between atoms: C_30  and  O_35
REMARK                            x       y       z     vdW  Elec       q    Type
REMARK                         _______ _______ _______ _____ _____    ______ ____
ROOT
ATOM      1  C   UNL     1      35.838 -23.503 -15.420  0.00  0.00    +0.125 C 
ATOM      2  C   UNL     1      36.131 -21.880 -17.644  0.00  0.00    -0.020 C 
ATOM      3  C   UNL     1      37.067 -22.921 -15.674  0.00  0.00    +0.020 C 
ATOM      4  C   UNL     1      34.751 -23.293 -16.251  0.00  0.00    +0.020 C 
ATOM      5  C   UNL     1      37.215 -22.103 -16.795  0.00  0.00    -0.003 C 
ATOM      6  C   UNL     1      34.898 -22.475 -17.371  0.00  0.00    -0.003 C 
ENDROOT
BRANCH   1   7
ATOM      7  S   UNL     1      35.650 -24.539 -14.000  0.00  0.00    +0.077 S 
ATOM      8  O   UNL     1      35.703 -23.698 -12.819  0.00  0.00    -0.150 OA
ATOM      9  O   UNL     1      36.577 -25.642 -14.160  0.00  0.00    -0.150 OA
BRANCH   7  12
ATOM     10  O   UNL     1      32.904 -23.446 -13.045  0.00  0.00    -0.251 OA
ATOM     11  N   UNL     1      31.721 -25.166 -14.040  0.00  0.00    -0.289 N 
ATOM     12  N   UNL     1      34.053 -25.107 -14.218  0.00  0.00    -0.169 N 
ATOM     13  C   UNL     1      32.873 -24.480 -13.705  0.00  0.00    +0.319 C 
ATOM     14  H   UNL     1      31.801 -25.989 -14.573  0.00  0.00    +0.151 HD
ATOM     15  H   UNL     1      33.935 -25.933 -14.741  0.00  0.00    +0.178 HD
BRANCH  11  16
ATOM     16  C   UNL     1      30.402 -24.727 -13.640  0.00  0.00    +0.073 C 
ATOM     17  C   UNL     1      29.314 -25.495 -14.400  0.00  0.00    +0.020 C 
ATOM     18  C   UNL     1      30.245 -23.215 -13.824  0.00  0.00    +0.020 C 
ATOM     19  C   UNL     1      29.228 -25.086 -15.870  0.00  0.00    +0.002 C 
ATOM     20  C   UNL     1      30.157 -22.810 -15.295  0.00  0.00    +0.002 C 
ATOM     21  C   UNL     1      29.060 -23.577 -16.026  0.00  0.00    +0.000 C 
ENDBRANCH  11  16
ENDBRANCH   7  12
ENDBRANCH   1   7
BRANCH   2  22
ATOM     22  C   UNL     1      36.289 -21.007 -18.843  0.00  0.00    +0.048 C 
BRANCH  22  23
ATOM     23  C   UNL     1      35.310 -21.339 -19.977  0.00  0.00    +0.094 C 
BRANCH  23  25
ATOM     24  O   UNL     1      37.023 -19.224 -20.887  0.00  0.00    -0.270 OA
ATOM     25  N   UNL     1      34.913 -20.171 -20.714  0.00  0.00    -0.300 N 
ATOM     26  C   UNL     1      35.816 -19.194 -21.115  0.00  0.00    +0.249 C 
ATOM     27  H   UNL     1      33.962 -20.058 -20.945  0.00  0.00    +0.150 HD
BRANCH  26  29
ATOM     28 CL   UNL     1      34.359 -14.247 -21.006  0.00  0.00    -0.082 Cl
ATOM     29  C   UNL     1      35.243 -18.035 -21.847  0.00  0.00    +0.088 C 
ATOM     30  C   UNL     1      34.880 -18.170 -23.171  0.00  0.00    +0.143 C 
ATOM     31  C   UNL     1      35.094 -16.845 -21.162  0.00  0.00    +0.019 C 
ATOM     32  C   UNL     1      34.344 -17.071 -23.840  0.00  0.00    +0.038 C 
ATOM     33  C   UNL     1      34.558 -15.745 -21.832  0.00  0.00    +0.058 C 
ATOM     34  C   UNL     1      34.183 -15.857 -23.170  0.00  0.00    +0.015 C 
BRANCH  30  35
ATOM     35  O   UNL     1      35.030 -19.347 -23.843  0.00  0.00    -0.471 OA
ATOM     36  C   UNL     1      34.274 -19.507 -25.042  0.00  0.00    +0.252 C 
ENDBRANCH  30  35
ENDBRANCH  26  29
ENDBRANCH  23  25
ENDBRANCH  22  23
ENDBRANCH   2  22
TORSDOF 8
ENDMDL
MODEL 8
REMARK VINA RESULT:     -10.9      4.700     12.369
REMARK  Name = 3488
REMARK  8 active torsions:
REMARK  status: ('A' for Active; 'I' for Inactive)
REMARK    1  A    between atoms: C_1  and  S_7
REMARK    2  A    between atoms: C_2  and  C_22
REMARK    3  A    between atoms: S_7  and  N_12
REMARK    4  A    between atoms: N_11  and  C_16
REMARK    5  A    between atoms: C_22  and  C_23
REMARK    6  A    between atoms: C_23  and  N_25
REMARK    7  A    between atoms: C_26  and  C_29
REMARK    8  A    between atoms: C_30  and  O_35
REMARK                            x       y       z     vdW  Elec       q    Type
REMARK                         _______ _______ _______ _____ _____    ______ ____
ROOT
ATOM      1  C   UNL     1      33.141 -16.535 -25.773  0.00  0.00    +0.125 C 
ATOM      2  C   UNL     1      34.090 -18.397 -23.957  0.00  0.00    -0.020 C 
ATOM      3  C   UNL     1      32.884 -17.878 -25.986  0.00  0.00    +0.020 C 
ATOM      4  C   UNL     1      33.860 -16.099 -24.674  0.00  0.00    +0.020 C 
ATOM      5  C   UNL     1      33.363 -18.816 -25.071  0.00  0.00    -0.003 C 
ATOM      6  C   UNL     1      34.338 -17.037 -23.758  0.00  0.00    -0.003 C 
ENDROOT
BRANCH   1   7
ATOM      7  S   UNL     1      32.535 -15.346 -26.933  0.00  0.00    +0.077 S 
ATOM      8  O   UNL     1      31.117 -15.584 -27.123  0.00  0.00    -0.150 OA
ATOM      9  O   UNL     1      33.442 -15.363 -28.064  0.00  0.00    -0.150 OA
BRANCH   7  12
ATOM     10  O   UNL     1      32.771 -12.384 -27.838  0.00  0.00    -0.251 OA
ATOM     11  N   UNL     1      33.019 -11.602 -25.677  0.00  0.00    -0.289 N 
ATOM     12  N   UNL     1      32.752 -13.894 -26.057  0.00  0.00    -0.169 N 
ATOM     13  C   UNL     1      32.844 -12.586 -26.630  0.00  0.00    +0.319 C 
ATOM     14  H   UNL     1      33.066 -11.866 -24.730  0.00  0.00    +0.151 HD
ATOM     15  H   UNL     1      32.818 -13.964 -25.077  0.00  0.00    +0.178 HD
BRANCH  11  16
ATOM     16  C   UNL     1      33.134 -10.198 -26.009  0.00  0.00    +0.073 C 
ATOM     17  C   UNL     1      34.560  -9.853 -26.453  0.00  0.00    +0.020 C 
ATOM     18  C   UNL     1      32.689  -9.316 -24.839  0.00  0.00    +0.020 C 
ATOM     19  C   UNL     1      35.554  -9.870 -25.292  0.00  0.00    +0.002 C 
ATOM     20  C   UNL     1      33.686  -9.334 -23.680  0.00  0.00    +0.002 C 
ATOM     21  C   UNL     1      35.094  -8.976 -24.144  0.00  0.00    +0.000 C 
ENDBRANCH  11  16
ENDBRANCH   7  12
ENDBRANCH   1   7
BRANCH   2  22
ATOM     22  C   UNL     1      34.602 -19.399 -22.979  0.00  0.00    +0.048 C 
BRANCH  22  23
ATOM     23  C   UNL     1      35.146 -18.773 -21.688  0.00  0.00    +0.094 C 
BRANCH  23  25
ATOM     24  O   UNL     1      36.762 -20.989 -20.840  0.00  0.00    -0.270 OA
ATOM     25  N   UNL     1      34.922 -19.609 -20.540  0.00  0.00    -0.300 N 
ATOM     26  C   UNL     1      35.761 -20.664 -20.205  0.00  0.00    +0.249 C 
ATOM     27  H   UNL     1      34.142 -19.427 -19.967  0.00  0.00    +0.150 HD
BRANCH  26  29
ATOM     28 CL   UNL     1      37.124 -22.554 -15.603  0.00  0.00    -0.082 Cl
ATOM     29  C   UNL     1      35.378 -21.450 -19.004  0.00  0.00    +0.088 C 
ATOM     30  C   UNL     1      34.114 -21.995 -18.916  0.00  0.00    +0.143 C 
ATOM     31  C   UNL     1      36.317 -21.606 -18.004  0.00  0.00    +0.019 C 
ATOM     32  C   UNL     1      33.772 -22.730 -17.781  0.00  0.00    +0.038 C 
ATOM     33  C   UNL     1      35.975 -22.340 -16.867  0.00  0.00    +0.058 C 
ATOM     34  C   UNL     1      34.703 -22.902 -16.756  0.00  0.00    +0.015 C 
BRANCH  30  35
ATOM     35  O   UNL     1      33.189 -21.838 -19.906  0.00  0.00    -0.471 OA
ATOM     36  C   UNL     1      32.192 -20.839 -19.707  0.00  0.00    +0.252 C 
ENDBRANCH  30  35
ENDBRANCH  26  29
ENDBRANCH  23  25
ENDBRANCH  22  23
ENDBRANCH   2  22
TORSDOF 8
ENDMDL
MODEL 9
REMARK VINA RESULT:     -10.9      2.650      3.779
REMARK  Name = 3488
REMARK  8 active torsions:
REMARK  status: ('A' for Active; 'I' for Inactive)
REMARK    1  A    between atoms: C_1  and  S_7
REMARK    2  A    between atoms: C_2  and  C_22
REMARK    3  A    between atoms: S_7  and  N_12
REMARK    4  A    between atoms: N_11  and  C_16
REMARK    5  A    between atoms: C_22  and  C_23
REMARK    6  A    between atoms: C_23  and  N_25
REMARK    7  A    between atoms: C_26  and  C_29
REMARK    8  A    between atoms: C_30  and  O_35
REMARK                            x       y       z     vdW  Elec       q    Type
REMARK                         _______ _______ _______ _____ _____    ______ ____
ROOT
ATOM      1  C   UNL     1      32.082 -23.596 -15.667  0.00  0.00    +0.125 C 
ATOM      2  C   UNL     1      32.391 -22.392 -18.141  0.00  0.00    -0.020 C 
ATOM      3  C   UNL     1      30.981 -23.031 -16.286  0.00  0.00    +0.020 C 
ATOM      4  C   UNL     1      33.335 -23.574 -16.256  0.00  0.00    +0.020 C 
ATOM      5  C   UNL     1      31.136 -22.424 -17.533  0.00  0.00    -0.003 C 
ATOM      6  C   UNL     1      33.491 -22.968 -17.503  0.00  0.00    -0.003 C 
ENDROOT
BRANCH   1   7
ATOM      7  S   UNL     1      31.885 -24.364 -14.087  0.00  0.00    +0.077 S 
ATOM      8  O   UNL     1      30.870 -25.392 -14.210  0.00  0.00    -0.150 OA
ATOM      9  O   UNL     1      31.739 -23.297 -13.117  0.00  0.00    -0.150 OA
BRANCH   7  12
ATOM     10  O   UNL     1      34.572 -23.307 -12.942  0.00  0.00    -0.251 OA
ATOM     11  N   UNL     1      35.669 -25.310 -13.301  0.00  0.00    -0.289 N 
ATOM     12  N   UNL     1      33.415 -25.101 -13.889  0.00  0.00    -0.169 N 
ATOM     13  C   UNL     1      34.574 -24.469 -13.337  0.00  0.00    +0.319 C 
ATOM     14  H   UNL     1      35.570 -26.228 -13.643  0.00  0.00    +0.151 HD
ATOM     15  H   UNL     1      33.505 -26.038 -14.178  0.00  0.00    +0.178 HD
BRANCH  11  16
ATOM     16  C   UNL     1      36.956 -24.902 -12.781  0.00  0.00    +0.073 C 
ATOM     17  C   UNL     1      37.475 -23.659 -13.512  0.00  0.00    +0.020 C 
ATOM     18  C   UNL     1      37.967 -26.051 -12.851  0.00  0.00    +0.020 C 
ATOM     19  C   UNL     1      37.921 -23.965 -14.941  0.00  0.00    +0.002 C 
ATOM     20  C   UNL     1      38.412 -26.352 -14.282  0.00  0.00    +0.002 C 
ATOM     21  C   UNL     1      38.936 -25.103 -14.984  0.00  0.00    +0.000 C 
ENDBRANCH  11  16
ENDBRANCH   7  12
ENDBRANCH   1   7
BRANCH   2  22
ATOM     22  C   UNL     1      32.558 -21.743 -19.474  0.00  0.00    +0.048 C 
BRANCH  22  23
ATOM     23  C   UNL     1      33.882 -20.983 -19.624  0.00  0.00    +0.094 C 
BRANCH  23  25
ATOM     24  O   UNL     1      35.972 -19.167 -20.380  0.00  0.00    -0.270 OA
ATOM     25  N   UNL     1      33.858 -20.056 -20.723  0.00  0.00    -0.300 N 
ATOM     26  C   UNL     1      34.921 -19.211 -21.015  0.00  0.00    +0.249 C 
ATOM     27  H   UNL     1      33.055 -20.018 -21.292  0.00  0.00    +0.150 HD
BRANCH  26  29
ATOM     28 CL   UNL     1      34.114 -18.667 -26.080  0.00  0.00    -0.082 Cl
ATOM     29  C   UNL     1      34.730 -18.293 -22.167  0.00  0.00    +0.088 C 
ATOM     30  C   UNL     1      34.748 -16.928 -21.967  0.00  0.00    +0.143 C 
ATOM     31  C   UNL     1      34.538 -18.850 -23.416  0.00  0.00    +0.019 C 
ATOM     32  C   UNL     1      34.566 -16.082 -23.061  0.00  0.00    +0.038 C 
ATOM     33  C   UNL     1      34.356 -18.004 -24.510  0.00  0.00    +0.058 C 
ATOM     34  C   UNL     1      34.371 -16.621 -24.333  0.00  0.00    +0.015 C 
BRANCH  30  35
ATOM     35  O   UNL     1      34.938 -16.382 -20.732  0.00  0.00    -0.471 OA
ATOM     36  C   UNL     1      34.515 -15.033 -20.549  0.00  0.00    +0.252 C 
ENDBRANCH  30  35
ENDBRANCH  26  29
ENDBRANCH  23  25
ENDBRANCH  22  23
ENDBRANCH   2  22
TORSDOF 8
ENDMDL
