MODEL 1
REMARK VINA RESULT:     -12.9      0.000      0.000
REMARK  Name = 9969613
REMARK  5 active torsions:
REMARK  status: ('A' for Active; 'I' for Inactive)
REMARK    1  A    between atoms: C_3  and  O_7
REMARK    2  A    between atoms: C_4  and  O_17
REMARK    3  A    between atoms: O_7  and  C_13
REMARK    4  A    between atoms: O_17  and  C_21
REMARK    5  A    between atoms: C_18  and  N_24
REMARK                            x       y       z     vdW  Elec       q    Type
REMARK                         _______ _______ _______ _____ _____    ______ ____
ROOT
ATOM      1  N   UNL     1      34.260 -23.263 -16.740  0.00  0.00    -0.283 NA
ATOM      2  N   UNL     1      31.921 -23.286 -17.323  0.00  0.00    -0.151 NA
ATOM      3  C   UNL     1      33.887 -23.217 -15.452  0.00  0.00    +0.296 C 
ATOM      4  C   UNL     1      33.236 -23.295 -17.615  0.00  0.00    +0.260 C 
ATOM      5  C   UNL     1      32.587 -23.202 -15.011  0.00  0.00    +0.094 C 
ATOM      6  C   UNL     1      31.631 -23.238 -16.005  0.00  0.00    +0.119 C 
ENDROOT
BRANCH   3   7
ATOM      7  O   UNL     1      34.906 -23.182 -14.514  0.00  0.00    -0.427 OA
BRANCH   7  13
ATOM      8  O   UNL     1      39.510 -24.613 -14.602  0.00  0.00    -0.435 OA
ATOM      9  O   UNL     1      38.875 -26.928 -14.819  0.00  0.00    -0.435 OA
ATOM     10  C   UNL     1      38.159 -24.779 -14.630  0.00  0.00    +0.179 C 
ATOM     11  C   UNL     1      37.796 -26.101 -14.753  0.00  0.00    +0.177 C 
ATOM     12  C   UNL     1      37.218 -23.773 -14.547  0.00  0.00    +0.078 C 
ATOM     13  C   UNL     1      35.870 -24.140 -14.593  0.00  0.00    +0.151 C 
ATOM     14  C   UNL     1      36.473 -26.489 -14.801  0.00  0.00    +0.043 C 
ATOM     15  C   UNL     1      39.957 -25.978 -14.722  0.00  0.00    +0.429 C 
ATOM     16  C   UNL     1      35.500 -25.489 -14.720  0.00  0.00    +0.041 C 
ENDBRANCH   7  13
ENDBRANCH   3   7
BRANCH   4  17
ATOM     17  O   UNL     1      33.569 -23.344 -18.949  0.00  0.00    -0.383 OA
BRANCH  17  21
ATOM     18  C   UNL     1      34.220 -19.724 -20.872  0.00  0.00    +0.057 C 
ATOM     19  C   UNL     1      32.918 -20.146 -20.603  0.00  0.00    +0.018 C 
ATOM     20  C   UNL     1      35.303 -20.518 -20.496  0.00  0.00    +0.018 C 
ATOM     21  C   UNL     1      33.786 -22.142 -19.587  0.00  0.00    +0.160 C 
ATOM     22  C   UNL     1      32.700 -21.363 -19.956  0.00  0.00    +0.040 C 
ATOM     23  C   UNL     1      35.084 -21.735 -19.849  0.00  0.00    +0.040 C 
BRANCH  18  24
ATOM     24  N   UNL     1      34.437 -18.518 -21.513  0.00  0.00    -0.246 N 
ATOM     25  N   UNL     1      34.522 -17.006 -23.148  0.00  0.00    -0.224 NA
ATOM     26  C   UNL     1      34.906 -17.362 -20.943  0.00  0.00    +0.092 C 
ATOM     27  C   UNL     1      34.222 -18.248 -22.841  0.00  0.00    +0.172 C 
ATOM     28  C   UNL     1      34.949 -16.448 -21.969  0.00  0.00    +0.117 C 
ENDBRANCH  18  24
ENDBRANCH  17  21
ENDBRANCH   4  17
TORSDOF 5
ENDMDL
MODEL 2
REMARK VINA RESULT:     -12.3      2.736      5.437
REMARK  Name = 9969613
REMARK  5 active torsions:
REMARK  status: ('A' for Active; 'I' for Inactive)
REMARK    1  A    between atoms: C_3  and  O_7
REMARK    2  A    between atoms: C_4  and  O_17
REMARK    3  A    between atoms: O_7  and  C_13
REMARK    4  A    between atoms: O_17  and  C_21
REMARK    5  A    between atoms: C_18  and  N_24
REMARK                            x       y       z     vdW  Elec       q    Type
REMARK                         _______ _______ _______ _____ _____    ______ ____
ROOT
ATOM      1  N   UNL     1      33.021 -23.495 -16.481  0.00  0.00    -0.283 NA
ATOM      2  N   UNL     1      35.294 -22.828 -16.927  0.00  0.00    -0.151 NA
ATOM      3  C   UNL     1      33.306 -23.407 -15.172  0.00  0.00    +0.296 C 
ATOM      4  C   UNL     1      34.051 -23.194 -17.295  0.00  0.00    +0.260 C 
ATOM      5  C   UNL     1      34.526 -23.046 -14.656  0.00  0.00    +0.094 C 
ATOM      6  C   UNL     1      35.497 -22.763 -15.594  0.00  0.00    +0.119 C 
ENDROOT
BRANCH   3   7
ATOM      7  O   UNL     1      32.277 -23.707 -14.295  0.00  0.00    -0.427 OA
BRANCH   7  13
ATOM      8  O   UNL     1      28.598 -22.145 -16.992  0.00  0.00    -0.435 OA
ATOM      9  O   UNL     1      27.256 -24.064 -16.427  0.00  0.00    -0.435 OA
ATOM     10  C   UNL     1      29.246 -23.000 -16.156  0.00  0.00    +0.179 C 
ATOM     11  C   UNL     1      28.480 -24.097 -15.833  0.00  0.00    +0.177 C 
ATOM     12  C   UNL     1      30.523 -22.835 -15.659  0.00  0.00    +0.078 C 
ATOM     13  C   UNL     1      31.022 -23.826 -14.809  0.00  0.00    +0.151 C 
ATOM     14  C   UNL     1      28.948 -25.089 -14.995  0.00  0.00    +0.043 C 
ATOM     15  C   UNL     1      27.338 -22.825 -17.160  0.00  0.00    +0.429 C 
ATOM     16  C   UNL     1      30.239 -24.945 -14.479  0.00  0.00    +0.041 C 
ENDBRANCH   7  13
ENDBRANCH   3   7
BRANCH   4  17
ATOM     17  O   UNL     1      33.808 -23.269 -18.647  0.00  0.00    -0.383 OA
BRANCH  17  21
ATOM     18  C   UNL     1      34.280 -19.785 -20.853  0.00  0.00    +0.057 C 
ATOM     19  C   UNL     1      33.006 -20.196 -20.463  0.00  0.00    +0.018 C 
ATOM     20  C   UNL     1      35.396 -20.545 -20.502  0.00  0.00    +0.018 C 
ATOM     21  C   UNL     1      33.965 -22.112 -19.379  0.00  0.00    +0.160 C 
ATOM     22  C   UNL     1      32.848 -21.367 -19.721  0.00  0.00    +0.040 C 
ATOM     23  C   UNL     1      35.237 -21.716 -19.761  0.00  0.00    +0.040 C 
BRANCH  18  24
ATOM     24  N   UNL     1      34.438 -18.624 -21.588  0.00  0.00    -0.246 N 
ATOM     25  N   UNL     1      34.392 -17.228 -23.325  0.00  0.00    -0.224 NA
ATOM     26  C   UNL     1      34.930 -17.428 -21.131  0.00  0.00    +0.092 C 
ATOM     27  C   UNL     1      34.130 -18.449 -22.913  0.00  0.00    +0.172 C 
ATOM     28  C   UNL     1      34.891 -16.587 -22.219  0.00  0.00    +0.117 C 
ENDBRANCH  18  24
ENDBRANCH  17  21
ENDBRANCH   4  17
TORSDOF 5
ENDMDL
MODEL 3
REMARK VINA RESULT:     -11.7      1.188      1.377
REMARK  Name = 9969613
REMARK  5 active torsions:
REMARK  status: ('A' for Active; 'I' for Inactive)
REMARK    1  A    between atoms: C_3  and  O_7
REMARK    2  A    between atoms: C_4  and  O_17
REMARK    3  A    between atoms: O_7  and  C_13
REMARK    4  A    between atoms: O_17  and  C_21
REMARK    5  A    between atoms: C_18  and  N_24
REMARK                            x       y       z     vdW  Elec       q    Type
REMARK                         _______ _______ _______ _____ _____    ______ ____
ROOT
ATOM      1  N   UNL     1      35.205 -22.521 -17.402  0.00  0.00    -0.283 NA
ATOM      2  N   UNL     1      33.233 -23.122 -18.651  0.00  0.00    -0.151 NA
ATOM      3  C   UNL     1      34.524 -22.818 -16.283  0.00  0.00    +0.296 C 
ATOM      4  C   UNL     1      34.505 -22.694 -18.540  0.00  0.00    +0.260 C 
ATOM      5  C   UNL     1      33.227 -23.264 -16.248  0.00  0.00    +0.094 C 
ATOM      6  C   UNL     1      32.621 -23.399 -17.480  0.00  0.00    +0.119 C 
ENDROOT
BRANCH   3   7
ATOM      7  O   UNL     1      35.203 -22.656 -15.087  0.00  0.00    -0.427 OA
BRANCH   7  13
ATOM      8  O   UNL     1      39.580 -24.675 -15.230  0.00  0.00    -0.435 OA
ATOM      9  O   UNL     1      38.904 -26.449 -13.745  0.00  0.00    -0.435 OA
ATOM     10  C   UNL     1      38.279 -24.561 -14.847  0.00  0.00    +0.179 C 
ATOM     11  C   UNL     1      37.893 -25.573 -13.998  0.00  0.00    +0.177 C 
ATOM     12  C   UNL     1      37.405 -23.566 -15.233  0.00  0.00    +0.078 C 
ATOM     13  C   UNL     1      36.101 -23.616 -14.733  0.00  0.00    +0.151 C 
ATOM     14  C   UNL     1      36.611 -25.647 -13.491  0.00  0.00    +0.043 C 
ATOM     15  C   UNL     1      39.969 -25.873 -14.528  0.00  0.00    +0.429 C 
ATOM     16  C   UNL     1      35.707 -24.651 -13.868  0.00  0.00    +0.041 C 
ENDBRANCH   7  13
ENDBRANCH   3   7
BRANCH   4  17
ATOM     17  O   UNL     1      35.160 -22.403 -19.714  0.00  0.00    -0.383 OA
BRANCH  17  21
ATOM     18  C   UNL     1      34.914 -18.498 -21.102  0.00  0.00    +0.057 C 
ATOM     19  C   UNL     1      33.750 -19.233 -20.876  0.00  0.00    +0.018 C 
ATOM     20  C   UNL     1      36.161 -19.076 -20.862  0.00  0.00    +0.018 C 
ATOM     21  C   UNL     1      35.078 -21.106 -20.175  0.00  0.00    +0.160 C 
ATOM     22  C   UNL     1      33.833 -20.545 -20.409  0.00  0.00    +0.040 C 
ATOM     23  C   UNL     1      36.243 -20.388 -20.395  0.00  0.00    +0.040 C 
BRANCH  18  24
ATOM     24  N   UNL     1      34.833 -17.198 -21.564  0.00  0.00    -0.246 N 
ATOM     25  N   UNL     1      34.808 -15.484 -22.989  0.00  0.00    -0.224 NA
ATOM     26  C   UNL     1      34.639 -16.072 -20.806  0.00  0.00    +0.092 C 
ATOM     27  C   UNL     1      34.927 -16.788 -22.870  0.00  0.00    +0.172 C 
ATOM     28  C   UNL     1      34.628 -15.031 -21.706  0.00  0.00    +0.117 C 
ENDBRANCH  18  24
ENDBRANCH  17  21
ENDBRANCH   4  17
TORSDOF 5
ENDMDL
MODEL 4
REMARK VINA RESULT:     -11.5      3.761      7.348
REMARK  Name = 9969613
REMARK  5 active torsions:
REMARK  status: ('A' for Active; 'I' for Inactive)
REMARK    1  A    between atoms: C_3  and  O_7
REMARK    2  A    between atoms: C_4  and  O_17
REMARK    3  A    between atoms: O_7  and  C_13
REMARK    4  A    between atoms: O_17  and  C_21
REMARK    5  A    between atoms: C_18  and  N_24
REMARK                            x       y       z     vdW  Elec       q    Type
REMARK                         _______ _______ _______ _____ _____    ______ ____
ROOT
ATOM      1  N   UNL     1      33.884 -24.307 -14.666  0.00  0.00    -0.283 NA
ATOM      2  N   UNL     1      34.273 -23.961 -12.312  0.00  0.00    -0.151 NA
ATOM      3  C   UNL     1      35.102 -23.789 -14.892  0.00  0.00    +0.296 C 
ATOM      4  C   UNL     1      33.536 -24.363 -13.366  0.00  0.00    +0.260 C 
ATOM      5  C   UNL     1      35.958 -23.341 -13.916  0.00  0.00    +0.094 C 
ATOM      6  C   UNL     1      35.484 -23.453 -12.625  0.00  0.00    +0.119 C 
ENDROOT
BRANCH   3   7
ATOM      7  O   UNL     1      35.504 -23.710 -16.215  0.00  0.00    -0.427 OA
BRANCH   7  13
ATOM      8  O   UNL     1      34.671 -20.708 -19.895  0.00  0.00    -0.435 OA
ATOM      9  O   UNL     1      32.296 -21.095 -19.786  0.00  0.00    -0.435 OA
ATOM     10  C   UNL     1      34.336 -21.582 -18.909  0.00  0.00    +0.179 C 
ATOM     11  C   UNL     1      32.979 -21.804 -18.846  0.00  0.00    +0.177 C 
ATOM     12  C   UNL     1      35.212 -22.203 -18.043  0.00  0.00    +0.078 C 
ATOM     13  C   UNL     1      34.677 -23.074 -17.090  0.00  0.00    +0.151 C 
ATOM     14  C   UNL     1      32.424 -22.659 -17.915  0.00  0.00    +0.043 C 
ATOM     15  C   UNL     1      33.375 -20.403 -20.447  0.00  0.00    +0.429 C 
ATOM     16  C   UNL     1      33.291 -23.300 -17.026  0.00  0.00    +0.041 C 
ENDBRANCH   7  13
ENDBRANCH   3   7
BRANCH   4  17
ATOM     17  O   UNL     1      32.296 -24.887 -13.084  0.00  0.00    -0.383 OA
BRANCH  17  21
ATOM     18  C   UNL     1      29.104 -23.533 -15.366  0.00  0.00    +0.057 C 
ATOM     19  C   UNL     1      29.988 -22.620 -14.793  0.00  0.00    +0.018 C 
ATOM     20  C   UNL     1      29.292 -24.902 -15.173  0.00  0.00    +0.018 C 
ATOM     21  C   UNL     1      31.236 -24.438 -13.842  0.00  0.00    +0.160 C 
ATOM     22  C   UNL     1      31.061 -23.075 -14.026  0.00  0.00    +0.040 C 
ATOM     23  C   UNL     1      30.365 -25.357 -14.405  0.00  0.00    +0.040 C 
BRANCH  18  24
ATOM     24  N   UNL     1      28.041 -23.083 -16.127  0.00  0.00    -0.246 N 
ATOM     25  N   UNL     1      26.673 -22.841 -17.870  0.00  0.00    -0.224 NA
ATOM     26  C   UNL     1      27.068 -22.201 -15.731  0.00  0.00    +0.092 C 
ATOM     27  C   UNL     1      27.755 -23.437 -17.421  0.00  0.00    +0.172 C 
ATOM     28  C   UNL     1      26.240 -22.068 -16.821  0.00  0.00    +0.117 C 
ENDBRANCH  18  24
ENDBRANCH  17  21
ENDBRANCH   4  17
TORSDOF 5
ENDMDL
MODEL 5
REMARK VINA RESULT:     -11.4      2.511      5.109
REMARK  Name = 9969613
REMARK  5 active torsions:
REMARK  status: ('A' for Active; 'I' for Inactive)
REMARK    1  A    between atoms: C_3  and  O_7
REMARK    2  A    between atoms: C_4  and  O_17
REMARK    3  A    between atoms: O_7  and  C_13
REMARK    4  A    between atoms: O_17  and  C_21
REMARK    5  A    between atoms: C_18  and  N_24
REMARK                            x       y       z     vdW  Elec       q    Type
REMARK                         _______ _______ _______ _____ _____    ______ ____
ROOT
ATOM      1  N   UNL     1      33.854 -23.487 -16.802  0.00  0.00    -0.283 NA
ATOM      2  N   UNL     1      35.865 -22.278 -17.354  0.00  0.00    -0.151 NA
ATOM      3  C   UNL     1      34.240 -23.442 -15.517  0.00  0.00    +0.296 C 
ATOM      4  C   UNL     1      34.705 -22.892 -17.659  0.00  0.00    +0.260 C 
ATOM      5  C   UNL     1      35.393 -22.851 -15.064  0.00  0.00    +0.094 C 
ATOM      6  C   UNL     1      36.179 -22.276 -16.041  0.00  0.00    +0.119 C 
ENDROOT
BRANCH   3   7
ATOM      7  O   UNL     1      33.396 -24.042 -14.597  0.00  0.00    -0.427 OA
BRANCH   7  13
ATOM      8  O   UNL     1      29.534 -22.356 -16.943  0.00  0.00    -0.435 OA
ATOM      9  O   UNL     1      28.046 -23.781 -15.693  0.00  0.00    -0.435 OA
ATOM     10  C   UNL     1      30.196 -23.128 -16.039  0.00  0.00    +0.179 C 
ATOM     11  C   UNL     1      29.347 -23.943 -15.325  0.00  0.00    +0.177 C 
ATOM     12  C   UNL     1      31.559 -23.134 -15.822  0.00  0.00    +0.078 C 
ATOM     13  C   UNL     1      32.057 -24.001 -14.846  0.00  0.00    +0.151 C 
ATOM     14  C   UNL     1      29.813 -24.808 -14.356  0.00  0.00    +0.043 C 
ATOM     15  C   UNL     1      28.173 -22.775 -16.719  0.00  0.00    +0.429 C 
ATOM     16  C   UNL     1      31.190 -24.832 -14.117  0.00  0.00    +0.041 C 
ENDBRANCH   7  13
ENDBRANCH   3   7
BRANCH   4  17
ATOM     17  O   UNL     1      34.353 -22.912 -18.989  0.00  0.00    -0.383 OA
BRANCH  17  21
ATOM     18  C   UNL     1      34.506 -19.308 -21.043  0.00  0.00    +0.057 C 
ATOM     19  C   UNL     1      35.686 -19.980 -20.725  0.00  0.00    +0.018 C 
ATOM     20  C   UNL     1      33.274 -19.848 -20.672  0.00  0.00    +0.018 C 
ATOM     21  C   UNL     1      34.403 -21.716 -19.671  0.00  0.00    +0.160 C 
ATOM     22  C   UNL     1      35.634 -21.192 -20.034  0.00  0.00    +0.040 C 
ATOM     23  C   UNL     1      33.223 -21.059 -19.981  0.00  0.00    +0.040 C 
BRANCH  18  24
ATOM     24  N   UNL     1      34.557 -18.108 -21.728  0.00  0.00    -0.246 N 
ATOM     25  N   UNL     1      34.459 -16.663 -23.422  0.00  0.00    -0.224 NA
ATOM     26  C   UNL     1      34.827 -16.874 -21.195  0.00  0.00    +0.092 C 
ATOM     27  C   UNL     1      34.342 -17.924 -23.070  0.00  0.00    +0.172 C 
ATOM     28  C   UNL     1      34.761 -16.002 -22.257  0.00  0.00    +0.117 C 
ENDBRANCH  18  24
ENDBRANCH  17  21
ENDBRANCH   4  17
TORSDOF 5
ENDMDL
MODEL 6
REMARK VINA RESULT:     -11.1      8.010     11.242
REMARK  Name = 9969613
REMARK  5 active torsions:
REMARK  status: ('A' for Active; 'I' for Inactive)
REMARK    1  A    between atoms: C_3  and  O_7
REMARK    2  A    between atoms: C_4  and  O_17
REMARK    3  A    between atoms: O_7  and  C_13
REMARK    4  A    between atoms: O_17  and  C_21
REMARK    5  A    between atoms: C_18  and  N_24
REMARK                            x       y       z     vdW  Elec       q    Type
REMARK                         _______ _______ _______ _____ _____    ______ ____
ROOT
ATOM      1  N   UNL     1      33.813 -16.380 -26.648  0.00  0.00    -0.283 NA
ATOM      2  N   UNL     1      31.590 -16.562 -27.562  0.00  0.00    -0.151 NA
ATOM      3  C   UNL     1      33.601 -17.554 -26.032  0.00  0.00    +0.296 C 
ATOM      4  C   UNL     1      32.775 -15.946 -27.389  0.00  0.00    +0.260 C 
ATOM      5  C   UNL     1      32.445 -18.289 -26.119  0.00  0.00    +0.094 C 
ATOM      6  C   UNL     1      31.458 -17.737 -26.909  0.00  0.00    +0.119 C 
ENDROOT
BRANCH   3   7
ATOM      7  O   UNL     1      34.641 -18.041 -25.256  0.00  0.00    -0.427 OA
BRANCH   7  13
ATOM      8  O   UNL     1      34.434 -14.702 -21.783  0.00  0.00    -0.435 OA
ATOM      9  O   UNL     1      34.831 -16.343 -20.064  0.00  0.00    -0.435 OA
ATOM     10  C   UNL     1      34.581 -15.956 -22.290  0.00  0.00    +0.179 C 
ATOM     11  C   UNL     1      34.806 -16.894 -21.308  0.00  0.00    +0.177 C 
ATOM     12  C   UNL     1      34.519 -16.304 -23.624  0.00  0.00    +0.078 C 
ATOM     13  C   UNL     1      34.694 -17.650 -23.953  0.00  0.00    +0.151 C 
ATOM     14  C   UNL     1      34.984 -18.230 -21.606  0.00  0.00    +0.043 C 
ATOM     15  C   UNL     1      34.594 -14.955 -20.373  0.00  0.00    +0.429 C 
ATOM     16  C   UNL     1      34.926 -18.607 -22.950  0.00  0.00    +0.041 C 
ENDBRANCH   7  13
ENDBRANCH   3   7
BRANCH   4  17
ATOM     17  O   UNL     1      32.944 -14.747 -28.041  0.00  0.00    -0.383 OA
BRANCH  17  21
ATOM     18  C   UNL     1      33.865 -11.438 -25.709  0.00  0.00    +0.057 C 
ATOM     19  C   UNL     1      34.286 -11.494 -27.037  0.00  0.00    +0.018 C 
ATOM     20  C   UNL     1      33.134 -12.495 -25.163  0.00  0.00    +0.018 C 
ATOM     21  C   UNL     1      33.250 -13.648 -27.266  0.00  0.00    +0.160 C 
ATOM     22  C   UNL     1      33.976 -12.606 -27.821  0.00  0.00    +0.040 C 
ATOM     23  C   UNL     1      32.825 -13.606 -25.947  0.00  0.00    +0.040 C 
BRANCH  18  24
ATOM     24  N   UNL     1      34.171 -10.336 -24.931  0.00  0.00    -0.246 N 
ATOM     25  N   UNL     1      35.376  -8.723 -23.976  0.00  0.00    -0.224 NA
ATOM     26  C   UNL     1      33.297  -9.607 -24.167  0.00  0.00    +0.092 C 
ATOM     27  C   UNL     1      35.408  -9.761 -24.781  0.00  0.00    +0.172 C 
ATOM     28  C   UNL     1      34.063  -8.621 -23.589  0.00  0.00    +0.117 C 
ENDBRANCH  18  24
ENDBRANCH  17  21
ENDBRANCH   4  17
TORSDOF 5
ENDMDL
MODEL 7
REMARK VINA RESULT:     -10.7      8.028     11.427
REMARK  Name = 9969613
REMARK  5 active torsions:
REMARK  status: ('A' for Active; 'I' for Inactive)
REMARK    1  A    between atoms: C_3  and  O_7
REMARK    2  A    between atoms: C_4  and  O_17
REMARK    3  A    between atoms: O_7  and  C_13
REMARK    4  A    between atoms: O_17  and  C_21
REMARK    5  A    between atoms: C_18  and  N_24
REMARK                            x       y       z     vdW  Elec       q    Type
REMARK                         _______ _______ _______ _____ _____    ______ ____
ROOT
ATOM      1  N   UNL     1      33.601 -15.935 -26.938  0.00  0.00    -0.283 NA
ATOM      2  N   UNL     1      31.380 -15.311 -27.636  0.00  0.00    -0.151 NA
ATOM      3  C   UNL     1      33.111 -17.149 -26.640  0.00  0.00    +0.296 C 
ATOM      4  C   UNL     1      32.689 -15.073 -27.428  0.00  0.00    +0.260 C 
ATOM      5  C   UNL     1      31.802 -17.528 -26.801  0.00  0.00    +0.094 C 
ATOM      6  C   UNL     1      30.968 -16.555 -27.311  0.00  0.00    +0.119 C 
ENDROOT
BRANCH   3   7
ATOM      7  O   UNL     1      34.012 -18.070 -26.132  0.00  0.00    -0.427 OA
BRANCH   7  13
ATOM      8  O   UNL     1      34.616 -15.796 -21.923  0.00  0.00    -0.435 OA
ATOM      9  O   UNL     1      34.932 -17.875 -20.747  0.00  0.00    -0.435 OA
ATOM     10  C   UNL     1      34.532 -16.874 -22.749  0.00  0.00    +0.179 C 
ATOM     11  C   UNL     1      34.712 -18.063 -22.077  0.00  0.00    +0.177 C 
ATOM     12  C   UNL     1      34.296 -16.838 -24.108  0.00  0.00    +0.078 C 
ATOM     13  C   UNL     1      34.243 -18.056 -24.791  0.00  0.00    +0.151 C 
ATOM     14  C   UNL     1      34.666 -19.279 -22.728  0.00  0.00    +0.043 C 
ATOM     15  C   UNL     1      34.869 -16.437 -20.657  0.00  0.00    +0.429 C 
ATOM     16  C   UNL     1      34.428 -19.269 -24.105  0.00  0.00    +0.041 C 
ENDBRANCH   7  13
ENDBRANCH   3   7
BRANCH   4  17
ATOM     17  O   UNL     1      33.143 -13.815 -27.749  0.00  0.00    -0.383 OA
BRANCH  17  21
ATOM     18  C   UNL     1      32.961 -10.918 -24.782  0.00  0.00    +0.057 C 
ATOM     19  C   UNL     1      32.782 -10.560 -26.118  0.00  0.00    +0.018 C 
ATOM     20  C   UNL     1      33.201 -12.250 -24.443  0.00  0.00    +0.018 C 
ATOM     21  C   UNL     1      33.083 -12.853 -26.764  0.00  0.00    +0.160 C 
ATOM     22  C   UNL     1      32.843 -11.534 -27.115  0.00  0.00    +0.040 C 
ATOM     23  C   UNL     1      33.262 -13.223 -25.440  0.00  0.00    +0.040 C 
BRANCH  18  24
ATOM     24  N   UNL     1      32.900  -9.953 -23.793  0.00  0.00    -0.246 N 
ATOM     25  N   UNL     1      32.222  -8.876 -21.963  0.00  0.00    -0.224 NA
ATOM     26  C   UNL     1      33.700  -8.845 -23.682  0.00  0.00    +0.092 C 
ATOM     27  C   UNL     1      32.028  -9.923 -22.734  0.00  0.00    +0.172 C 
ATOM     28  C   UNL     1      33.263  -8.199 -22.549  0.00  0.00    +0.117 C 
ENDBRANCH  18  24
ENDBRANCH  17  21
ENDBRANCH   4  17
TORSDOF 5
ENDMDL
MODEL 8
REMARK VINA RESULT:     -10.5      2.235      3.255
REMARK  Name = 9969613
REMARK  5 active torsions:
REMARK  status: ('A' for Active; 'I' for Inactive)
REMARK    1  A    between atoms: C_3  and  O_7
REMARK    2  A    between atoms: C_4  and  O_17
REMARK    3  A    between atoms: O_7  and  C_13
REMARK    4  A    between atoms: O_17  and  C_21
REMARK    5  A    between atoms: C_18  and  N_24
REMARK                            x       y       z     vdW  Elec       q    Type
REMARK                         _______ _______ _______ _____ _____    ______ ____
ROOT
ATOM      1  N   UNL     1      34.739 -22.775 -18.138  0.00  0.00    -0.283 NA
ATOM      2  N   UNL     1      36.539 -21.182 -18.318  0.00  0.00    -0.151 NA
ATOM      3  C   UNL     1      35.042 -22.893 -16.836  0.00  0.00    +0.296 C 
ATOM      4  C   UNL     1      35.520 -21.910 -18.814  0.00  0.00    +0.260 C 
ATOM      5  C   UNL     1      36.051 -22.214 -16.199  0.00  0.00    +0.094 C 
ATOM      6  C   UNL     1      36.778 -21.360 -17.001  0.00  0.00    +0.119 C 
ENDROOT
BRANCH   3   7
ATOM      7  O   UNL     1      34.265 -23.772 -16.099  0.00  0.00    -0.427 OA
BRANCH   7  13
ATOM      8  O   UNL     1      34.543 -23.762 -11.285  0.00  0.00    -0.435 OA
ATOM      9  O   UNL     1      36.210 -25.501 -11.291  0.00  0.00    -0.435 OA
ATOM     10  C   UNL     1      34.859 -24.169 -12.544  0.00  0.00    +0.179 C 
ATOM     11  C   UNL     1      35.811 -25.164 -12.548  0.00  0.00    +0.177 C 
ATOM     12  C   UNL     1      34.318 -23.678 -13.714  0.00  0.00    +0.078 C 
ATOM     13  C   UNL     1      34.770 -24.225 -14.918  0.00  0.00    +0.151 C 
ATOM     14  C   UNL     1      36.274 -25.721 -13.723  0.00  0.00    +0.043 C 
ATOM     15  C   UNL     1      35.402 -24.609 -10.497  0.00  0.00    +0.429 C 
ATOM     16  C   UNL     1      35.743 -25.240 -14.922  0.00  0.00    +0.041 C 
ENDBRANCH   7  13
ENDBRANCH   3   7
BRANCH   4  17
ATOM     17  O   UNL     1      35.248 -21.754 -20.153  0.00  0.00    -0.383 OA
BRANCH  17  21
ATOM     18  C   UNL     1      34.789 -17.873 -21.553  0.00  0.00    +0.057 C 
ATOM     19  C   UNL     1      33.666 -18.638 -21.239  0.00  0.00    +0.018 C 
ATOM     20  C   UNL     1      36.067 -18.412 -21.396  0.00  0.00    +0.018 C 
ATOM     21  C   UNL     1      35.096 -20.465 -20.618  0.00  0.00    +0.160 C 
ATOM     22  C   UNL     1      33.821 -19.943 -20.768  0.00  0.00    +0.040 C 
ATOM     23  C   UNL     1      36.221 -19.716 -20.926  0.00  0.00    +0.040 C 
BRANCH  18  24
ATOM     24  N   UNL     1      34.637 -16.580 -22.019  0.00  0.00    -0.246 N 
ATOM     25  N   UNL     1      34.388 -14.365 -21.993  0.00  0.00    -0.224 NA
ATOM     26  C   UNL     1      34.579 -16.186 -23.331  0.00  0.00    +0.092 C 
ATOM     27  C   UNL     1      34.517 -15.446 -21.256  0.00  0.00    +0.172 C 
ATOM     28  C   UNL     1      34.426 -14.819 -23.288  0.00  0.00    +0.117 C 
ENDBRANCH  18  24
ENDBRANCH  17  21
ENDBRANCH   4  17
TORSDOF 5
ENDMDL
MODEL 9
REMARK VINA RESULT:     -10.4      5.189      9.246
REMARK  Name = 9969613
REMARK  5 active torsions:
REMARK  status: ('A' for Active; 'I' for Inactive)
REMARK    1  A    between atoms: C_3  and  O_7
REMARK    2  A    between atoms: C_4  and  O_17
REMARK    3  A    between atoms: O_7  and  C_13
REMARK    4  A    between atoms: O_17  and  C_21
REMARK    5  A    between atoms: C_18  and  N_24
REMARK                            x       y       z     vdW  Elec       q    Type
REMARK                         _______ _______ _______ _____ _____    ______ ____
ROOT
ATOM      1  N   UNL     1      34.531 -16.485 -23.014  0.00  0.00    -0.283 NA
ATOM      2  N   UNL     1      34.245 -14.535 -21.625  0.00  0.00    -0.151 NA
ATOM      3  C   UNL     1      34.874 -17.161 -21.906  0.00  0.00    +0.296 C 
ATOM      4  C   UNL     1      34.231 -15.188 -22.803  0.00  0.00    +0.260 C 
ATOM      5  C   UNL     1      34.930 -16.623 -20.644  0.00  0.00    +0.094 C 
ATOM      6  C   UNL     1      34.601 -15.287 -20.562  0.00  0.00    +0.119 C 
ENDROOT
BRANCH   3   7
ATOM      7  O   UNL     1      35.192 -18.499 -22.072  0.00  0.00    -0.427 OA
BRANCH   7  13
ATOM      8  O   UNL     1      34.983 -22.134 -18.911  0.00  0.00    -0.435 OA
ATOM      9  O   UNL     1      32.576 -22.199 -19.014  0.00  0.00    -0.435 OA
ATOM     10  C   UNL     1      34.477 -21.200 -19.761  0.00  0.00    +0.179 C 
ATOM     11  C   UNL     1      33.102 -21.236 -19.819  0.00  0.00    +0.177 C 
ATOM     12  C   UNL     1      35.211 -20.296 -20.501  0.00  0.00    +0.078 C 
ATOM     13  C   UNL     1      34.510 -19.409 -21.323  0.00  0.00    +0.151 C 
ATOM     14  C   UNL     1      32.386 -20.371 -20.623  0.00  0.00    +0.043 C 
ATOM     15  C   UNL     1      33.774 -22.763 -18.441  0.00  0.00    +0.429 C 
ATOM     16  C   UNL     1      33.107 -19.447 -21.384  0.00  0.00    +0.041 C 
ENDBRANCH   7  13
ENDBRANCH   3   7
BRANCH   4  17
ATOM     17  O   UNL     1      33.872 -14.454 -23.909  0.00  0.00    -0.383 OA
BRANCH  17  21
ATOM     18  C   UNL     1      32.579 -10.563 -23.260  0.00  0.00    +0.057 C 
ATOM     19  C   UNL     1      33.634 -10.810 -24.138  0.00  0.00    +0.018 C 
ATOM     20  C   UNL     1      31.958 -11.624 -22.600  0.00  0.00    +0.018 C 
ATOM     21  C   UNL     1      33.443 -13.162 -23.693  0.00  0.00    +0.160 C 
ATOM     22  C   UNL     1      34.069 -12.117 -24.356  0.00  0.00    +0.040 C 
ATOM     23  C   UNL     1      32.393 -12.931 -22.818  0.00  0.00    +0.040 C 
BRANCH  18  24
ATOM     24  N   UNL     1      32.148  -9.267 -23.043  0.00  0.00    -0.246 N 
ATOM     25  N   UNL     1      30.805  -7.577 -22.489  0.00  0.00    -0.224 NA
ATOM     26  C   UNL     1      32.877  -8.121 -23.230  0.00  0.00    +0.092 C 
ATOM     27  C   UNL     1      30.909  -8.883 -22.596  0.00  0.00    +0.172 C 
ATOM     28  C   UNL     1      32.029  -7.096 -22.883  0.00  0.00    +0.117 C 
ENDBRANCH  18  24
ENDBRANCH  17  21
ENDBRANCH   4  17
TORSDOF 5
ENDMDL
