MODEL 1
REMARK VINA RESULT:     -12.6      0.000      0.000
REMARK  Name = 107971
REMARK  9 active torsions:
REMARK  status: ('A' for Active; 'I' for Inactive)
REMARK    1  A    between atoms: C_3  and  O_20
REMARK    2  A    between atoms: C_10  and  C_12
REMARK    3  A    between atoms: C_17  and  O_18
REMARK    4  A    between atoms: O_20  and  C_26
REMARK    5  A    between atoms: C_22  and  O_27
REMARK    6  A    between atoms: C_23  and  O_29
REMARK    7  A    between atoms: C_24  and  O_31
REMARK    8  A    between atoms: C_25  and  C_33
REMARK    9  A    between atoms: C_33  and  O_34
REMARK                            x       y       z     vdW  Elec       q    Type
REMARK                         _______ _______ _______ _____ _____    ______ ____
ROOT
ATOM      1  O   UNL     1      35.958 -21.600 -18.628  0.00  0.00    -0.450 OA
ATOM      2  O   UNL     1      32.394 -20.728 -20.412  0.00  0.00    -0.286 OA
ATOM      3  C   UNL     1      33.741 -23.535 -16.480  0.00  0.00    +0.144 C 
ATOM      4  C   UNL     1      34.892 -22.968 -17.025  0.00  0.00    +0.075 C 
ATOM      5  C   UNL     1      32.492 -23.263 -17.042  0.00  0.00    +0.037 C 
ATOM      6  C   UNL     1      34.793 -22.128 -18.135  0.00  0.00    +0.151 C 
ATOM      7  C   UNL     1      33.546 -21.856 -18.696  0.00  0.00    +0.074 C 
ATOM      8  C   UNL     1      32.390 -22.423 -18.151  0.00  0.00    +0.009 C 
ATOM      9  C   UNL     1      33.466 -20.968 -19.871  0.00  0.00    +0.202 C 
ATOM     10  C   UNL     1      34.752 -20.401 -20.361  0.00  0.00    +0.077 C 
ATOM     11  C   UNL     1      35.869 -20.758 -19.710  0.00  0.00    +0.183 C 
ENDROOT
BRANCH  10  12
ATOM     12  C   UNL     1      34.809 -19.471 -21.502  0.00  0.00    +0.006 C 
ATOM     13  C   UNL     1      34.729 -19.958 -22.809  0.00  0.00    +0.003 C 
ATOM     14  C   UNL     1      34.943 -18.099 -21.280  0.00  0.00    +0.003 C 
ATOM     15  C   UNL     1      34.784 -19.077 -23.888  0.00  0.00    +0.037 C 
ATOM     16  C   UNL     1      34.999 -17.218 -22.359  0.00  0.00    +0.037 C 
ATOM     17  C   UNL     1      34.919 -17.706 -23.664  0.00  0.00    +0.134 C 
BRANCH  17  18
ATOM     18  O   UNL     1      34.972 -16.846 -24.717  0.00  0.00    -0.506 OA
ATOM     19  H   UNL     1      35.788 -16.453 -24.959  0.00  0.00    +0.292 HD
ENDBRANCH  17  18
ENDBRANCH  10  12
BRANCH   3  20
ATOM     20  O   UNL     1      33.833 -24.355 -15.395  0.00  0.00    -0.450 OA
BRANCH  20  26
ATOM     21  O   UNL     1      36.043 -24.695 -14.727  0.00  0.00    -0.316 OA
ATOM     22  C   UNL     1      35.368 -24.259 -11.970  0.00  0.00    +0.173 C 
ATOM     23  C   UNL     1      36.705 -24.860 -12.401  0.00  0.00    +0.169 C 
ATOM     24  C   UNL     1      34.303 -24.445 -13.051  0.00  0.00    +0.210 C 
ATOM     25  C   UNL     1      37.088 -24.383 -13.804  0.00  0.00    +0.177 C 
ATOM     26  C   UNL     1      34.825 -24.019 -14.424  0.00  0.00    +0.318 C 
BRANCH  22  27
ATOM     27  O   UNL     1      34.951 -24.921 -10.774  0.00  0.00    -0.379 OA
ATOM     28  H   UNL     1      35.079 -24.330 -10.016  0.00  0.00    +0.211 HD
ENDBRANCH  22  27
BRANCH  23  29
ATOM     29  O   UNL     1      37.718 -24.467 -11.478  0.00  0.00    -0.379 OA
ATOM     30  H   UNL     1      37.336 -23.872 -10.814  0.00  0.00    +0.211 HD
ENDBRANCH  23  29
BRANCH  24  31
ATOM     31  O   UNL     1      33.164 -23.644 -12.738  0.00  0.00    -0.377 OA
ATOM     32  H   UNL     1      32.474 -23.790 -13.403  0.00  0.00    +0.211 HD
ENDBRANCH  24  31
BRANCH  25  33
ATOM     33  C   UNL     1      38.361 -25.059 -14.303  0.00  0.00    +0.169 C 
BRANCH  33  34
ATOM     34  O   UNL     1      38.542 -26.264 -13.582  0.00  0.00    -0.379 OA
ATOM     35  H   UNL     1      37.687 -26.709 -13.478  0.00  0.00    +0.211 HD
ENDBRANCH  33  34
ENDBRANCH  25  33
ENDBRANCH  20  26
ENDBRANCH   3  20
TORSDOF 9
ENDMDL
MODEL 2
REMARK VINA RESULT:     -12.2      1.151      2.127
REMARK  Name = 107971
REMARK  9 active torsions:
REMARK  status: ('A' for Active; 'I' for Inactive)
REMARK    1  A    between atoms: C_3  and  O_20
REMARK    2  A    between atoms: C_10  and  C_12
REMARK    3  A    between atoms: C_17  and  O_18
REMARK    4  A    between atoms: O_20  and  C_26
REMARK    5  A    between atoms: C_22  and  O_27
REMARK    6  A    between atoms: C_23  and  O_29
REMARK    7  A    between atoms: C_24  and  O_31
REMARK    8  A    between atoms: C_25  and  C_33
REMARK    9  A    between atoms: C_33  and  O_34
REMARK                            x       y       z     vdW  Elec       q    Type
REMARK                         _______ _______ _______ _____ _____    ______ ____
ROOT
ATOM      1  O   UNL     1      32.628 -21.076 -20.074  0.00  0.00    -0.450 OA
ATOM      2  O   UNL     1      36.396 -19.666 -20.754  0.00  0.00    -0.286 OA
ATOM      3  C   UNL     1      34.410 -22.892 -17.467  0.00  0.00    +0.144 C 
ATOM      4  C   UNL     1      33.386 -22.419 -18.286  0.00  0.00    +0.075 C 
ATOM      5  C   UNL     1      35.721 -22.453 -17.660  0.00  0.00    +0.037 C 
ATOM      6  C   UNL     1      33.675 -21.506 -19.300  0.00  0.00    +0.151 C 
ATOM      7  C   UNL     1      34.985 -21.067 -19.494  0.00  0.00    +0.074 C 
ATOM      8  C   UNL     1      36.013 -21.540 -18.674  0.00  0.00    +0.009 C 
ATOM      9  C   UNL     1      35.266 -20.099 -20.569  0.00  0.00    +0.202 C 
ATOM     10  C   UNL     1      34.105 -19.674 -21.398  0.00  0.00    +0.077 C 
ATOM     11  C   UNL     1      32.906 -20.189 -21.086  0.00  0.00    +0.183 C 
ENDROOT
BRANCH  10  12
ATOM     12  C   UNL     1      34.253 -18.741 -22.528  0.00  0.00    +0.006 C 
ATOM     13  C   UNL     1      34.636 -17.417 -22.299  0.00  0.00    +0.003 C 
ATOM     14  C   UNL     1      34.011 -19.178 -23.833  0.00  0.00    +0.003 C 
ATOM     15  C   UNL     1      34.776 -16.535 -23.370  0.00  0.00    +0.037 C 
ATOM     16  C   UNL     1      34.151 -18.294 -24.903  0.00  0.00    +0.037 C 
ATOM     17  C   UNL     1      34.534 -16.973 -24.672  0.00  0.00    +0.134 C 
BRANCH  17  18
ATOM     18  O   UNL     1      34.670 -16.111 -25.716  0.00  0.00    -0.506 OA
ATOM     19  H   UNL     1      34.108 -16.187 -26.462  0.00  0.00    +0.292 HD
ENDBRANCH  17  18
ENDBRANCH  10  12
BRANCH   3  20
ATOM     20  O   UNL     1      34.132 -23.786 -16.476  0.00  0.00    -0.450 OA
BRANCH  20  26
ATOM     21  O   UNL     1      36.076 -24.708 -15.575  0.00  0.00    -0.316 OA
ATOM     22  C   UNL     1      35.101 -24.365 -12.895  0.00  0.00    +0.173 C 
ATOM     23  C   UNL     1      36.317 -25.232 -13.220  0.00  0.00    +0.169 C 
ATOM     24  C   UNL     1      34.202 -24.192 -14.120  0.00  0.00    +0.210 C 
ATOM     25  C   UNL     1      37.010 -24.740 -14.494  0.00  0.00    +0.177 C 
ATOM     26  C   UNL     1      35.012 -23.787 -15.351  0.00  0.00    +0.318 C 
BRANCH  22  27
ATOM     27  O   UNL     1      34.366 -25.009 -11.853  0.00  0.00    -0.379 OA
ATOM     28  H   UNL     1      33.473 -24.632 -11.807  0.00  0.00    +0.211 HD
ENDBRANCH  22  27
BRANCH  23  29
ATOM     29  O   UNL     1      37.238 -25.179 -12.133  0.00  0.00    -0.379 OA
ATOM     30  H   UNL     1      37.717 -24.336 -12.157  0.00  0.00    +0.211 HD
ENDBRANCH  23  29
BRANCH  24  31
ATOM     31  O   UNL     1      33.240 -23.170 -13.861  0.00  0.00    -0.377 OA
ATOM     32  H   UNL     1      33.682 -22.404 -13.463  0.00  0.00    +0.211 HD
ENDBRANCH  24  31
BRANCH  25  33
ATOM     33  C   UNL     1      38.157 -25.659 -14.903  0.00  0.00    +0.169 C 
BRANCH  33  34
ATOM     34  O   UNL     1      37.808 -26.990 -14.570  0.00  0.00    -0.379 OA
ATOM     35  H   UNL     1      37.746 -27.076 -13.606  0.00  0.00    +0.211 HD
ENDBRANCH  33  34
ENDBRANCH  25  33
ENDBRANCH  20  26
ENDBRANCH   3  20
TORSDOF 9
ENDMDL
MODEL 3
REMARK VINA RESULT:     -11.1      1.523      2.683
REMARK  Name = 107971
REMARK  9 active torsions:
REMARK  status: ('A' for Active; 'I' for Inactive)
REMARK    1  A    between atoms: C_3  and  O_20
REMARK    2  A    between atoms: C_10  and  C_12
REMARK    3  A    between atoms: C_17  and  O_18
REMARK    4  A    between atoms: O_20  and  C_26
REMARK    5  A    between atoms: C_22  and  O_27
REMARK    6  A    between atoms: C_23  and  O_29
REMARK    7  A    between atoms: C_24  and  O_31
REMARK    8  A    between atoms: C_25  and  C_33
REMARK    9  A    between atoms: C_33  and  O_34
REMARK                            x       y       z     vdW  Elec       q    Type
REMARK                         _______ _______ _______ _____ _____    ______ ____
ROOT
ATOM      1  O   UNL     1      32.391 -20.795 -20.706  0.00  0.00    -0.450 OA
ATOM      2  O   UNL     1      36.160 -19.322 -21.227  0.00  0.00    -0.286 OA
ATOM      3  C   UNL     1      34.139 -22.758 -18.183  0.00  0.00    +0.144 C 
ATOM      4  C   UNL     1      33.127 -22.241 -18.990  0.00  0.00    +0.075 C 
ATOM      5  C   UNL     1      35.450 -22.300 -18.325  0.00  0.00    +0.037 C 
ATOM      6  C   UNL     1      33.427 -21.265 -19.941  0.00  0.00    +0.151 C 
ATOM      7  C   UNL     1      34.737 -20.807 -20.082  0.00  0.00    +0.074 C 
ATOM      8  C   UNL     1      35.753 -21.324 -19.274  0.00  0.00    +0.009 C 
ATOM      9  C   UNL     1      35.030 -19.773 -21.091  0.00  0.00    +0.202 C 
ATOM     10  C   UNL     1      33.881 -19.304 -21.913  0.00  0.00    +0.077 C 
ATOM     11  C   UNL     1      32.681 -19.845 -21.656  0.00  0.00    +0.183 C 
ENDROOT
BRANCH  10  12
ATOM     12  C   UNL     1      34.043 -18.302 -22.980  0.00  0.00    +0.006 C 
ATOM     13  C   UNL     1      33.739 -18.632 -24.303  0.00  0.00    +0.003 C 
ATOM     14  C   UNL     1      34.500 -17.019 -22.672  0.00  0.00    +0.003 C 
ATOM     15  C   UNL     1      33.893 -17.682 -25.313  0.00  0.00    +0.037 C 
ATOM     16  C   UNL     1      34.654 -16.070 -23.682  0.00  0.00    +0.037 C 
ATOM     17  C   UNL     1      34.351 -16.401 -25.003  0.00  0.00    +0.134 C 
BRANCH  17  18
ATOM     18  O   UNL     1      34.501 -15.475 -25.989  0.00  0.00    -0.506 OA
ATOM     19  H   UNL     1      35.300 -14.991 -26.058  0.00  0.00    +0.292 HD
ENDBRANCH  17  18
ENDBRANCH  10  12
BRANCH   3  20
ATOM     20  O   UNL     1      33.850 -23.713 -17.254  0.00  0.00    -0.450 OA
BRANCH  20  26
ATOM     21  O   UNL     1      35.284 -23.738 -15.414  0.00  0.00    -0.316 OA
ATOM     22  C   UNL     1      33.073 -23.802 -13.583  0.00  0.00    +0.173 C 
ATOM     23  C   UNL     1      34.508 -24.090 -13.145  0.00  0.00    +0.169 C 
ATOM     24  C   UNL     1      32.896 -24.030 -15.084  0.00  0.00    +0.210 C 
ATOM     25  C   UNL     1      35.508 -23.369 -14.052  0.00  0.00    +0.177 C 
ATOM     26  C   UNL     1      33.999 -23.338 -15.885  0.00  0.00    +0.318 C 
BRANCH  22  27
ATOM     27  O   UNL     1      32.206 -24.681 -12.864  0.00  0.00    -0.379 OA
ATOM     28  H   UNL     1      31.436 -24.897 -13.412  0.00  0.00    +0.211 HD
ENDBRANCH  22  27
BRANCH  23  29
ATOM     29  O   UNL     1      34.689 -23.649 -11.801  0.00  0.00    -0.379 OA
ATOM     30  H   UNL     1      35.362 -24.197 -11.369  0.00  0.00    +0.211 HD
ENDBRANCH  23  29
BRANCH  24  31
ATOM     31  O   UNL     1      31.640 -23.495 -15.499  0.00  0.00    -0.377 OA
ATOM     32  H   UNL     1      31.104 -24.200 -15.897  0.00  0.00    +0.211 HD
ENDBRANCH  24  31
BRANCH  25  33
ATOM     33  C   UNL     1      36.949 -23.733 -13.707  0.00  0.00    +0.169 C 
BRANCH  33  34
ATOM     34  O   UNL     1      37.369 -22.928 -12.621  0.00  0.00    -0.379 OA
ATOM     35  H   UNL     1      37.217 -21.994 -12.834  0.00  0.00    +0.211 HD
ENDBRANCH  33  34
ENDBRANCH  25  33
ENDBRANCH  20  26
ENDBRANCH   3  20
TORSDOF 9
ENDMDL
MODEL 4
REMARK VINA RESULT:     -11.0      1.729     10.194
REMARK  Name = 107971
REMARK  9 active torsions:
REMARK  status: ('A' for Active; 'I' for Inactive)
REMARK    1  A    between atoms: C_3  and  O_20
REMARK    2  A    between atoms: C_10  and  C_12
REMARK    3  A    between atoms: C_17  and  O_18
REMARK    4  A    between atoms: O_20  and  C_26
REMARK    5  A    between atoms: C_22  and  O_27
REMARK    6  A    between atoms: C_23  and  O_29
REMARK    7  A    between atoms: C_24  and  O_31
REMARK    8  A    between atoms: C_25  and  C_33
REMARK    9  A    between atoms: C_33  and  O_34
REMARK                            x       y       z     vdW  Elec       q    Type
REMARK                         _______ _______ _______ _____ _____    ______ ____
ROOT
ATOM      1  O   UNL     1      33.280 -22.915 -17.636  0.00  0.00    -0.450 OA
ATOM      2  O   UNL     1      37.212 -22.536 -16.615  0.00  0.00    -0.286 OA
ATOM      3  C   UNL     1      34.373 -20.721 -20.330  0.00  0.00    +0.144 C 
ATOM      4  C   UNL     1      33.569 -21.519 -19.518  0.00  0.00    +0.075 C 
ATOM      5  C   UNL     1      35.723 -20.545 -20.024  0.00  0.00    +0.037 C 
ATOM      6  C   UNL     1      34.118 -22.143 -18.397  0.00  0.00    +0.151 C 
ATOM      7  C   UNL     1      35.467 -21.967 -18.090  0.00  0.00    +0.074 C 
ATOM      8  C   UNL     1      36.275 -21.167 -18.903  0.00  0.00    +0.009 C 
ATOM      9  C   UNL     1      36.026 -22.639 -16.903  0.00  0.00    +0.202 C 
ATOM     10  C   UNL     1      35.077 -23.452 -16.094  0.00  0.00    +0.077 C 
ATOM     11  C   UNL     1      33.808 -23.520 -16.521  0.00  0.00    +0.183 C 
ENDROOT
BRANCH  10  12
ATOM     12  C   UNL     1      35.497 -24.144 -14.863  0.00  0.00    +0.006 C 
ATOM     13  C   UNL     1      35.247 -23.568 -13.615  0.00  0.00    +0.003 C 
ATOM     14  C   UNL     1      36.146 -25.378 -14.940  0.00  0.00    +0.003 C 
ATOM     15  C   UNL     1      35.644 -24.224 -12.451  0.00  0.00    +0.037 C 
ATOM     16  C   UNL     1      36.544 -26.033 -13.775  0.00  0.00    +0.037 C 
ATOM     17  C   UNL     1      36.293 -25.457 -12.530  0.00  0.00    +0.134 C 
BRANCH  17  18
ATOM     18  O   UNL     1      36.681 -26.096 -11.393  0.00  0.00    -0.506 OA
ATOM     19  H   UNL     1      36.950 -25.599 -10.646  0.00  0.00    +0.292 HD
ENDBRANCH  17  18
ENDBRANCH  10  12
BRANCH   3  20
ATOM     20  O   UNL     1      33.840 -20.109 -21.426  0.00  0.00    -0.450 OA
BRANCH  20  26
ATOM     21  O   UNL     1      34.239 -17.821 -21.203  0.00  0.00    -0.316 OA
ATOM     22  C   UNL     1      34.779 -17.554 -24.011  0.00  0.00    +0.173 C 
ATOM     23  C   UNL     1      34.548 -16.347 -23.103  0.00  0.00    +0.169 C 
ATOM     24  C   UNL     1      34.166 -18.821 -23.415  0.00  0.00    +0.210 C 
ATOM     25  C   UNL     1      34.948 -16.668 -21.660  0.00  0.00    +0.177 C 
ATOM     26  C   UNL     1      34.561 -18.992 -21.948  0.00  0.00    +0.318 C 
BRANCH  22  27
ATOM     27  O   UNL     1      34.170 -17.280 -25.274  0.00  0.00    -0.379 OA
ATOM     28  H   UNL     1      34.807 -16.827 -25.849  0.00  0.00    +0.211 HD
ENDBRANCH  22  27
BRANCH  23  29
ATOM     29  O   UNL     1      35.324 -15.247 -23.573  0.00  0.00    -0.379 OA
ATOM     30  H   UNL     1      35.368 -15.274 -24.541  0.00  0.00    +0.211 HD
ENDBRANCH  23  29
BRANCH  24  31
ATOM     31  O   UNL     1      34.631 -19.959 -24.139  0.00  0.00    -0.377 OA
ATOM     32  H   UNL     1      34.418 -20.766 -23.645  0.00  0.00    +0.211 HD
ENDBRANCH  24  31
BRANCH  25  33
ATOM     33  C   UNL     1      34.618 -15.518 -20.714  0.00  0.00    +0.169 C 
BRANCH  33  34
ATOM     34  O   UNL     1      33.866 -14.551 -21.425  0.00  0.00    -0.379 OA
ATOM     35  H   UNL     1      33.607 -14.914 -22.286  0.00  0.00    +0.211 HD
ENDBRANCH  33  34
ENDBRANCH  25  33
ENDBRANCH  20  26
ENDBRANCH   3  20
TORSDOF 9
ENDMDL
MODEL 5
REMARK VINA RESULT:     -11.0      1.868      3.684
REMARK  Name = 107971
REMARK  9 active torsions:
REMARK  status: ('A' for Active; 'I' for Inactive)
REMARK    1  A    between atoms: C_3  and  O_20
REMARK    2  A    between atoms: C_10  and  C_12
REMARK    3  A    between atoms: C_17  and  O_18
REMARK    4  A    between atoms: O_20  and  C_26
REMARK    5  A    between atoms: C_22  and  O_27
REMARK    6  A    between atoms: C_23  and  O_29
REMARK    7  A    between atoms: C_24  and  O_31
REMARK    8  A    between atoms: C_25  and  C_33
REMARK    9  A    between atoms: C_33  and  O_34
REMARK                            x       y       z     vdW  Elec       q    Type
REMARK                         _______ _______ _______ _____ _____    ______ ____
ROOT
ATOM      1  O   UNL     1      36.328 -20.130 -20.244  0.00  0.00    -0.450 OA
ATOM      2  O   UNL     1      32.506 -19.997 -21.665  0.00  0.00    -0.286 OA
ATOM      3  C   UNL     1      34.744 -22.397 -17.872  0.00  0.00    +0.144 C 
ATOM      4  C   UNL     1      35.706 -21.636 -18.534  0.00  0.00    +0.075 C 
ATOM      5  C   UNL     1      33.418 -22.382 -18.307  0.00  0.00    +0.037 C 
ATOM      6  C   UNL     1      35.340 -20.858 -19.633  0.00  0.00    +0.151 C 
ATOM      7  C   UNL     1      34.014 -20.842 -20.067  0.00  0.00    +0.074 C 
ATOM      8  C   UNL     1      33.048 -21.605 -19.405  0.00  0.00    +0.009 C 
ATOM      9  C   UNL     1      33.651 -20.015 -21.233  0.00  0.00    +0.202 C 
ATOM     10  C   UNL     1      34.750 -19.226 -21.854  0.00  0.00    +0.077 C 
ATOM     11  C   UNL     1      35.973 -19.348 -21.316  0.00  0.00    +0.183 C 
ENDROOT
BRANCH  10  12
ATOM     12  C   UNL     1      34.516 -18.331 -22.999  0.00  0.00    +0.006 C 
ATOM     13  C   UNL     1      34.610 -16.947 -22.838  0.00  0.00    +0.003 C 
ATOM     14  C   UNL     1      34.200 -18.864 -24.251  0.00  0.00    +0.003 C 
ATOM     15  C   UNL     1      34.388 -16.100 -23.923  0.00  0.00    +0.037 C 
ATOM     16  C   UNL     1      33.978 -18.017 -25.336  0.00  0.00    +0.037 C 
ATOM     17  C   UNL     1      34.071 -16.634 -25.173  0.00  0.00    +0.134 C 
BRANCH  17  18
ATOM     18  O   UNL     1      33.855 -15.807 -26.232  0.00  0.00    -0.506 OA
ATOM     19  H   UNL     1      34.158 -14.921 -26.203  0.00  0.00    +0.292 HD
ENDBRANCH  17  18
ENDBRANCH  10  12
BRANCH   3  20
ATOM     20  O   UNL     1      35.098 -23.158 -16.797  0.00  0.00    -0.450 OA
BRANCH  20  26
ATOM     21  O   UNL     1      32.884 -22.995 -16.082  0.00  0.00    -0.316 OA
ATOM     22  C   UNL     1      33.390 -24.721 -13.843  0.00  0.00    +0.173 C 
ATOM     23  C   UNL     1      32.116 -23.885 -13.961  0.00  0.00    +0.169 C 
ATOM     24  C   UNL     1      34.517 -24.136 -14.694  0.00  0.00    +0.210 C 
ATOM     25  C   UNL     1      31.776 -23.619 -15.430  0.00  0.00    +0.177 C 
ATOM     26  C   UNL     1      34.039 -23.828 -16.113  0.00  0.00    +0.318 C 
BRANCH  22  27
ATOM     27  O   UNL     1      33.786 -24.731 -12.470  0.00  0.00    -0.379 OA
ATOM     28  H   UNL     1      33.250 -25.375 -11.983  0.00  0.00    +0.211 HD
ENDBRANCH  22  27
BRANCH  23  29
ATOM     29  O   UNL     1      31.035 -24.582 -13.346  0.00  0.00    -0.379 OA
ATOM     30  H   UNL     1      30.334 -23.953 -13.117  0.00  0.00    +0.211 HD
ENDBRANCH  23  29
BRANCH  24  31
ATOM     31  O   UNL     1      35.586 -25.078 -14.776  0.00  0.00    -0.377 OA
ATOM     32  H   UNL     1      35.241 -25.933 -15.078  0.00  0.00    +0.211 HD
ENDBRANCH  24  31
BRANCH  25  33
ATOM     33  C   UNL     1      30.574 -22.689 -15.571  0.00  0.00    +0.169 C 
BRANCH  33  34
ATOM     34  O   UNL     1      30.187 -22.658 -16.933  0.00  0.00    -0.379 OA
ATOM     35  H   UNL     1      29.892 -23.541 -17.204  0.00  0.00    +0.211 HD
ENDBRANCH  33  34
ENDBRANCH  25  33
ENDBRANCH  20  26
ENDBRANCH   3  20
TORSDOF 9
ENDMDL
MODEL 6
REMARK VINA RESULT:     -10.8      2.803     10.217
REMARK  Name = 107971
REMARK  9 active torsions:
REMARK  status: ('A' for Active; 'I' for Inactive)
REMARK    1  A    between atoms: C_3  and  O_20
REMARK    2  A    between atoms: C_10  and  C_12
REMARK    3  A    between atoms: C_17  and  O_18
REMARK    4  A    between atoms: O_20  and  C_26
REMARK    5  A    between atoms: C_22  and  O_27
REMARK    6  A    between atoms: C_23  and  O_29
REMARK    7  A    between atoms: C_24  and  O_31
REMARK    8  A    between atoms: C_25  and  C_33
REMARK    9  A    between atoms: C_33  and  O_34
REMARK                            x       y       z     vdW  Elec       q    Type
REMARK                         _______ _______ _______ _____ _____    ______ ____
ROOT
ATOM      1  O   UNL     1      32.210 -21.431 -19.179  0.00  0.00    -0.450 OA
ATOM      2  O   UNL     1      34.919 -23.163 -16.668  0.00  0.00    -0.286 OA
ATOM      3  C   UNL     1      35.285 -20.400 -20.838  0.00  0.00    +0.144 C 
ATOM      4  C   UNL     1      33.933 -20.569 -20.544  0.00  0.00    +0.075 C 
ATOM      5  C   UNL     1      36.257 -20.961 -20.008  0.00  0.00    +0.037 C 
ATOM      6  C   UNL     1      33.553 -21.299 -19.418  0.00  0.00    +0.151 C 
ATOM      7  C   UNL     1      34.524 -21.859 -18.588  0.00  0.00    +0.074 C 
ATOM      8  C   UNL     1      35.880 -21.691 -18.880  0.00  0.00    +0.009 C 
ATOM      9  C   UNL     1      34.100 -22.630 -17.405  0.00  0.00    +0.202 C 
ATOM     10  C   UNL     1      32.632 -22.732 -17.172  0.00  0.00    +0.077 C 
ATOM     11  C   UNL     1      31.826 -22.135 -18.063  0.00  0.00    +0.183 C 
ENDROOT
BRANCH  10  12
ATOM     12  C   UNL     1      32.075 -23.440 -16.008  0.00  0.00    +0.006 C 
ATOM     13  C   UNL     1      30.705 -23.698 -15.934  0.00  0.00    +0.003 C 
ATOM     14  C   UNL     1      32.917 -23.857 -14.973  0.00  0.00    +0.003 C 
ATOM     15  C   UNL     1      30.178 -24.369 -14.831  0.00  0.00    +0.037 C 
ATOM     16  C   UNL     1      32.389 -24.527 -13.870  0.00  0.00    +0.037 C 
ATOM     17  C   UNL     1      31.020 -24.783 -13.798  0.00  0.00    +0.134 C 
BRANCH  17  18
ATOM     18  O   UNL     1      30.506 -25.438 -12.721  0.00  0.00    -0.506 OA
ATOM     19  H   UNL     1      31.048 -25.614 -11.978  0.00  0.00    +0.292 HD
ENDBRANCH  17  18
ENDBRANCH  10  12
BRANCH   3  20
ATOM     20  O   UNL     1      35.659 -19.686 -21.937  0.00  0.00    -0.450 OA
BRANCH  20  26
ATOM     21  O   UNL     1      34.586 -18.943 -23.870  0.00  0.00    -0.316 OA
ATOM     22  C   UNL     1      34.277 -16.301 -22.787  0.00  0.00    +0.173 C 
ATOM     23  C   UNL     1      34.051 -16.612 -24.267  0.00  0.00    +0.169 C 
ATOM     24  C   UNL     1      35.172 -17.353 -22.132  0.00  0.00    +0.210 C 
ATOM     25  C   UNL     1      33.619 -18.069 -24.456  0.00  0.00    +0.177 C 
ATOM     26  C   UNL     1      34.699 -18.769 -22.460  0.00  0.00    +0.318 C 
BRANCH  22  27
ATOM     27  O   UNL     1      34.903 -15.020 -22.696  0.00  0.00    -0.379 OA
ATOM     28  H   UNL     1      35.653 -15.070 -22.082  0.00  0.00    +0.211 HD
ENDBRANCH  22  27
BRANCH  23  29
ATOM     29  O   UNL     1      33.037 -15.751 -24.780  0.00  0.00    -0.379 OA
ATOM     30  H   UNL     1      33.448 -15.045 -25.303  0.00  0.00    +0.211 HD
ENDBRANCH  23  29
BRANCH  24  31
ATOM     31  O   UNL     1      35.137 -17.188 -20.714  0.00  0.00    -0.377 OA
ATOM     32  H   UNL     1      34.759 -16.320 -20.499  0.00  0.00    +0.211 HD
ENDBRANCH  24  31
BRANCH  25  33
ATOM     33  C   UNL     1      33.500 -18.435 -25.932  0.00  0.00    +0.169 C 
BRANCH  33  34
ATOM     34  O   UNL     1      34.099 -17.408 -26.700  0.00  0.00    -0.379 OA
ATOM     35  H   UNL     1      34.781 -17.790 -27.274  0.00  0.00    +0.211 HD
ENDBRANCH  33  34
ENDBRANCH  25  33
ENDBRANCH  20  26
ENDBRANCH   3  20
TORSDOF 9
ENDMDL
MODEL 7
REMARK VINA RESULT:     -10.6      1.154      2.534
REMARK  Name = 107971
REMARK  9 active torsions:
REMARK  status: ('A' for Active; 'I' for Inactive)
REMARK    1  A    between atoms: C_3  and  O_20
REMARK    2  A    between atoms: C_10  and  C_12
REMARK    3  A    between atoms: C_17  and  O_18
REMARK    4  A    between atoms: O_20  and  C_26
REMARK    5  A    between atoms: C_22  and  O_27
REMARK    6  A    between atoms: C_23  and  O_29
REMARK    7  A    between atoms: C_24  and  O_31
REMARK    8  A    between atoms: C_25  and  C_33
REMARK    9  A    between atoms: C_33  and  O_34
REMARK                            x       y       z     vdW  Elec       q    Type
REMARK                         _______ _______ _______ _____ _____    ______ ____
ROOT
ATOM      1  O   UNL     1      32.668 -21.831 -19.274  0.00  0.00    -0.450 OA
ATOM      2  O   UNL     1      36.415 -20.238 -19.525  0.00  0.00    -0.286 OA
ATOM      3  C   UNL     1      34.222 -23.552 -16.465  0.00  0.00    +0.144 C 
ATOM      4  C   UNL     1      33.278 -23.131 -17.400  0.00  0.00    +0.075 C 
ATOM      5  C   UNL     1      35.524 -23.049 -16.509  0.00  0.00    +0.037 C 
ATOM      6  C   UNL     1      33.637 -22.207 -18.382  0.00  0.00    +0.151 C 
ATOM      7  C   UNL     1      34.938 -21.705 -18.426  0.00  0.00    +0.074 C 
ATOM      8  C   UNL     1      35.886 -22.125 -17.489  0.00  0.00    +0.009 C 
ATOM      9  C   UNL     1      35.294 -20.726 -19.469  0.00  0.00    +0.202 C 
ATOM     10  C   UNL     1      34.217 -20.360 -20.430  0.00  0.00    +0.077 C 
ATOM     11  C   UNL     1      33.017 -20.933 -20.254  0.00  0.00    +0.183 C 
ENDROOT
BRANCH  10  12
ATOM     12  C   UNL     1      34.449 -19.423 -21.542  0.00  0.00    +0.006 C 
ATOM     13  C   UNL     1      34.451 -19.886 -22.860  0.00  0.00    +0.003 C 
ATOM     14  C   UNL     1      34.669 -18.068 -21.282  0.00  0.00    +0.003 C 
ATOM     15  C   UNL     1      34.671 -18.998 -23.912  0.00  0.00    +0.037 C 
ATOM     16  C   UNL     1      34.890 -17.181 -22.335  0.00  0.00    +0.037 C 
ATOM     17  C   UNL     1      34.891 -17.646 -23.651  0.00  0.00    +0.134 C 
BRANCH  17  18
ATOM     18  O   UNL     1      35.107 -16.780 -24.678  0.00  0.00    -0.506 OA
ATOM     19  H   UNL     1      35.310 -17.108 -25.532  0.00  0.00    +0.292 HD
ENDBRANCH  17  18
ENDBRANCH  10  12
BRANCH   3  20
ATOM     20  O   UNL     1      33.875 -24.456 -15.506  0.00  0.00    -0.450 OA
BRANCH  20  26
ATOM     21  O   UNL     1      35.407 -23.720 -13.908  0.00  0.00    -0.316 OA
ATOM     22  C   UNL     1      37.230 -25.844 -14.551  0.00  0.00    +0.173 C 
ATOM     23  C   UNL     1      37.639 -24.642 -13.700  0.00  0.00    +0.169 C 
ATOM     24  C   UNL     1      36.017 -25.517 -15.422  0.00  0.00    +0.210 C 
ATOM     25  C   UNL     1      36.429 -24.058 -12.968  0.00  0.00    +0.177 C 
ATOM     26  C   UNL     1      34.906 -24.858 -14.604  0.00  0.00    +0.318 C 
BRANCH  22  27
ATOM     27  O   UNL     1      38.335 -26.191 -15.387  0.00  0.00    -0.379 OA
ATOM     28  H   UNL     1      38.722 -27.027 -15.082  0.00  0.00    +0.211 HD
ENDBRANCH  22  27
BRANCH  23  29
ATOM     29  O   UNL     1      38.615 -25.052 -12.744  0.00  0.00    -0.379 OA
ATOM     30  H   UNL     1      39.498 -24.802 -13.057  0.00  0.00    +0.211 HD
ENDBRANCH  23  29
BRANCH  24  31
ATOM     31  O   UNL     1      35.501 -26.722 -15.986  0.00  0.00    -0.377 OA
ATOM     32  H   UNL     1      36.011 -27.478 -15.656  0.00  0.00    +0.211 HD
ENDBRANCH  24  31
BRANCH  25  33
ATOM     33  C   UNL     1      36.790 -22.788 -12.204  0.00  0.00    +0.169 C 
BRANCH  33  34
ATOM     34  O   UNL     1      37.097 -23.139 -10.866  0.00  0.00    -0.379 OA
ATOM     35  H   UNL     1      38.057 -23.102 -10.735  0.00  0.00    +0.211 HD
ENDBRANCH  33  34
ENDBRANCH  25  33
ENDBRANCH  20  26
ENDBRANCH   3  20
TORSDOF 9
ENDMDL
MODEL 8
REMARK VINA RESULT:     -10.5      2.237     10.931
REMARK  Name = 107971
REMARK  9 active torsions:
REMARK  status: ('A' for Active; 'I' for Inactive)
REMARK    1  A    between atoms: C_3  and  O_20
REMARK    2  A    between atoms: C_10  and  C_12
REMARK    3  A    between atoms: C_17  and  O_18
REMARK    4  A    between atoms: O_20  and  C_26
REMARK    5  A    between atoms: C_22  and  O_27
REMARK    6  A    between atoms: C_23  and  O_29
REMARK    7  A    between atoms: C_24  and  O_31
REMARK    8  A    between atoms: C_25  and  C_33
REMARK    9  A    between atoms: C_33  and  O_34
REMARK                            x       y       z     vdW  Elec       q    Type
REMARK                         _______ _______ _______ _____ _____    ______ ____
ROOT
ATOM      1  O   UNL     1      36.508 -20.381 -19.730  0.00  0.00    -0.450 OA
ATOM      2  O   UNL     1      32.734 -21.731 -18.968  0.00  0.00    -0.286 OA
ATOM      3  C   UNL     1      34.747 -18.776 -22.486  0.00  0.00    +0.144 C 
ATOM      4  C   UNL     1      35.763 -19.177 -21.620  0.00  0.00    +0.075 C 
ATOM      5  C   UNL     1      33.438 -19.216 -22.281  0.00  0.00    +0.037 C 
ATOM      6  C   UNL     1      35.469 -20.020 -20.548  0.00  0.00    +0.151 C 
ATOM      7  C   UNL     1      34.161 -20.459 -20.343  0.00  0.00    +0.074 C 
ATOM      8  C   UNL     1      33.141 -20.059 -21.209  0.00  0.00    +0.009 C 
ATOM      9  C   UNL     1      33.873 -21.346 -19.201  0.00  0.00    +0.202 C 
ATOM     10  C   UNL     1      35.033 -21.729 -18.350  0.00  0.00    +0.077 C 
ATOM     11  C   UNL     1      36.231 -21.224 -18.681  0.00  0.00    +0.183 C 
ENDROOT
BRANCH  10  12
ATOM     12  C   UNL     1      34.891 -22.639 -17.201  0.00  0.00    +0.006 C 
ATOM     13  C   UNL     1      35.980 -22.886 -16.363  0.00  0.00    +0.003 C 
ATOM     14  C   UNL     1      33.664 -23.258 -16.946  0.00  0.00    +0.003 C 
ATOM     15  C   UNL     1      35.844 -23.748 -15.275  0.00  0.00    +0.037 C 
ATOM     16  C   UNL     1      33.529 -24.121 -15.859  0.00  0.00    +0.037 C 
ATOM     17  C   UNL     1      34.619 -24.366 -15.023  0.00  0.00    +0.134 C 
BRANCH  17  18
ATOM     18  O   UNL     1      34.487 -25.207 -13.961  0.00  0.00    -0.506 OA
ATOM     19  H   UNL     1      33.918 -24.980 -13.252  0.00  0.00    +0.292 HD
ENDBRANCH  17  18
ENDBRANCH  10  12
BRANCH   3  20
ATOM     20  O   UNL     1      35.031 -17.954 -23.535  0.00  0.00    -0.450 OA
BRANCH  20  26
ATOM     21  O   UNL     1      33.879 -16.853 -25.239  0.00  0.00    -0.316 OA
ATOM     22  C   UNL     1      33.704 -14.445 -23.683  0.00  0.00    +0.173 C 
ATOM     23  C   UNL     1      33.392 -14.479 -25.179  0.00  0.00    +0.169 C 
ATOM     24  C   UNL     1      34.602 -15.615 -23.279  0.00  0.00    +0.210 C 
ATOM     25  C   UNL     1      32.909 -15.869 -25.602  0.00  0.00    +0.177 C 
ATOM     26  C   UNL     1      34.071 -16.939 -23.830  0.00  0.00    +0.318 C 
BRANCH  22  27
ATOM     27  O   UNL     1      34.371 -13.215 -23.399  0.00  0.00    -0.379 OA
ATOM     28  H   UNL     1      33.752 -12.602 -22.971  0.00  0.00    +0.211 HD
ENDBRANCH  22  27
BRANCH  23  29
ATOM     29  O   UNL     1      32.378 -13.520 -25.470  0.00  0.00    -0.379 OA
ATOM     30  H   UNL     1      31.936 -13.257 -24.648  0.00  0.00    +0.211 HD
ENDBRANCH  23  29
BRANCH  24  31
ATOM     31  O   UNL     1      34.646 -15.709 -21.856  0.00  0.00    -0.377 OA
ATOM     32  H   UNL     1      35.347 -15.131 -21.516  0.00  0.00    +0.211 HD
ENDBRANCH  24  31
BRANCH  25  33
ATOM     33  C   UNL     1      32.701 -15.960 -27.110  0.00  0.00    +0.169 C 
BRANCH  33  34
ATOM     34  O   UNL     1      33.460 -14.938 -27.731  0.00  0.00    -0.379 OA
ATOM     35  H   UNL     1      34.122 -14.603 -27.107  0.00  0.00    +0.211 HD
ENDBRANCH  33  34
ENDBRANCH  25  33
ENDBRANCH  20  26
ENDBRANCH   3  20
TORSDOF 9
ENDMDL
MODEL 9
REMARK VINA RESULT:     -10.5      2.674     10.892
REMARK  Name = 107971
REMARK  9 active torsions:
REMARK  status: ('A' for Active; 'I' for Inactive)
REMARK    1  A    between atoms: C_3  and  O_20
REMARK    2  A    between atoms: C_10  and  C_12
REMARK    3  A    between atoms: C_17  and  O_18
REMARK    4  A    between atoms: O_20  and  C_26
REMARK    5  A    between atoms: C_22  and  O_27
REMARK    6  A    between atoms: C_23  and  O_29
REMARK    7  A    between atoms: C_24  and  O_31
REMARK    8  A    between atoms: C_25  and  C_33
REMARK    9  A    between atoms: C_33  and  O_34
REMARK                            x       y       z     vdW  Elec       q    Type
REMARK                         _______ _______ _______ _____ _____    ______ ____
ROOT
ATOM      1  O   UNL     1      32.560 -20.590 -20.604  0.00  0.00    -0.450 OA
ATOM      2  O   UNL     1      35.802 -21.742 -18.412  0.00  0.00    -0.286 OA
ATOM      3  C   UNL     1      35.174 -18.900 -22.496  0.00  0.00    +0.144 C 
ATOM      4  C   UNL     1      33.922 -19.358 -22.088  0.00  0.00    +0.075 C 
ATOM      5  C   UNL     1      36.318 -19.253 -21.778  0.00  0.00    +0.037 C 
ATOM      6  C   UNL     1      33.816 -20.170 -20.959  0.00  0.00    +0.151 C 
ATOM      7  C   UNL     1      34.958 -20.523 -20.241  0.00  0.00    +0.074 C 
ATOM      8  C   UNL     1      36.214 -20.065 -20.649  0.00  0.00    +0.009 C 
ATOM      9  C   UNL     1      34.822 -21.385 -19.053  0.00  0.00    +0.202 C 
ATOM     10  C   UNL     1      33.439 -21.802 -18.692  0.00  0.00    +0.077 C 
ATOM     11  C   UNL     1      32.443 -21.376 -19.484  0.00  0.00    +0.183 C 
ENDROOT
BRANCH  10  12
ATOM     12  C   UNL     1      33.158 -22.631 -17.509  0.00  0.00    +0.006 C 
ATOM     13  C   UNL     1      31.839 -22.901 -17.138  0.00  0.00    +0.003 C 
ATOM     14  C   UNL     1      34.211 -23.151 -16.752  0.00  0.00    +0.003 C 
ATOM     15  C   UNL     1      31.574 -23.687 -16.016  0.00  0.00    +0.037 C 
ATOM     16  C   UNL     1      33.946 -23.936 -15.630  0.00  0.00    +0.037 C 
ATOM     17  C   UNL     1      32.628 -24.204 -15.262  0.00  0.00    +0.134 C 
BRANCH  17  18
ATOM     18  O   UNL     1      32.369 -24.971 -14.167  0.00  0.00    -0.506 OA
ATOM     19  H   UNL     1      32.475 -24.611 -13.309  0.00  0.00    +0.292 HD
ENDBRANCH  17  18
ENDBRANCH  10  12
BRANCH   3  20
ATOM     20  O   UNL     1      35.282 -18.105 -23.598  0.00  0.00    -0.450 OA
BRANCH  20  26
ATOM     21  O   UNL     1      33.995 -16.958 -25.171  0.00  0.00    -0.316 OA
ATOM     22  C   UNL     1      33.783 -14.666 -23.454  0.00  0.00    +0.173 C 
ATOM     23  C   UNL     1      33.398 -14.621 -24.933  0.00  0.00    +0.169 C 
ATOM     24  C   UNL     1      34.755 -15.811 -23.170  0.00  0.00    +0.210 C 
ATOM     25  C   UNL     1      32.962 -16.004 -25.422  0.00  0.00    +0.177 C 
ATOM     26  C   UNL     1      34.261 -17.123 -23.780  0.00  0.00    +0.318 C 
BRANCH  22  27
ATOM     27  O   UNL     1      34.404 -13.423 -23.121  0.00  0.00    -0.379 OA
ATOM     28  H   UNL     1      34.060 -13.106 -22.271  0.00  0.00    +0.211 HD
ENDBRANCH  22  27
BRANCH  23  29
ATOM     29  O   UNL     1      32.327 -13.698 -25.112  0.00  0.00    -0.379 OA
ATOM     30  H   UNL     1      32.584 -13.027 -25.764  0.00  0.00    +0.211 HD
ENDBRANCH  23  29
BRANCH  24  31
ATOM     31  O   UNL     1      34.875 -15.992 -21.759  0.00  0.00    -0.377 OA
ATOM     32  H   UNL     1      35.680 -15.552 -21.445  0.00  0.00    +0.211 HD
ENDBRANCH  24  31
BRANCH  25  33
ATOM     33  C   UNL     1      32.684 -16.010 -26.922  0.00  0.00    +0.169 C 
BRANCH  33  34
ATOM     34  O   UNL     1      33.446 -14.981 -27.525  0.00  0.00    -0.379 OA
ATOM     35  H   UNL     1      33.084 -14.118 -27.269  0.00  0.00    +0.211 HD
ENDBRANCH  33  34
ENDBRANCH  25  33
ENDBRANCH  20  26
ENDBRANCH   3  20
TORSDOF 9
ENDMDL
