MODEL 1
REMARK VINA RESULT:     -12.4      0.000      0.000
REMARK  Name = 10156987
REMARK  5 active torsions:
REMARK  status: ('A' for Active; 'I' for Inactive)
REMARK    1  A    between atoms: C_2  and  C_23
REMARK    2  A    between atoms: C_9  and  C_13
REMARK    3  A    between atoms: C_23  and  N_24
REMARK    4  A    between atoms: C_25  and  C_31
REMARK    5  A    between atoms: C_31  and  N_32
REMARK                            x       y       z     vdW  Elec       q    Type
REMARK                         _______ _______ _______ _____ _____    ______ ____
ROOT
ATOM      1  N   UNL     1      33.407 -19.000 -23.769  0.00  0.00    -0.312 N 
ATOM      2  C   UNL     1      32.992 -15.837 -26.365  0.00  0.00    -0.043 C 
ATOM      3  C   UNL     1      33.752 -15.760 -25.197  0.00  0.00    -0.005 C 
ATOM      4  C   UNL     1      32.326 -17.003 -26.719  0.00  0.00    -0.005 C 
ATOM      5  C   UNL     1      33.839 -16.895 -24.365  0.00  0.00    +0.014 C 
ATOM      6  C   UNL     1      33.160 -18.056 -24.741  0.00  0.00    +0.048 C 
ATOM      7  C   UNL     1      32.397 -18.140 -25.910  0.00  0.00    +0.014 C 
ATOM      8  C   UNL     1      34.499 -17.176 -23.137  0.00  0.00    +0.016 C 
ATOM      9  C   UNL     1      34.215 -18.477 -22.796  0.00  0.00    +0.053 C 
ATOM     10  H   UNL     1      33.052 -19.919 -23.774  0.00  0.00    +0.152 HD
ENDROOT
BRANCH   9  13
ATOM     11  O   UNL     1      36.867 -18.651 -21.747  0.00  0.00    -0.270 OA
ATOM     12  N   UNL     1      36.267 -20.161 -20.131  0.00  0.00    -0.280 N 
ATOM     13  C   UNL     1      34.579 -19.317 -21.697  0.00  0.00    +0.067 C 
ATOM     14  C   UNL     1      33.645 -20.081 -21.105  0.00  0.00    +0.007 C 
ATOM     15  C   UNL     1      35.999 -19.336 -21.206  0.00  0.00    +0.251 C 
ATOM     16  C   UNL     1      33.981 -20.943 -19.974  0.00  0.00    +0.014 C 
ATOM     17  C   UNL     1      35.299 -20.963 -19.505  0.00  0.00    +0.051 C 
ATOM     18  C   UNL     1      33.019 -21.743 -19.351  0.00  0.00    +0.001 C 
ATOM     19  C   UNL     1      35.658 -21.773 -18.424  0.00  0.00    +0.015 C 
ATOM     20  C   UNL     1      33.377 -22.553 -18.270  0.00  0.00    +0.000 C 
ATOM     21  C   UNL     1      34.692 -22.568 -17.809  0.00  0.00    +0.001 C 
ATOM     22  H   UNL     1      37.188 -20.189 -19.784  0.00  0.00    +0.155 HD
ENDBRANCH   9  13
BRANCH   2  23
ATOM     23  C   UNL     1      32.895 -14.632 -27.254  0.00  0.00    -0.050 C 
BRANCH  23  24
ATOM     24  N   UNL     1      33.496 -13.448 -26.640  0.00  0.00    +0.390 N 
ATOM     25  C   UNL     1      33.619 -10.608 -25.919  0.00  0.00    -0.026 C 
ATOM     26  C   UNL     1      34.471 -11.210 -27.042  0.00  0.00    -0.025 C 
ATOM     27  C   UNL     1      33.252 -11.699 -24.907  0.00  0.00    -0.025 C 
ATOM     28  C   UNL     1      33.793 -12.433 -27.661  0.00  0.00    -0.077 C 
ATOM     29  C   UNL     1      32.614 -12.907 -25.597  0.00  0.00    -0.077 C 
ATOM     30  H   UNL     1      34.375 -13.718 -26.200  0.00  0.00    -0.079 HD
BRANCH  25  31
ATOM     31  C   UNL     1      34.344  -9.450 -25.239  0.00  0.00    -0.086 C 
BRANCH  31  32
ATOM     32  N   UNL     1      35.559  -9.911 -24.585  0.00  0.00    +0.380 N 
ATOM     33  H   UNL     1      35.986  -9.137 -24.078  0.00  0.00    -0.089 HD
ATOM     34  H   UNL     1      36.212 -10.259 -25.288  0.00  0.00    -0.089 HD
ATOM     35  H   UNL     1      35.331 -10.661 -23.932  0.00  0.00    -0.089 HD
ENDBRANCH  31  32
ENDBRANCH  25  31
ENDBRANCH  23  24
ENDBRANCH   2  23
TORSDOF 5
ENDMDL
MODEL 2
REMARK VINA RESULT:     -12.3      3.121      5.807
REMARK  Name = 10156987
REMARK  5 active torsions:
REMARK  status: ('A' for Active; 'I' for Inactive)
REMARK    1  A    between atoms: C_2  and  C_23
REMARK    2  A    between atoms: C_9  and  C_13
REMARK    3  A    between atoms: C_23  and  N_24
REMARK    4  A    between atoms: C_25  and  C_31
REMARK    5  A    between atoms: C_31  and  N_32
REMARK                            x       y       z     vdW  Elec       q    Type
REMARK                         _______ _______ _______ _____ _____    ______ ____
ROOT
ATOM      1  N   UNL     1      34.756 -21.658 -18.682  0.00  0.00    -0.312 N 
ATOM      2  C   UNL     1      34.979 -19.432 -22.134  0.00  0.00    -0.043 C 
ATOM      3  C   UNL     1      33.770 -19.888 -21.607  0.00  0.00    -0.005 C 
ATOM      4  C   UNL     1      36.190 -19.709 -21.512  0.00  0.00    -0.005 C 
ATOM      5  C   UNL     1      33.788 -20.645 -20.418  0.00  0.00    +0.014 C 
ATOM      6  C   UNL     1      35.016 -20.911 -19.811  0.00  0.00    +0.048 C 
ATOM      7  C   UNL     1      36.232 -20.458 -20.333  0.00  0.00    +0.014 C 
ATOM      8  C   UNL     1      32.784 -21.256 -19.616  0.00  0.00    +0.016 C 
ATOM      9  C   UNL     1      33.410 -21.871 -18.557  0.00  0.00    +0.053 C 
ATOM     10  H   UNL     1      35.440 -21.990 -18.057  0.00  0.00    +0.152 HD
ENDROOT
BRANCH   9  13
ATOM     11  O   UNL     1      35.148 -23.098 -16.650  0.00  0.00    -0.270 OA
ATOM     12  N   UNL     1      33.409 -23.942 -15.417  0.00  0.00    -0.280 N 
ATOM     13  C   UNL     1      32.948 -22.632 -17.439  0.00  0.00    +0.067 C 
ATOM     14  C   UNL     1      31.628 -22.800 -17.248  0.00  0.00    +0.007 C 
ATOM     15  C   UNL     1      33.936 -23.233 -16.480  0.00  0.00    +0.251 C 
ATOM     16  C   UNL     1      31.121 -23.564 -16.110  0.00  0.00    +0.014 C 
ATOM     17  C   UNL     1      32.032 -24.122 -15.209  0.00  0.00    +0.051 C 
ATOM     18  C   UNL     1      29.751 -23.747 -15.903  0.00  0.00    +0.001 C 
ATOM     19  C   UNL     1      31.586 -24.858 -14.108  0.00  0.00    +0.015 C 
ATOM     20  C   UNL     1      29.302 -24.482 -14.802  0.00  0.00    +0.000 C 
ATOM     21  C   UNL     1      30.218 -25.036 -13.908  0.00  0.00    +0.001 C 
ATOM     22  H   UNL     1      34.034 -24.342 -14.770  0.00  0.00    +0.155 HD
ENDBRANCH   9  13
BRANCH   2  23
ATOM     23  C   UNL     1      34.967 -18.627 -23.401  0.00  0.00    -0.050 C 
BRANCH  23  24
ATOM     24  N   UNL     1      34.320 -17.328 -23.217  0.00  0.00    +0.390 N 
ATOM     25  C   UNL     1      34.177 -14.400 -23.309  0.00  0.00    -0.026 C 
ATOM     26  C   UNL     1      34.368 -15.174 -22.000  0.00  0.00    -0.025 C 
ATOM     27  C   UNL     1      33.473 -15.291 -24.338  0.00  0.00    -0.025 C 
ATOM     28  C   UNL     1      35.062 -16.515 -22.243  0.00  0.00    -0.077 C 
ATOM     29  C   UNL     1      34.197 -16.629 -24.504  0.00  0.00    -0.077 C 
ATOM     30  H   UNL     1      33.381 -17.479 -22.851  0.00  0.00    -0.079 HD
BRANCH  25  31
ATOM     31  C   UNL     1      33.396 -13.110 -23.075  0.00  0.00    -0.086 C 
BRANCH  31  32
ATOM     32  N   UNL     1      32.302 -12.985 -24.026  0.00  0.00    +0.380 N 
ATOM     33  H   UNL     1      31.648 -12.275 -23.700  0.00  0.00    -0.089 HD
ATOM     34  H   UNL     1      31.819 -13.881 -24.108  0.00  0.00    -0.089 HD
ATOM     35  H   UNL     1      32.672 -12.714 -24.937  0.00  0.00    -0.089 HD
ENDBRANCH  31  32
ENDBRANCH  25  31
ENDBRANCH  23  24
ENDBRANCH   2  23
TORSDOF 5
ENDMDL
MODEL 3
REMARK VINA RESULT:     -12.2      3.348     11.614
REMARK  Name = 10156987
REMARK  5 active torsions:
REMARK  status: ('A' for Active; 'I' for Inactive)
REMARK    1  A    between atoms: C_2  and  C_23
REMARK    2  A    between atoms: C_9  and  C_13
REMARK    3  A    between atoms: C_23  and  N_24
REMARK    4  A    between atoms: C_25  and  C_31
REMARK    5  A    between atoms: C_31  and  N_32
REMARK                            x       y       z     vdW  Elec       q    Type
REMARK                         _______ _______ _______ _____ _____    ______ ____
ROOT
ATOM      1  N   UNL     1      35.387 -20.093 -20.291  0.00  0.00    -0.312 N 
ATOM      2  C   UNL     1      34.436 -22.871 -17.411  0.00  0.00    -0.043 C 
ATOM      3  C   UNL     1      33.491 -22.343 -18.291  0.00  0.00    -0.005 C 
ATOM      4  C   UNL     1      35.769 -22.483 -17.461  0.00  0.00    -0.005 C 
ATOM      5  C   UNL     1      33.906 -21.395 -19.248  0.00  0.00    +0.014 C 
ATOM      6  C   UNL     1      35.250 -21.018 -19.280  0.00  0.00    +0.048 C 
ATOM      7  C   UNL     1      36.203 -21.544 -18.401  0.00  0.00    +0.014 C 
ATOM      8  C   UNL     1      33.243 -20.665 -20.273  0.00  0.00    +0.016 C 
ATOM      9  C   UNL     1      34.180 -19.874 -20.897  0.00  0.00    +0.053 C 
ATOM     10  H   UNL     1      36.232 -19.654 -20.542  0.00  0.00    +0.152 HD
ENDROOT
BRANCH   9  13
ATOM     11  O   UNL     1      35.152 -17.193 -20.718  0.00  0.00    -0.270 OA
ATOM     12  N   UNL     1      34.596 -16.710 -22.888  0.00  0.00    -0.280 N 
ATOM     13  C   UNL     1      34.125 -18.937 -21.976  0.00  0.00    +0.067 C 
ATOM     14  C   UNL     1      33.591 -19.307 -23.152  0.00  0.00    +0.007 C 
ATOM     15  C   UNL     1      34.672 -17.550 -21.793  0.00  0.00    +0.251 C 
ATOM     16  C   UNL     1      33.528 -18.378 -24.278  0.00  0.00    +0.014 C 
ATOM     17  C   UNL     1      34.039 -17.087 -24.121  0.00  0.00    +0.051 C 
ATOM     18  C   UNL     1      32.972 -18.752 -25.505  0.00  0.00    +0.001 C 
ATOM     19  C   UNL     1      33.999 -16.171 -25.176  0.00  0.00    +0.015 C 
ATOM     20  C   UNL     1      32.932 -17.838 -26.561  0.00  0.00    +0.000 C 
ATOM     21  C   UNL     1      33.443 -16.551 -26.396  0.00  0.00    +0.001 C 
ATOM     22  H   UNL     1      34.951 -15.796 -22.798  0.00  0.00    +0.155 HD
ENDBRANCH   9  13
BRANCH   2  23
ATOM     23  C   UNL     1      34.000 -23.880 -16.389  0.00  0.00    -0.050 C 
BRANCH  23  24
ATOM     24  N   UNL     1      35.018 -24.093 -15.361  0.00  0.00    +0.390 N 
ATOM     25  C   UNL     1      36.072 -25.216 -12.865  0.00  0.00    -0.026 C 
ATOM     26  C   UNL     1      35.628 -23.755 -12.986  0.00  0.00    -0.025 C 
ATOM     27  C   UNL     1      36.478 -25.749 -14.243  0.00  0.00    -0.025 C 
ATOM     28  C   UNL     1      34.553 -23.588 -14.062  0.00  0.00    -0.077 C 
ATOM     29  C   UNL     1      35.375 -25.517 -15.277  0.00  0.00    -0.077 C 
ATOM     30  H   UNL     1      35.857 -23.574 -15.618  0.00  0.00    -0.079 HD
BRANCH  25  31
ATOM     31  C   UNL     1      37.214 -25.361 -11.862  0.00  0.00    -0.086 C 
BRANCH  31  32
ATOM     32  N   UNL     1      37.819 -24.070 -11.574  0.00  0.00    +0.380 N 
ATOM     33  H   UNL     1      38.741 -24.023 -12.006  0.00  0.00    -0.089 HD
ATOM     34  H   UNL     1      37.911 -23.956 -10.564  0.00  0.00    -0.089 HD
ATOM     35  H   UNL     1      37.230 -23.327 -11.949  0.00  0.00    -0.089 HD
ENDBRANCH  31  32
ENDBRANCH  25  31
ENDBRANCH  23  24
ENDBRANCH   2  23
TORSDOF 5
ENDMDL
MODEL 4
REMARK VINA RESULT:     -12.2      2.784     10.515
REMARK  Name = 10156987
REMARK  5 active torsions:
REMARK  status: ('A' for Active; 'I' for Inactive)
REMARK    1  A    between atoms: C_2  and  C_23
REMARK    2  A    between atoms: C_9  and  C_13
REMARK    3  A    between atoms: C_23  and  N_24
REMARK    4  A    between atoms: C_25  and  C_31
REMARK    5  A    between atoms: C_31  and  N_32
REMARK                            x       y       z     vdW  Elec       q    Type
REMARK                         _______ _______ _______ _____ _____    ______ ____
ROOT
ATOM      1  N   UNL     1      33.984 -13.537 -21.914  0.00  0.00    -0.312 N 
ATOM      2  C   UNL     1      34.944 -17.537 -21.865  0.00  0.00    -0.043 C 
ATOM      3  C   UNL     1      34.690 -16.836 -23.045  0.00  0.00    -0.005 C 
ATOM      4  C   UNL     1      34.887 -16.912 -20.625  0.00  0.00    -0.005 C 
ATOM      5  C   UNL     1      34.368 -15.466 -22.968  0.00  0.00    +0.014 C 
ATOM      6  C   UNL     1      34.315 -14.859 -21.711  0.00  0.00    +0.048 C 
ATOM      7  C   UNL     1      34.569 -15.555 -20.524  0.00  0.00    +0.014 C 
ATOM      8  C   UNL     1      34.057 -14.464 -23.929  0.00  0.00    +0.016 C 
ATOM      9  C   UNL     1      33.825 -13.290 -23.251  0.00  0.00    +0.053 C 
ATOM     10  H   UNL     1      33.876 -12.868 -21.200  0.00  0.00    +0.152 HD
ENDROOT
BRANCH   9  13
ATOM     11  O   UNL     1      31.646 -11.815 -22.137  0.00  0.00    -0.270 OA
ATOM     12  N   UNL     1      32.056  -9.976 -23.443  0.00  0.00    -0.280 N 
ATOM     13  C   UNL     1      33.477 -11.964 -23.656  0.00  0.00    +0.067 C 
ATOM     14  C   UNL     1      34.193 -11.351 -24.614  0.00  0.00    +0.007 C 
ATOM     15  C   UNL     1      32.319 -11.261 -23.006  0.00  0.00    +0.251 C 
ATOM     16  C   UNL     1      33.870  -9.993 -25.045  0.00  0.00    +0.014 C 
ATOM     17  C   UNL     1      32.798  -9.327 -24.442  0.00  0.00    +0.051 C 
ATOM     18  C   UNL     1      34.606  -9.345 -26.041  0.00  0.00    +0.001 C 
ATOM     19  C   UNL     1      32.460  -8.027 -24.826  0.00  0.00    +0.015 C 
ATOM     20  C   UNL     1      34.270  -8.045 -26.426  0.00  0.00    +0.000 C 
ATOM     21  C   UNL     1      33.199  -7.388 -25.820  0.00  0.00    +0.001 C 
ATOM     22  H   UNL     1      31.306  -9.490 -23.029  0.00  0.00    +0.155 HD
ENDBRANCH   9  13
BRANCH   2  23
ATOM     23  C   UNL     1      35.286 -18.996 -21.940  0.00  0.00    -0.050 C 
BRANCH  23  24
ATOM     24  N   UNL     1      34.757 -19.742 -20.799  0.00  0.00    +0.390 N 
ATOM     25  C   UNL     1      33.648 -22.103 -19.459  0.00  0.00    -0.026 C 
ATOM     26  C   UNL     1      32.786 -20.897 -19.848  0.00  0.00    -0.025 C 
ATOM     27  C   UNL     1      35.103 -21.660 -19.275  0.00  0.00    -0.025 C 
ATOM     28  C   UNL     1      33.372 -20.161 -21.055  0.00  0.00    -0.077 C 
ATOM     29  C   UNL     1      35.613 -20.898 -20.500  0.00  0.00    -0.077 C 
ATOM     30  H   UNL     1      34.756 -19.132 -19.982  0.00  0.00    -0.079 HD
BRANCH  25  31
ATOM     31  C   UNL     1      33.115 -22.773 -18.195  0.00  0.00    -0.086 C 
BRANCH  31  32
ATOM     32  N   UNL     1      31.725 -22.410 -17.962  0.00  0.00    +0.380 N 
ATOM     33  H   UNL     1      31.450 -21.682 -18.619  0.00  0.00    -0.089 HD
ATOM     34  H   UNL     1      31.620 -22.065 -17.008  0.00  0.00    -0.089 HD
ATOM     35  H   UNL     1      31.132 -23.230 -18.094  0.00  0.00    -0.089 HD
ENDBRANCH  31  32
ENDBRANCH  25  31
ENDBRANCH  23  24
ENDBRANCH   2  23
TORSDOF 5
ENDMDL
MODEL 5
REMARK VINA RESULT:     -12.1      3.413      6.243
REMARK  Name = 10156987
REMARK  5 active torsions:
REMARK  status: ('A' for Active; 'I' for Inactive)
REMARK    1  A    between atoms: C_2  and  C_23
REMARK    2  A    between atoms: C_9  and  C_13
REMARK    3  A    between atoms: C_23  and  N_24
REMARK    4  A    between atoms: C_25  and  C_31
REMARK    5  A    between atoms: C_31  and  N_32
REMARK                            x       y       z     vdW  Elec       q    Type
REMARK                         _______ _______ _______ _____ _____    ______ ____
ROOT
ATOM      1  N   UNL     1      34.567 -21.617 -18.788  0.00  0.00    -0.312 N 
ATOM      2  C   UNL     1      35.358 -19.186 -22.010  0.00  0.00    -0.043 C 
ATOM      3  C   UNL     1      34.062 -19.532 -21.626  0.00  0.00    -0.005 C 
ATOM      4  C   UNL     1      36.468 -19.649 -21.313  0.00  0.00    -0.005 C 
ATOM      5  C   UNL     1      33.884 -20.371 -20.508  0.00  0.00    +0.014 C 
ATOM      6  C   UNL     1      35.013 -20.826 -19.823  0.00  0.00    +0.048 C 
ATOM      7  C   UNL     1      36.315 -20.483 -20.202  0.00  0.00    +0.014 C 
ATOM      8  C   UNL     1      32.748 -20.916 -19.848  0.00  0.00    +0.016 C 
ATOM      9  C   UNL     1      33.200 -21.677 -18.795  0.00  0.00    +0.053 C 
ATOM     10  H   UNL     1      35.148 -22.073 -18.137  0.00  0.00    +0.152 HD
ENDROOT
BRANCH   9  13
ATOM     11  O   UNL     1      34.593 -23.387 -16.978  0.00  0.00    -0.270 OA
ATOM     12  N   UNL     1      32.671 -24.035 -15.911  0.00  0.00    -0.280 N 
ATOM     13  C   UNL     1      32.553 -22.458 -17.787  0.00  0.00    +0.067 C 
ATOM     14  C   UNL     1      31.215 -22.410 -17.664  0.00  0.00    +0.007 C 
ATOM     15  C   UNL     1      33.369 -23.322 -16.868  0.00  0.00    +0.251 C 
ATOM     16  C   UNL     1      30.523 -23.188 -16.639  0.00  0.00    +0.014 C 
ATOM     17  C   UNL     1      31.274 -23.990 -15.774  0.00  0.00    +0.051 C 
ATOM     18  C   UNL     1      29.133 -23.147 -16.502  0.00  0.00    +0.001 C 
ATOM     19  C   UNL     1      30.648 -24.747 -14.780  0.00  0.00    +0.015 C 
ATOM     20  C   UNL     1      28.505 -23.902 -15.509  0.00  0.00    +0.000 C 
ATOM     21  C   UNL     1      29.261 -24.701 -14.651  0.00  0.00    +0.001 C 
ATOM     22  H   UNL     1      33.181 -24.605 -15.292  0.00  0.00    +0.155 HD
ENDBRANCH   9  13
BRANCH   2  23
ATOM     23  C   UNL     1      35.555 -18.294 -23.200  0.00  0.00    -0.050 C 
BRANCH  23  24
ATOM     24  N   UNL     1      34.299 -18.037 -23.905  0.00  0.00    +0.390 N 
ATOM     25  C   UNL     1      32.657 -17.402 -26.250  0.00  0.00    -0.026 C 
ATOM     26  C   UNL     1      32.961 -16.373 -25.156  0.00  0.00    -0.025 C 
ATOM     27  C   UNL     1      32.750 -18.817 -25.670  0.00  0.00    -0.025 C 
ATOM     28  C   UNL     1      34.290 -16.676 -24.461  0.00  0.00    -0.077 C 
ATOM     29  C   UNL     1      34.086 -19.040 -24.957  0.00  0.00    -0.077 C 
ATOM     30  H   UNL     1      33.530 -18.110 -23.240  0.00  0.00    -0.079 HD
BRANCH  25  31
ATOM     31  C   UNL     1      31.285 -17.154 -26.872  0.00  0.00    -0.086 C 
BRANCH  31  32
ATOM     32  N   UNL     1      31.331 -16.037 -27.803  0.00  0.00    +0.380 N 
ATOM     33  H   UNL     1      31.091 -16.365 -28.738  0.00  0.00    -0.089 HD
ATOM     34  H   UNL     1      32.272 -15.642 -27.813  0.00  0.00    -0.089 HD
ATOM     35  H   UNL     1      30.665 -15.322 -27.511  0.00  0.00    -0.089 HD
ENDBRANCH  31  32
ENDBRANCH  25  31
ENDBRANCH  23  24
ENDBRANCH   2  23
TORSDOF 5
ENDMDL
MODEL 6
REMARK VINA RESULT:     -12.0      2.575     10.695
REMARK  Name = 10156987
REMARK  5 active torsions:
REMARK  status: ('A' for Active; 'I' for Inactive)
REMARK    1  A    between atoms: C_2  and  C_23
REMARK    2  A    between atoms: C_9  and  C_13
REMARK    3  A    between atoms: C_23  and  N_24
REMARK    4  A    between atoms: C_25  and  C_31
REMARK    5  A    between atoms: C_31  and  N_32
REMARK                            x       y       z     vdW  Elec       q    Type
REMARK                         _______ _______ _______ _____ _____    ______ ____
ROOT
ATOM      1  N   UNL     1      33.276 -19.061 -22.272  0.00  0.00    -0.312 N 
ATOM      2  C   UNL     1      35.231 -21.220 -19.368  0.00  0.00    -0.043 C 
ATOM      3  C   UNL     1      35.893 -20.352 -20.237  0.00  0.00    -0.005 C 
ATOM      4  C   UNL     1      33.855 -21.404 -19.437  0.00  0.00    -0.005 C 
ATOM      5  C   UNL     1      35.143 -19.652 -21.203  0.00  0.00    +0.014 C 
ATOM      6  C   UNL     1      33.762 -19.852 -21.255  0.00  0.00    +0.048 C 
ATOM      7  C   UNL     1      33.091 -20.720 -20.387  0.00  0.00    +0.014 C 
ATOM      8  C   UNL     1      35.467 -18.715 -22.223  0.00  0.00    +0.016 C 
ATOM      9  C   UNL     1      34.299 -18.370 -22.863  0.00  0.00    +0.053 C 
ATOM     10  H   UNL     1      32.329 -19.001 -22.536  0.00  0.00    +0.152 HD
ENDROOT
BRANCH   9  13
ATOM     11  O   UNL     1      33.954 -19.245 -25.561  0.00  0.00    -0.270 OA
ATOM     12  N   UNL     1      33.494 -17.133 -26.323  0.00  0.00    -0.280 N 
ATOM     13  C   UNL     1      33.985 -17.492 -23.947  0.00  0.00    +0.067 C 
ATOM     14  C   UNL     1      33.840 -16.176 -23.716  0.00  0.00    +0.007 C 
ATOM     15  C   UNL     1      33.812 -18.044 -25.333  0.00  0.00    +0.251 C 
ATOM     16  C   UNL     1      33.510 -15.252 -24.800  0.00  0.00    +0.014 C 
ATOM     17  C   UNL     1      33.340 -15.757 -26.093  0.00  0.00    +0.051 C 
ATOM     18  C   UNL     1      33.358 -13.882 -24.573  0.00  0.00    +0.001 C 
ATOM     19  C   UNL     1      33.021 -14.905 -27.154  0.00  0.00    +0.015 C 
ATOM     20  C   UNL     1      33.039 -13.028 -25.632  0.00  0.00    +0.000 C 
ATOM     21  C   UNL     1      32.872 -13.539 -26.919  0.00  0.00    +0.001 C 
ATOM     22  H   UNL     1      33.368 -17.469 -27.240  0.00  0.00    +0.155 HD
ENDBRANCH   9  13
BRANCH   2  23
ATOM     23  C   UNL     1      36.024 -21.970 -18.338  0.00  0.00    -0.050 C 
BRANCH  23  24
ATOM     24  N   UNL     1      35.241 -22.239 -17.133  0.00  0.00    +0.390 N 
ATOM     25  C   UNL     1      34.152 -23.933 -15.001  0.00  0.00    -0.026 C 
ATOM     26  C   UNL     1      33.304 -23.448 -16.181  0.00  0.00    -0.025 C 
ATOM     27  C   UNL     1      35.315 -22.963 -14.768  0.00  0.00    -0.025 C 
ATOM     28  C   UNL     1      34.165 -23.198 -17.420  0.00  0.00    -0.077 C 
ATOM     29  C   UNL     1      36.111 -22.727 -16.053  0.00  0.00    -0.077 C 
ATOM     30  H   UNL     1      34.812 -21.368 -16.820  0.00  0.00    -0.079 HD
BRANCH  25  31
ATOM     31  C   UNL     1      33.305 -24.085 -13.741  0.00  0.00    -0.086 C 
BRANCH  31  32
ATOM     32  N   UNL     1      32.221 -25.032 -13.955  0.00  0.00    +0.380 N 
ATOM     33  H   UNL     1      32.088 -25.174 -14.956  0.00  0.00    -0.089 HD
ATOM     34  H   UNL     1      31.362 -24.664 -13.547  0.00  0.00    -0.089 HD
ATOM     35  H   UNL     1      32.454 -25.922 -13.513  0.00  0.00    -0.089 HD
ENDBRANCH  31  32
ENDBRANCH  25  31
ENDBRANCH  23  24
ENDBRANCH   2  23
TORSDOF 5
ENDMDL
MODEL 7
REMARK VINA RESULT:     -11.9      2.641      4.769
REMARK  Name = 10156987
REMARK  5 active torsions:
REMARK  status: ('A' for Active; 'I' for Inactive)
REMARK    1  A    between atoms: C_2  and  C_23
REMARK    2  A    between atoms: C_9  and  C_13
REMARK    3  A    between atoms: C_23  and  N_24
REMARK    4  A    between atoms: C_25  and  C_31
REMARK    5  A    between atoms: C_31  and  N_32
REMARK                            x       y       z     vdW  Elec       q    Type
REMARK                         _______ _______ _______ _____ _____    ______ ____
ROOT
ATOM      1  N   UNL     1      35.856 -20.551 -19.771  0.00  0.00    -0.312 N 
ATOM      2  C   UNL     1      34.880 -18.370 -23.119  0.00  0.00    -0.043 C 
ATOM      3  C   UNL     1      33.943 -19.120 -22.407  0.00  0.00    -0.005 C 
ATOM      4  C   UNL     1      36.213 -18.318 -22.729  0.00  0.00    -0.005 C 
ATOM      5  C   UNL     1      34.366 -19.837 -21.270  0.00  0.00    +0.014 C 
ATOM      6  C   UNL     1      35.710 -19.771 -20.897  0.00  0.00    +0.048 C 
ATOM      7  C   UNL     1      36.655 -19.021 -21.605  0.00  0.00    +0.014 C 
ATOM      8  C   UNL     1      33.713 -20.682 -20.331  0.00  0.00    +0.016 C 
ATOM      9  C   UNL     1      34.654 -21.105 -19.422  0.00  0.00    +0.053 C 
ATOM     10  H   UNL     1      36.703 -20.690 -19.288  0.00  0.00    +0.152 HD
ENDROOT
BRANCH   9  13
ATOM     11  O   UNL     1      32.342 -22.586 -18.633  0.00  0.00    -0.270 OA
ATOM     12  N   UNL     1      33.394 -23.510 -16.818  0.00  0.00    -0.280 N 
ATOM     13  C   UNL     1      34.610 -21.952 -18.270  0.00  0.00    +0.067 C 
ATOM     14  C   UNL     1      35.700 -22.078 -17.494  0.00  0.00    +0.007 C 
ATOM     15  C   UNL     1      33.351 -22.701 -17.938  0.00  0.00    +0.251 C 
ATOM     16  C   UNL     1      35.692 -22.941 -16.316  0.00  0.00    +0.014 C 
ATOM     17  C   UNL     1      34.528 -23.649 -16.001  0.00  0.00    +0.051 C 
ATOM     18  C   UNL     1      36.819 -23.078 -15.500  0.00  0.00    +0.001 C 
ATOM     19  C   UNL     1      34.482 -24.486 -14.884  0.00  0.00    +0.015 C 
ATOM     20  C   UNL     1      36.776 -23.916 -14.383  0.00  0.00    +0.000 C 
ATOM     21  C   UNL     1      35.611 -24.617 -14.076  0.00  0.00    +0.001 C 
ATOM     22  H   UNL     1      32.584 -24.018 -16.581  0.00  0.00    +0.155 HD
ENDBRANCH   9  13
BRANCH   2  23
ATOM     23  C   UNL     1      34.436 -17.605 -24.331  0.00  0.00    -0.050 C 
BRANCH  23  24
ATOM     24  N   UNL     1      33.838 -16.317 -23.978  0.00  0.00    +0.390 N 
ATOM     25  C   UNL     1      33.730 -13.389 -23.851  0.00  0.00    -0.026 C 
ATOM     26  C   UNL     1      34.077 -14.253 -22.634  0.00  0.00    -0.025 C 
ATOM     27  C   UNL     1      32.885 -14.202 -24.838  0.00  0.00    -0.025 C 
ATOM     28  C   UNL     1      34.713 -15.579 -23.055  0.00  0.00    -0.077 C 
ATOM     29  C   UNL     1      33.560 -15.531 -25.187  0.00  0.00    -0.077 C 
ATOM     30  H   UNL     1      32.952 -16.487 -23.502  0.00  0.00    -0.079 HD
BRANCH  25  31
ATOM     31  C   UNL     1      33.006 -12.113 -23.431  0.00  0.00    -0.086 C 
BRANCH  31  32
ATOM     32  N   UNL     1      32.011 -12.394 -22.407  0.00  0.00    +0.380 N 
ATOM     33  H   UNL     1      31.089 -12.125 -22.747  0.00  0.00    -0.089 HD
ATOM     34  H   UNL     1      32.231 -11.862 -21.564  0.00  0.00    -0.089 HD
ATOM     35  H   UNL     1      32.017 -13.391 -22.191  0.00  0.00    -0.089 HD
ENDBRANCH  31  32
ENDBRANCH  25  31
ENDBRANCH  23  24
ENDBRANCH   2  23
TORSDOF 5
ENDMDL
MODEL 8
REMARK VINA RESULT:     -11.8      2.907      9.993
REMARK  Name = 10156987
REMARK  5 active torsions:
REMARK  status: ('A' for Active; 'I' for Inactive)
REMARK    1  A    between atoms: C_2  and  C_23
REMARK    2  A    between atoms: C_9  and  C_13
REMARK    3  A    between atoms: C_23  and  N_24
REMARK    4  A    between atoms: C_25  and  C_31
REMARK    5  A    between atoms: C_31  and  N_32
REMARK                            x       y       z     vdW  Elec       q    Type
REMARK                         _______ _______ _______ _____ _____    ______ ____
ROOT
ATOM      1  N   UNL     1      33.081 -14.039 -24.638  0.00  0.00    -0.312 N 
ATOM      2  C   UNL     1      34.811 -17.523 -23.303  0.00  0.00    -0.043 C 
ATOM      3  C   UNL     1      34.925 -16.313 -22.617  0.00  0.00    -0.005 C 
ATOM      4  C   UNL     1      34.096 -17.618 -24.490  0.00  0.00    -0.005 C 
ATOM      5  C   UNL     1      34.299 -15.168 -23.149  0.00  0.00    +0.014 C 
ATOM      6  C   UNL     1      33.586 -15.286 -24.344  0.00  0.00    +0.048 C 
ATOM      7  C   UNL     1      33.467 -16.496 -25.036  0.00  0.00    +0.014 C 
ATOM      8  C   UNL     1      34.204 -13.809 -22.739  0.00  0.00    +0.016 C 
ATOM      9  C   UNL     1      33.450 -13.140 -23.674  0.00  0.00    +0.053 C 
ATOM     10  H   UNL     1      32.535 -13.825 -25.429  0.00  0.00    +0.152 HD
ENDROOT
BRANCH   9  13
ATOM     11  O   UNL     1      33.748 -11.619 -26.075  0.00  0.00    -0.270 OA
ATOM     12  N   UNL     1      32.745  -9.764 -25.176  0.00  0.00    -0.280 N 
ATOM     13  C   UNL     1      33.016 -11.785 -23.813  0.00  0.00    +0.067 C 
ATOM     14  C   UNL     1      32.434 -11.163 -22.773  0.00  0.00    +0.007 C 
ATOM     15  C   UNL     1      33.205 -11.066 -25.118  0.00  0.00    +0.251 C 
ATOM     16  C   UNL     1      31.971  -9.781 -22.883  0.00  0.00    +0.014 C 
ATOM     17  C   UNL     1      32.136  -9.105 -24.096  0.00  0.00    +0.051 C 
ATOM     18  C   UNL     1      31.366  -9.124 -21.808  0.00  0.00    +0.001 C 
ATOM     19  C   UNL     1      31.704  -7.785 -24.241  0.00  0.00    +0.015 C 
ATOM     20  C   UNL     1      30.933  -7.803 -21.951  0.00  0.00    +0.000 C 
ATOM     21  C   UNL     1      31.102  -7.136 -23.164  0.00  0.00    +0.001 C 
ATOM     22  H   UNL     1      32.851  -9.271 -26.022  0.00  0.00    +0.155 HD
ENDBRANCH   9  13
BRANCH   2  23
ATOM     23  C   UNL     1      35.477 -18.746 -22.743  0.00  0.00    -0.050 C 
BRANCH  23  24
ATOM     24  N   UNL     1      34.772 -19.265 -21.571  0.00  0.00    +0.390 N 
ATOM     25  C   UNL     1      33.352 -21.311 -20.021  0.00  0.00    -0.026 C 
ATOM     26  C   UNL     1      32.628 -20.141 -20.697  0.00  0.00    -0.025 C 
ATOM     27  C   UNL     1      34.806 -20.923 -19.734  0.00  0.00    -0.025 C 
ATOM     28  C   UNL     1      33.396 -19.646 -21.924  0.00  0.00    -0.077 C 
ATOM     29  C   UNL     1      35.503 -20.401 -20.993  0.00  0.00    -0.077 C 
ATOM     30  H   UNL     1      34.724 -18.531 -20.866  0.00  0.00    -0.079 HD
BRANCH  25  31
ATOM     31  C   UNL     1      32.635 -21.735 -18.743  0.00  0.00    -0.086 C 
BRANCH  31  32
ATOM     32  N   UNL     1      32.995 -23.095 -18.372  0.00  0.00    +0.380 N 
ATOM     33  H   UNL     1      32.331 -23.447 -17.684  0.00  0.00    -0.089 HD
ATOM     34  H   UNL     1      33.934 -23.100 -17.971  0.00  0.00    -0.089 HD
ATOM     35  H   UNL     1      32.976 -23.690 -19.200  0.00  0.00    -0.089 HD
ENDBRANCH  31  32
ENDBRANCH  25  31
ENDBRANCH  23  24
ENDBRANCH   2  23
TORSDOF 5
ENDMDL
MODEL 9
REMARK VINA RESULT:     -11.8      2.662     10.749
REMARK  Name = 10156987
REMARK  5 active torsions:
REMARK  status: ('A' for Active; 'I' for Inactive)
REMARK    1  A    between atoms: C_2  and  C_23
REMARK    2  A    between atoms: C_9  and  C_13
REMARK    3  A    between atoms: C_23  and  N_24
REMARK    4  A    between atoms: C_25  and  C_31
REMARK    5  A    between atoms: C_31  and  N_32
REMARK                            x       y       z     vdW  Elec       q    Type
REMARK                         _______ _______ _______ _____ _____    ______ ____
ROOT
ATOM      1  N   UNL     1      33.416 -19.476 -21.828  0.00  0.00    -0.312 N 
ATOM      2  C   UNL     1      35.564 -21.450 -18.929  0.00  0.00    -0.043 C 
ATOM      3  C   UNL     1      36.150 -20.552 -19.821  0.00  0.00    -0.005 C 
ATOM      4  C   UNL     1      34.204 -21.730 -18.971  0.00  0.00    -0.005 C 
ATOM      5  C   UNL     1      35.336 -19.919 -20.784  0.00  0.00    +0.014 C 
ATOM      6  C   UNL     1      33.972 -20.217 -20.809  0.00  0.00    +0.048 C 
ATOM      7  C   UNL     1      33.378 -21.116 -19.917  0.00  0.00    +0.014 C 
ATOM      8  C   UNL     1      35.578 -18.978 -21.822  0.00  0.00    +0.016 C 
ATOM      9  C   UNL     1      34.378 -18.725 -22.446  0.00  0.00    +0.053 C 
ATOM     10  H   UNL     1      32.463 -19.487 -22.077  0.00  0.00    +0.152 HD
ENDROOT
BRANCH   9  13
ATOM     11  O   UNL     1      35.280 -16.034 -22.781  0.00  0.00    -0.270 OA
ATOM     12  N   UNL     1      34.104 -15.747 -24.728  0.00  0.00    -0.280 N 
ATOM     13  C   UNL     1      33.986 -17.887 -23.536  0.00  0.00    +0.067 C 
ATOM     14  C   UNL     1      33.144 -18.362 -24.471  0.00  0.00    +0.007 C 
ATOM     15  C   UNL     1      34.519 -16.487 -23.637  0.00  0.00    +0.251 C 
ATOM     16  C   UNL     1      32.730 -17.537 -25.603  0.00  0.00    +0.014 C 
ATOM     17  C   UNL     1      33.226 -16.234 -25.709  0.00  0.00    +0.051 C 
ATOM     18  C   UNL     1      31.854 -18.019 -26.579  0.00  0.00    +0.001 C 
ATOM     19  C   UNL     1      32.854 -15.415 -26.778  0.00  0.00    +0.015 C 
ATOM     20  C   UNL     1      31.482 -17.202 -27.650  0.00  0.00    +0.000 C 
ATOM     21  C   UNL     1      31.980 -15.903 -27.748  0.00  0.00    +0.001 C 
ATOM     22  H   UNL     1      34.443 -14.827 -24.821  0.00  0.00    +0.155 HD
ENDBRANCH   9  13
BRANCH   2  23
ATOM     23  C   UNL     1      36.425 -22.128 -17.903  0.00  0.00    -0.050 C 
BRANCH  23  24
ATOM     24  N   UNL     1      35.694 -22.392 -16.664  0.00  0.00    +0.390 N 
ATOM     25  C   UNL     1      34.628 -24.092 -14.525  0.00  0.00    -0.026 C 
ATOM     26  C   UNL     1      33.745 -23.522 -15.641  0.00  0.00    -0.025 C 
ATOM     27  C   UNL     1      35.855 -23.196 -14.329  0.00  0.00    -0.025 C 
ATOM     28  C   UNL     1      34.551 -23.279 -16.918  0.00  0.00    -0.077 C 
ATOM     29  C   UNL     1      36.592 -22.963 -15.650  0.00  0.00    -0.077 C 
ATOM     30  H   UNL     1      35.333 -21.509 -16.302  0.00  0.00    -0.079 HD
BRANCH  25  31
ATOM     31  C   UNL     1      33.842 -24.238 -13.225  0.00  0.00    -0.086 C 
BRANCH  31  32
ATOM     32  N   UNL     1      32.542 -24.842 -13.469  0.00  0.00    +0.380 N 
ATOM     33  H   UNL     1      32.499 -25.178 -14.431  0.00  0.00    -0.089 HD
ATOM     34  H   UNL     1      31.810 -24.146 -13.319  0.00  0.00    -0.089 HD
ATOM     35  H   UNL     1      32.403 -25.624 -12.829  0.00  0.00    -0.089 HD
ENDBRANCH  31  32
ENDBRANCH  25  31
ENDBRANCH  23  24
ENDBRANCH   2  23
TORSDOF 5
ENDMDL
