MODEL 1
REMARK VINA RESULT:     -13.1      0.000      0.000
REMARK  Name = 447731
REMARK  4 active torsions:
REMARK  status: ('A' for Active; 'I' for Inactive)
REMARK    1  A    between atoms: N_2  and  C_13
REMARK    2  A    between atoms: C_3  and  C_19
REMARK    3  A    between atoms: C_6  and  C_17
REMARK    4  A    between atoms: C_27  and  C_31
REMARK                            x       y       z     vdW  Elec       q    Type
REMARK                         _______ _______ _______ _____ _____    ______ ____
ROOT
ATOM      1  O   UNL     1      33.449 -23.769 -18.213  0.00  0.00    -0.270 OA
ATOM      2  N   UNL     1      34.782 -22.326 -16.919  0.00  0.00    -0.280 N 
ATOM      3  C   UNL     1      34.031 -22.703 -18.040  0.00  0.00    +0.249 C 
ATOM      4  H   UNL     1      35.182 -21.427 -16.948  0.00  0.00    +0.155 HD
ENDROOT
BRANCH   2  13
ATOM      5  N   UNL     1      36.727 -26.478 -12.388  0.00  0.00    +0.387 N 
ATOM      6  C   UNL     1      37.694 -25.495 -14.437  0.00  0.00    +0.001 C 
ATOM      7  C   UNL     1      36.462 -24.606 -14.526  0.00  0.00    -0.029 C 
ATOM      8  C   UNL     1      37.957 -25.976 -12.996  0.00  0.00    -0.077 C 
ATOM      9  C   UNL     1      35.532 -24.585 -13.466  0.00  0.00    -0.048 C 
ATOM     10  C   UNL     1      35.775 -25.378 -12.206  0.00  0.00    -0.055 C 
ATOM     11  C   UNL     1      36.183 -23.858 -15.681  0.00  0.00    +0.010 C 
ATOM     12  C   UNL     1      34.387 -23.779 -13.555  0.00  0.00    -0.005 C 
ATOM     13  C   UNL     1      35.033 -23.070 -15.764  0.00  0.00    +0.050 C 
ATOM     14  C   UNL     1      34.140 -23.026 -14.700  0.00  0.00    +0.014 C 
ATOM     15  H   UNL     1      36.942 -26.891 -11.480  0.00  0.00    -0.084 HD
ATOM     16  H   UNL     1      36.313 -27.182 -12.999  0.00  0.00    -0.084 HD
BRANCH   6  17
ATOM     17  C   UNL     1      38.970 -24.833 -14.971  0.00  0.00    +0.002 C 
ATOM     18  C   UNL     1      40.200 -25.623 -14.580  0.00  0.00    +0.000 C 
ENDBRANCH   6  17
ENDBRANCH   2  13
BRANCH   3  19
ATOM     19  C   UNL     1      33.969 -21.696 -19.132  0.00  0.00    +0.054 C 
ATOM     20  C   UNL     1      35.101 -20.172 -20.610  0.00  0.00    +0.000 C 
ATOM     21  C   UNL     1      33.852 -19.816 -21.172  0.00  0.00    +0.000 C 
ATOM     22  C   UNL     1      35.143 -21.125 -19.578  0.00  0.00    +0.005 C 
ATOM     23  C   UNL     1      32.742 -21.368 -19.662  0.00  0.00    +0.005 C 
ATOM     24  C   UNL     1      32.682 -20.423 -20.686  0.00  0.00    +0.000 C 
ATOM     25  C   UNL     1      33.809 -18.863 -22.203  0.00  0.00    +0.003 C 
ATOM     26  C   UNL     1      36.270 -19.565 -21.094  0.00  0.00    +0.000 C 
ATOM     27  C   UNL     1      34.981 -18.270 -22.673  0.00  0.00    +0.031 C 
ATOM     28  C   UNL     1      36.209 -18.621 -22.119  0.00  0.00    +0.003 C 
BRANCH  27  31
ATOM     29  N   UNL     1      34.478 -17.627 -25.017  0.00  0.00    -0.343 N 
ATOM     30  N   UNL     1      35.292 -16.040 -23.509  0.00  0.00    -0.285 NA
ATOM     31  C   UNL     1      34.920 -17.285 -23.740  0.00  0.00    +0.117 C 
ATOM     32  H   UNL     1      34.444 -16.945 -25.726  0.00  0.00    +0.144 HD
ATOM     33  H   UNL     1      34.199 -18.552 -25.211  0.00  0.00    +0.144 HD
ATOM     34  H   UNL     1      35.251 -15.371 -24.231  0.00  0.00    +0.188 HD
ENDBRANCH  27  31
ENDBRANCH   3  19
TORSDOF 4
ENDMDL
MODEL 2
REMARK VINA RESULT:     -12.1      3.770     12.072
REMARK  Name = 447731
REMARK  4 active torsions:
REMARK  status: ('A' for Active; 'I' for Inactive)
REMARK    1  A    between atoms: N_2  and  C_13
REMARK    2  A    between atoms: C_3  and  C_19
REMARK    3  A    between atoms: C_6  and  C_17
REMARK    4  A    between atoms: C_27  and  C_31
REMARK                            x       y       z     vdW  Elec       q    Type
REMARK                         _______ _______ _______ _____ _____    ______ ____
ROOT
ATOM      1  O   UNL     1      35.226 -17.781 -24.326  0.00  0.00    -0.270 OA
ATOM      2  N   UNL     1      34.146 -16.303 -22.850  0.00  0.00    -0.280 N 
ATOM      3  C   UNL     1      34.778 -17.497 -23.220  0.00  0.00    +0.249 C 
ATOM      4  H   UNL     1      33.847 -16.245 -21.914  0.00  0.00    +0.155 HD
ENDROOT
BRANCH   2  13
ATOM      5  N   UNL     1      33.137 -11.991 -27.533  0.00  0.00    +0.387 N 
ATOM      6  C   UNL     1      32.773 -14.416 -27.235  0.00  0.00    +0.001 C 
ATOM      7  C   UNL     1      33.195 -14.244 -25.783  0.00  0.00    -0.029 C 
ATOM      8  C   UNL     1      32.239 -13.102 -27.840  0.00  0.00    -0.077 C 
ATOM      9  C   UNL     1      33.396 -12.952 -25.257  0.00  0.00    -0.048 C 
ATOM     10  C   UNL     1      33.127 -11.725 -26.092  0.00  0.00    -0.055 C 
ATOM     11  C   UNL     1      33.471 -15.354 -24.967  0.00  0.00    +0.010 C 
ATOM     12  C   UNL     1      33.803 -12.795 -23.923  0.00  0.00    -0.005 C 
ATOM     13  C   UNL     1      33.889 -15.185 -23.646  0.00  0.00    +0.050 C 
ATOM     14  C   UNL     1      34.049 -13.907 -23.123  0.00  0.00    +0.014 C 
ATOM     15  H   UNL     1      32.826 -11.157 -28.032  0.00  0.00    -0.084 HD
ATOM     16  H   UNL     1      34.084 -12.235 -27.823  0.00  0.00    -0.084 HD
BRANCH   6  17
ATOM     17  C   UNL     1      31.722 -15.512 -27.444  0.00  0.00    +0.002 C 
ATOM     18  C   UNL     1      30.388 -14.921 -27.846  0.00  0.00    +0.000 C 
ENDBRANCH   6  17
ENDBRANCH   2  13
BRANCH   3  19
ATOM     19  C   UNL     1      34.881 -18.523 -22.149  0.00  0.00    +0.054 C 
ATOM     20  C   UNL     1      33.806 -20.077 -20.660  0.00  0.00    +0.000 C 
ATOM     21  C   UNL     1      35.075 -20.437 -20.147  0.00  0.00    +0.000 C 
ATOM     22  C   UNL     1      33.725 -19.106 -21.673  0.00  0.00    +0.005 C 
ATOM     23  C   UNL     1      36.126 -18.855 -21.667  0.00  0.00    +0.005 C 
ATOM     24  C   UNL     1      36.225 -19.816 -20.661  0.00  0.00    +0.000 C 
ATOM     25  C   UNL     1      35.156 -21.407 -19.134  0.00  0.00    +0.003 C 
ATOM     26  C   UNL     1      32.656 -20.697 -20.146  0.00  0.00    +0.000 C 
ATOM     27  C   UNL     1      34.003 -22.013 -18.635  0.00  0.00    +0.031 C 
ATOM     28  C   UNL     1      32.755 -21.658 -19.140  0.00  0.00    +0.003 C 
BRANCH  27  31
ATOM     29  N   UNL     1      33.048 -23.880 -17.307  0.00  0.00    -0.343 N 
ATOM     30  N   UNL     1      35.212 -23.114 -16.875  0.00  0.00    -0.285 NA
ATOM     31  C   UNL     1      34.104 -23.015 -17.586  0.00  0.00    +0.117 C 
ATOM     32  H   UNL     1      33.138 -24.552 -16.593  0.00  0.00    +0.144 HD
ATOM     33  H   UNL     1      32.212 -23.821 -17.824  0.00  0.00    +0.144 HD
ATOM     34  H   UNL     1      35.282 -23.792 -16.164  0.00  0.00    +0.188 HD
ENDBRANCH  27  31
ENDBRANCH   3  19
TORSDOF 4
ENDMDL
MODEL 3
REMARK VINA RESULT:     -12.1      3.822     12.161
REMARK  Name = 447731
REMARK  4 active torsions:
REMARK  status: ('A' for Active; 'I' for Inactive)
REMARK    1  A    between atoms: N_2  and  C_13
REMARK    2  A    between atoms: C_3  and  C_19
REMARK    3  A    between atoms: C_6  and  C_17
REMARK    4  A    between atoms: C_27  and  C_31
REMARK                            x       y       z     vdW  Elec       q    Type
REMARK                         _______ _______ _______ _____ _____    ______ ____
ROOT
ATOM      1  O   UNL     1      32.990 -18.813 -24.400  0.00  0.00    -0.270 OA
ATOM      2  N   UNL     1      34.153 -16.844 -23.854  0.00  0.00    -0.280 N 
ATOM      3  C   UNL     1      33.770 -18.182 -23.696  0.00  0.00    +0.249 C 
ATOM      4  H   UNL     1      34.794 -16.496 -23.193  0.00  0.00    +0.155 HD
ENDROOT
BRANCH   2  13
ATOM      5  N   UNL     1      31.858 -11.934 -27.345  0.00  0.00    +0.387 N 
ATOM      6  C   UNL     1      32.938 -12.201 -25.139  0.00  0.00    +0.001 C 
ATOM      7  C   UNL     1      33.159 -13.666 -25.486  0.00  0.00    -0.029 C 
ATOM      8  C   UNL     1      32.791 -11.325 -26.399  0.00  0.00    -0.077 C 
ATOM      9  C   UNL     1      32.875 -14.131 -26.787  0.00  0.00    -0.048 C 
ATOM     10  C   UNL     1      32.422 -13.182 -27.867  0.00  0.00    -0.055 C 
ATOM     11  C   UNL     1      33.566 -14.593 -24.513  0.00  0.00    +0.010 C 
ATOM     12  C   UNL     1      33.061 -15.486 -27.102  0.00  0.00    -0.005 C 
ATOM     13  C   UNL     1      33.736 -15.942 -24.836  0.00  0.00    +0.050 C 
ATOM     14  C   UNL     1      33.489 -16.386 -26.130  0.00  0.00    +0.014 C 
ATOM     15  H   UNL     1      31.691 -11.289 -28.117  0.00  0.00    -0.084 HD
ATOM     16  H   UNL     1      30.980 -12.137 -26.867  0.00  0.00    -0.084 HD
BRANCH   6  17
ATOM     17  C   UNL     1      34.041 -11.606 -24.256  0.00  0.00    +0.002 C 
ATOM     18  C   UNL     1      34.810 -10.530 -24.993  0.00  0.00    +0.000 C 
ENDBRANCH   6  17
ENDBRANCH   2  13
BRANCH   3  19
ATOM     19  C   UNL     1      34.369 -18.881 -22.528  0.00  0.00    +0.054 C 
ATOM     20  C   UNL     1      34.125 -20.389 -20.670  0.00  0.00    +0.000 C 
ATOM     21  C   UNL     1      35.488 -20.186 -20.348  0.00  0.00    +0.000 C 
ATOM     22  C   UNL     1      33.574 -19.721 -21.777  0.00  0.00    +0.005 C 
ATOM     23  C   UNL     1      35.697 -18.667 -22.237  0.00  0.00    +0.005 C 
ATOM     24  C   UNL     1      36.260 -19.321 -21.142  0.00  0.00    +0.000 C 
ATOM     25  C   UNL     1      36.039 -20.853 -19.242  0.00  0.00    +0.003 C 
ATOM     26  C   UNL     1      33.353 -21.252 -19.877  0.00  0.00    +0.000 C 
ATOM     27  C   UNL     1      35.258 -21.708 -18.464  0.00  0.00    +0.031 C 
ATOM     28  C   UNL     1      33.917 -21.907 -18.782  0.00  0.00    +0.003 C 
BRANCH  27  31
ATOM     29  N   UNL     1      37.197 -22.262 -17.016  0.00  0.00    -0.343 N 
ATOM     30  N   UNL     1      35.089 -23.156 -16.555  0.00  0.00    -0.285 NA
ATOM     31  C   UNL     1      35.843 -22.391 -17.322  0.00  0.00    +0.117 C 
ATOM     32  H   UNL     1      37.573 -22.733 -16.238  0.00  0.00    +0.144 HD
ATOM     33  H   UNL     1      37.777 -21.698 -17.578  0.00  0.00    +0.144 HD
ATOM     34  H   UNL     1      35.483 -23.620 -15.781  0.00  0.00    +0.188 HD
ENDBRANCH  27  31
ENDBRANCH   3  19
TORSDOF 4
ENDMDL
MODEL 4
REMARK VINA RESULT:     -12.0      1.144      2.557
REMARK  Name = 447731
REMARK  4 active torsions:
REMARK  status: ('A' for Active; 'I' for Inactive)
REMARK    1  A    between atoms: N_2  and  C_13
REMARK    2  A    between atoms: C_3  and  C_19
REMARK    3  A    between atoms: C_6  and  C_17
REMARK    4  A    between atoms: C_27  and  C_31
REMARK                            x       y       z     vdW  Elec       q    Type
REMARK                         _______ _______ _______ _____ _____    ______ ____
ROOT
ATOM      1  O   UNL     1      33.885 -23.290 -18.258  0.00  0.00    -0.270 OA
ATOM      2  N   UNL     1      35.558 -21.900 -17.365  0.00  0.00    -0.280 N 
ATOM      3  C   UNL     1      34.572 -22.275 -18.287  0.00  0.00    +0.249 C 
ATOM      4  H   UNL     1      36.015 -21.046 -17.544  0.00  0.00    +0.155 HD
ENDROOT
BRANCH   2  13
ATOM      5  N   UNL     1      36.371 -24.571 -11.556  0.00  0.00    +0.387 N 
ATOM      6  C   UNL     1      34.449 -23.920 -12.965  0.00  0.00    +0.001 C 
ATOM      7  C   UNL     1      35.441 -23.604 -14.074  0.00  0.00    -0.029 C 
ATOM      8  C   UNL     1      35.015 -24.941 -11.958  0.00  0.00    -0.077 C 
ATOM      9  C   UNL     1      36.800 -23.945 -13.921  0.00  0.00    -0.048 C 
ATOM     10  C   UNL     1      37.279 -24.688 -12.699  0.00  0.00    -0.055 C 
ATOM     11  C   UNL     1      35.048 -22.901 -15.226  0.00  0.00    +0.010 C 
ATOM     12  C   UNL     1      37.718 -23.637 -14.937  0.00  0.00    -0.005 C 
ATOM     13  C   UNL     1      35.974 -22.589 -16.224  0.00  0.00    +0.050 C 
ATOM     14  C   UNL     1      37.305 -22.962 -16.082  0.00  0.00    +0.014 C 
ATOM     15  H   UNL     1      36.684 -25.194 -10.810  0.00  0.00    -0.084 HD
ATOM     16  H   UNL     1      36.371 -23.607 -11.224  0.00  0.00    -0.084 HD
BRANCH   6  17
ATOM     17  C   UNL     1      33.098 -24.435 -13.475  0.00  0.00    +0.002 C 
ATOM     18  C   UNL     1      32.038 -23.358 -13.401  0.00  0.00    +0.000 C 
ENDBRANCH   6  17
ENDBRANCH   2  13
BRANCH   3  19
ATOM     19  C   UNL     1      34.375 -21.339 -19.425  0.00  0.00    +0.054 C 
ATOM     20  C   UNL     1      35.306 -19.830 -21.050  0.00  0.00    +0.000 C 
ATOM     21  C   UNL     1      34.004 -19.590 -21.550  0.00  0.00    +0.000 C 
ATOM     22  C   UNL     1      35.477 -20.718 -19.974  0.00  0.00    +0.005 C 
ATOM     23  C   UNL     1      33.098 -21.123 -19.892  0.00  0.00    +0.005 C 
ATOM     24  C   UNL     1      32.910 -20.245 -20.958  0.00  0.00    +0.000 C 
ATOM     25  C   UNL     1      33.832 -18.702 -22.624  0.00  0.00    +0.003 C 
ATOM     26  C   UNL     1      36.399 -19.175 -21.640  0.00  0.00    +0.000 C 
ATOM     27  C   UNL     1      34.930 -18.060 -23.198  0.00  0.00    +0.031 C 
ATOM     28  C   UNL     1      36.211 -18.297 -22.707  0.00  0.00    +0.003 C 
BRANCH  27  31
ATOM     29  N   UNL     1      34.170 -17.571 -25.510  0.00  0.00    -0.343 N 
ATOM     30  N   UNL     1      35.103 -15.882 -24.195  0.00  0.00    -0.285 NA
ATOM     31  C   UNL     1      34.736 -17.144 -24.311  0.00  0.00    +0.117 C 
ATOM     32  H   UNL     1      34.048 -16.934 -26.251  0.00  0.00    +0.144 HD
ATOM     33  H   UNL     1      33.892 -18.509 -25.618  0.00  0.00    +0.144 HD
ATOM     34  H   UNL     1      34.974 -15.259 -24.947  0.00  0.00    +0.188 HD
ENDBRANCH  27  31
ENDBRANCH   3  19
TORSDOF 4
ENDMDL
MODEL 5
REMARK VINA RESULT:     -11.6      2.553     10.909
REMARK  Name = 447731
REMARK  4 active torsions:
REMARK  status: ('A' for Active; 'I' for Inactive)
REMARK    1  A    between atoms: N_2  and  C_13
REMARK    2  A    between atoms: C_3  and  C_19
REMARK    3  A    between atoms: C_6  and  C_17
REMARK    4  A    between atoms: C_27  and  C_31
REMARK                            x       y       z     vdW  Elec       q    Type
REMARK                         _______ _______ _______ _____ _____    ______ ____
ROOT
ATOM      1  O   UNL     1      32.260 -19.795 -21.629  0.00  0.00    -0.270 OA
ATOM      2  N   UNL     1      34.403 -19.099 -22.304  0.00  0.00    -0.280 N 
ATOM      3  C   UNL     1      33.480 -19.783 -21.502  0.00  0.00    +0.249 C 
ATOM      4  H   UNL     1      35.351 -19.202 -22.056  0.00  0.00    +0.155 HD
ENDROOT
BRANCH   2  13
ATOM      5  N   UNL     1      32.625 -14.564 -26.525  0.00  0.00    +0.387 N 
ATOM      6  C   UNL     1      33.283 -14.623 -24.145  0.00  0.00    +0.001 C 
ATOM      7  C   UNL     1      33.617 -16.096 -24.332  0.00  0.00    -0.029 C 
ATOM      8  C   UNL     1      33.342 -13.845 -25.474  0.00  0.00    -0.077 C 
ATOM      9  C   UNL     1      33.599 -16.664 -25.622  0.00  0.00    -0.048 C 
ATOM     10  C   UNL     1      33.321 -15.815 -26.838  0.00  0.00    -0.055 C 
ATOM     11  C   UNL     1      33.869 -16.932 -23.231  0.00  0.00    +0.010 C 
ATOM     12  C   UNL     1      33.890 -18.026 -25.792  0.00  0.00    -0.005 C 
ATOM     13  C   UNL     1      34.145 -18.289 -23.412  0.00  0.00    +0.050 C 
ATOM     14  C   UNL     1      34.161 -18.834 -24.691  0.00  0.00    +0.014 C 
ATOM     15  H   UNL     1      32.581 -13.984 -27.363  0.00  0.00    -0.084 HD
ATOM     16  H   UNL     1      31.681 -14.777 -26.203  0.00  0.00    -0.084 HD
BRANCH   6  17
ATOM     17  C   UNL     1      34.179 -13.914 -23.123  0.00  0.00    +0.002 C 
ATOM     18  C   UNL     1      33.481 -13.774 -21.788  0.00  0.00    +0.000 C 
ENDBRANCH   6  17
ENDBRANCH   2  13
BRANCH   3  19
ATOM     19  C   UNL     1      34.064 -20.546 -20.368  0.00  0.00    +0.054 C 
ATOM     20  C   UNL     1      33.761 -22.005 -18.480  0.00  0.00    +0.000 C 
ATOM     21  C   UNL     1      35.157 -21.972 -18.251  0.00  0.00    +0.000 C 
ATOM     22  C   UNL     1      33.224 -21.278 -19.556  0.00  0.00    +0.005 C 
ATOM     23  C   UNL     1      35.425 -20.498 -20.167  0.00  0.00    +0.005 C 
ATOM     24  C   UNL     1      35.975 -21.213 -19.104  0.00  0.00    +0.000 C 
ATOM     25  C   UNL     1      35.694 -22.698 -17.175  0.00  0.00    +0.003 C 
ATOM     26  C   UNL     1      32.943 -22.764 -17.628  0.00  0.00    +0.000 C 
ATOM     27  C   UNL     1      34.867 -23.447 -16.338  0.00  0.00    +0.031 C 
ATOM     28  C   UNL     1      33.493 -23.479 -16.564  0.00  0.00    +0.003 C 
BRANCH  27  31
ATOM     29  N   UNL     1      34.632 -24.903 -14.342  0.00  0.00    -0.343 N 
ATOM     30  N   UNL     1      36.745 -24.202 -15.046  0.00  0.00    -0.285 NA
ATOM     31  C   UNL     1      35.438 -24.193 -15.229  0.00  0.00    +0.117 C 
ATOM     32  H   UNL     1      35.039 -25.403 -13.597  0.00  0.00    +0.144 HD
ATOM     33  H   UNL     1      33.654 -24.907 -14.459  0.00  0.00    +0.144 HD
ATOM     34  H   UNL     1      37.135 -24.707 -14.295  0.00  0.00    +0.188 HD
ENDBRANCH  27  31
ENDBRANCH   3  19
TORSDOF 4
ENDMDL
MODEL 6
REMARK VINA RESULT:     -11.6      2.104     10.333
REMARK  Name = 447731
REMARK  4 active torsions:
REMARK  status: ('A' for Active; 'I' for Inactive)
REMARK    1  A    between atoms: N_2  and  C_13
REMARK    2  A    between atoms: C_3  and  C_19
REMARK    3  A    between atoms: C_6  and  C_17
REMARK    4  A    between atoms: C_27  and  C_31
REMARK                            x       y       z     vdW  Elec       q    Type
REMARK                         _______ _______ _______ _____ _____    ______ ____
ROOT
ATOM      1  O   UNL     1      36.185 -21.148 -20.970  0.00  0.00    -0.270 OA
ATOM      2  N   UNL     1      34.583 -19.575 -20.272  0.00  0.00    -0.280 N 
ATOM      3  C   UNL     1      35.354 -20.739 -20.166  0.00  0.00    +0.249 C 
ATOM      4  H   UNL     1      33.961 -19.398 -19.529  0.00  0.00    +0.155 HD
ENDROOT
BRANCH   2  13
ATOM      5  N   UNL     1      34.743 -16.296 -25.819  0.00  0.00    +0.387 N 
ATOM      6  C   UNL     1      33.974 -18.527 -25.090  0.00  0.00    +0.001 C 
ATOM      7  C   UNL     1      34.269 -18.100 -23.659  0.00  0.00    -0.029 C 
ATOM      8  C   UNL     1      33.717 -17.319 -26.012  0.00  0.00    -0.077 C 
ATOM      9  C   UNL     1      34.615 -16.762 -23.382  0.00  0.00    -0.048 C 
ATOM     10  C   UNL     1      34.629 -15.723 -24.475  0.00  0.00    -0.055 C 
ATOM     11  C   UNL     1      34.283 -19.031 -22.608  0.00  0.00    +0.010 C 
ATOM     12  C   UNL     1      34.905 -16.372 -22.066  0.00  0.00    -0.005 C 
ATOM     13  C   UNL     1      34.586 -18.633 -21.304  0.00  0.00    +0.050 C 
ATOM     14  C   UNL     1      34.890 -17.305 -21.032  0.00  0.00    +0.014 C 
ATOM     15  H   UNL     1      34.619 -15.558 -26.513  0.00  0.00    -0.084 HD
ATOM     16  H   UNL     1      35.665 -16.720 -25.926  0.00  0.00    -0.084 HD
BRANCH   6  17
ATOM     17  C   UNL     1      32.791 -19.495 -25.211  0.00  0.00    +0.002 C 
ATOM     18  C   UNL     1      31.692 -18.909 -26.071  0.00  0.00    +0.000 C 
ENDBRANCH   6  17
ENDBRANCH   2  13
BRANCH   3  19
ATOM     19  C   UNL     1      35.103 -21.561 -18.953  0.00  0.00    +0.054 C 
ATOM     20  C   UNL     1      35.877 -22.441 -16.852  0.00  0.00    +0.000 C 
ATOM     21  C   UNL     1      34.633 -23.096 -16.687  0.00  0.00    +0.000 C 
ATOM     22  C   UNL     1      36.098 -21.667 -18.004  0.00  0.00    +0.005 C 
ATOM     23  C   UNL     1      33.886 -22.188 -18.817  0.00  0.00    +0.005 C 
ATOM     24  C   UNL     1      33.648 -22.960 -17.680  0.00  0.00    +0.000 C 
ATOM     25  C   UNL     1      34.411 -23.870 -15.537  0.00  0.00    +0.003 C 
ATOM     26  C   UNL     1      36.861 -22.577 -15.860  0.00  0.00    +0.000 C 
ATOM     27  C   UNL     1      35.400 -23.995 -14.561  0.00  0.00    +0.031 C 
ATOM     28  C   UNL     1      36.623 -23.349 -14.723  0.00  0.00    +0.003 C 
BRANCH  27  31
ATOM     29  N   UNL     1      36.049 -25.790 -12.974  0.00  0.00    -0.343 N 
ATOM     30  N   UNL     1      34.064 -24.599 -12.659  0.00  0.00    -0.285 NA
ATOM     31  C   UNL     1      35.154 -24.799 -13.375  0.00  0.00    +0.117 C 
ATOM     32  H   UNL     1      35.863 -26.323 -12.167  0.00  0.00    +0.144 HD
ATOM     33  H   UNL     1      36.867 -25.957 -13.496  0.00  0.00    +0.144 HD
ATOM     34  H   UNL     1      33.895 -25.143 -11.855  0.00  0.00    +0.188 HD
ENDBRANCH  27  31
ENDBRANCH   3  19
TORSDOF 4
ENDMDL
MODEL 7
REMARK VINA RESULT:     -11.5      2.128     10.228
REMARK  Name = 447731
REMARK  4 active torsions:
REMARK  status: ('A' for Active; 'I' for Inactive)
REMARK    1  A    between atoms: N_2  and  C_13
REMARK    2  A    between atoms: C_3  and  C_19
REMARK    3  A    between atoms: C_6  and  C_17
REMARK    4  A    between atoms: C_27  and  C_31
REMARK                            x       y       z     vdW  Elec       q    Type
REMARK                         _______ _______ _______ _____ _____    ______ ____
ROOT
ATOM      1  O   UNL     1      32.267 -20.615 -20.743  0.00  0.00    -0.270 OA
ATOM      2  N   UNL     1      34.525 -20.080 -21.121  0.00  0.00    -0.280 N 
ATOM      3  C   UNL     1      33.456 -20.686 -20.450  0.00  0.00    +0.249 C 
ATOM      4  H   UNL     1      35.420 -20.244 -20.745  0.00  0.00    +0.155 HD
ENDROOT
BRANCH   2  13
ATOM      5  N   UNL     1      33.621 -15.521 -25.586  0.00  0.00    +0.387 N 
ATOM      6  C   UNL     1      33.889 -15.582 -23.131  0.00  0.00    +0.001 C 
ATOM      7  C   UNL     1      34.191 -17.069 -23.258  0.00  0.00    -0.029 C 
ATOM      8  C   UNL     1      34.189 -14.819 -24.437  0.00  0.00    -0.077 C 
ATOM      9  C   UNL     1      34.356 -17.647 -24.533  0.00  0.00    -0.048 C 
ATOM     10  C   UNL     1      34.309 -16.800 -25.780  0.00  0.00    -0.055 C 
ATOM     11  C   UNL     1      34.231 -17.903 -22.129  0.00  0.00    +0.010 C 
ATOM     12  C   UNL     1      34.616 -19.021 -24.649  0.00  0.00    -0.005 C 
ATOM     13  C   UNL     1      34.478 -19.271 -22.259  0.00  0.00    +0.050 C 
ATOM     14  C   UNL     1      34.676 -19.828 -23.517  0.00  0.00    +0.014 C 
ATOM     15  H   UNL     1      33.734 -14.947 -26.422  0.00  0.00    -0.084 HD
ATOM     16  H   UNL     1      32.630 -15.694 -25.418  0.00  0.00    -0.084 HD
BRANCH   6  17
ATOM     17  C   UNL     1      34.638 -14.898 -21.982  0.00  0.00    +0.002 C 
ATOM     18  C   UNL     1      33.682 -14.163 -21.068  0.00  0.00    +0.000 C 
ENDBRANCH   6  17
ENDBRANCH   2  13
BRANCH   3  19
ATOM     19  C   UNL     1      33.824 -21.471 -19.242  0.00  0.00    +0.054 C 
ATOM     20  C   UNL     1      35.482 -22.136 -17.632  0.00  0.00    +0.000 C 
ATOM     21  C   UNL     1      34.510 -22.938 -16.986  0.00  0.00    +0.000 C 
ATOM     22  C   UNL     1      35.118 -21.400 -18.772  0.00  0.00    +0.005 C 
ATOM     23  C   UNL     1      32.860 -22.242 -18.634  0.00  0.00    +0.005 C 
ATOM     24  C   UNL     1      33.203 -22.980 -17.501  0.00  0.00    +0.000 C 
ATOM     25  C   UNL     1      34.873 -23.675 -15.847  0.00  0.00    +0.003 C 
ATOM     26  C   UNL     1      36.788 -22.094 -17.118  0.00  0.00    +0.000 C 
ATOM     27  C   UNL     1      36.175 -23.621 -15.351  0.00  0.00    +0.031 C 
ATOM     28  C   UNL     1      37.131 -22.832 -15.985  0.00  0.00    +0.003 C 
BRANCH  27  31
ATOM     29  N   UNL     1      35.800 -25.508 -13.782  0.00  0.00    -0.343 N 
ATOM     30  N   UNL     1      37.575 -24.028 -13.441  0.00  0.00    -0.285 NA
ATOM     31  C   UNL     1      36.535 -24.390 -14.170  0.00  0.00    +0.117 C 
ATOM     32  H   UNL     1      36.061 -26.014 -12.979  0.00  0.00    +0.144 HD
ATOM     33  H   UNL     1      35.020 -25.793 -14.310  0.00  0.00    +0.144 HD
ATOM     34  H   UNL     1      37.820 -24.547 -12.641  0.00  0.00    +0.188 HD
ENDBRANCH  27  31
ENDBRANCH   3  19
TORSDOF 4
ENDMDL
MODEL 8
REMARK VINA RESULT:     -11.5      7.249     14.637
REMARK  Name = 447731
REMARK  4 active torsions:
REMARK  status: ('A' for Active; 'I' for Inactive)
REMARK    1  A    between atoms: N_2  and  C_13
REMARK    2  A    between atoms: C_3  and  C_19
REMARK    3  A    between atoms: C_6  and  C_17
REMARK    4  A    between atoms: C_27  and  C_31
REMARK                            x       y       z     vdW  Elec       q    Type
REMARK                         _______ _______ _______ _____ _____    ______ ____
ROOT
ATOM      1  O   UNL     1      32.785 -12.918 -24.976  0.00  0.00    -0.270 OA
ATOM      2  N   UNL     1      34.478 -11.659 -23.938  0.00  0.00    -0.280 N 
ATOM      3  C   UNL     1      33.702 -12.801 -24.170  0.00  0.00    +0.249 C 
ATOM      4  H   UNL     1      35.177 -11.743 -23.249  0.00  0.00    +0.155 HD
ENDROOT
BRANCH   2  13
ATOM      5  N   UNL     1      32.875  -5.831 -26.178  0.00  0.00    +0.387 N 
ATOM      6  C   UNL     1      32.482  -7.113 -24.103  0.00  0.00    +0.001 C 
ATOM      7  C   UNL     1      33.429  -8.173 -24.645  0.00  0.00    -0.029 C 
ATOM      8  C   UNL     1      32.749  -5.728 -24.726  0.00  0.00    -0.077 C 
ATOM      9  C   UNL     1      34.163  -7.926 -25.823  0.00  0.00    -0.048 C 
ATOM     10  C   UNL     1      34.080  -6.592 -26.522  0.00  0.00    -0.055 C 
ATOM     11  C   UNL     1      33.533  -9.436 -24.040  0.00  0.00    +0.010 C 
ATOM     12  C   UNL     1      35.023  -8.911 -26.332  0.00  0.00    -0.005 C 
ATOM     13  C   UNL     1      34.383 -10.414 -24.563  0.00  0.00    +0.050 C 
ATOM     14  C   UNL     1      35.131 -10.149 -25.705  0.00  0.00    +0.014 C 
ATOM     15  H   UNL     1      32.940  -4.895 -26.580  0.00  0.00    -0.084 HD
ATOM     16  H   UNL     1      32.057  -6.312 -26.553  0.00  0.00    -0.084 HD
BRANCH   6  17
ATOM     17  C   UNL     1      32.520  -6.977 -22.576  0.00  0.00    +0.002 C 
ATOM     18  C   UNL     1      32.300  -5.541 -22.150  0.00  0.00    +0.000 C 
ENDBRANCH   6  17
ENDBRANCH   2  13
BRANCH   3  19
ATOM     19  C   UNL     1      34.027 -13.976 -23.319  0.00  0.00    +0.054 C 
ATOM     20  C   UNL     1      34.553 -16.316 -23.134  0.00  0.00    +0.000 C 
ATOM     21  C   UNL     1      34.634 -16.169 -21.728  0.00  0.00    +0.000 C 
ATOM     22  C   UNL     1      34.245 -15.196 -23.924  0.00  0.00    +0.005 C 
ATOM     23  C   UNL     1      34.100 -13.807 -21.955  0.00  0.00    +0.005 C 
ATOM     24  C   UNL     1      34.404 -14.907 -21.155  0.00  0.00    +0.000 C 
ATOM     25  C   UNL     1      34.942 -17.288 -20.937  0.00  0.00    +0.003 C 
ATOM     26  C   UNL     1      34.782 -17.577 -23.706  0.00  0.00    +0.000 C 
ATOM     27  C   UNL     1      35.166 -18.534 -21.523  0.00  0.00    +0.031 C 
ATOM     28  C   UNL     1      35.086 -18.677 -22.906  0.00  0.00    +0.003 C 
BRANCH  27  31
ATOM     29  N   UNL     1      34.571 -20.720 -20.509  0.00  0.00    -0.343 N 
ATOM     30  N   UNL     1      36.655 -19.753 -20.085  0.00  0.00    -0.285 NA
ATOM     31  C   UNL     1      35.484 -19.683 -20.690  0.00  0.00    +0.117 C 
ATOM     32  H   UNL     1      34.807 -21.489 -19.941  0.00  0.00    +0.144 HD
ATOM     33  H   UNL     1      33.691 -20.686 -20.950  0.00  0.00    +0.144 HD
ATOM     34  H   UNL     1      36.872 -20.530 -19.521  0.00  0.00    +0.188 HD
ENDBRANCH  27  31
ENDBRANCH   3  19
TORSDOF 4
ENDMDL
MODEL 9
REMARK VINA RESULT:     -11.2      2.818     11.158
REMARK  Name = 447731
REMARK  4 active torsions:
REMARK  status: ('A' for Active; 'I' for Inactive)
REMARK    1  A    between atoms: N_2  and  C_13
REMARK    2  A    between atoms: C_3  and  C_19
REMARK    3  A    between atoms: C_6  and  C_17
REMARK    4  A    between atoms: C_27  and  C_31
REMARK                            x       y       z     vdW  Elec       q    Type
REMARK                         _______ _______ _______ _____ _____    ______ ____
ROOT
ATOM      1  O   UNL     1      34.553 -19.763 -23.361  0.00  0.00    -0.270 OA
ATOM      2  N   UNL     1      34.498 -17.772 -22.111  0.00  0.00    -0.280 N 
ATOM      3  C   UNL     1      34.653 -19.150 -22.303  0.00  0.00    +0.249 C 
ATOM      4  H   UNL     1      34.613 -17.448 -21.189  0.00  0.00    +0.155 HD
ENDROOT
BRANCH   2  13
ATOM      5  N   UNL     1      33.105 -14.316 -27.371  0.00  0.00    +0.387 N 
ATOM      6  C   UNL     1      32.646 -16.608 -26.572  0.00  0.00    +0.001 C 
ATOM      7  C   UNL     1      33.274 -16.210 -25.243  0.00  0.00    -0.029 C 
ATOM      8  C   UNL     1      32.111 -15.387 -27.346  0.00  0.00    -0.077 C 
ATOM      9  C   UNL     1      33.618 -14.864 -25.003  0.00  0.00    -0.048 C 
ATOM     10  C   UNL     1      33.309 -13.792 -26.018  0.00  0.00    -0.055 C 
ATOM     11  C   UNL     1      33.594 -17.171 -24.271  0.00  0.00    +0.010 C 
ATOM     12  C   UNL     1      34.213 -14.501 -23.786  0.00  0.00    -0.005 C 
ATOM     13  C   UNL     1      34.198 -16.799 -23.068  0.00  0.00    +0.050 C 
ATOM     14  C   UNL     1      34.502 -15.465 -22.824  0.00  0.00    +0.014 C 
ATOM     15  H   UNL     1      32.778 -13.564 -27.978  0.00  0.00    -0.084 HD
ATOM     16  H   UNL     1      33.988 -14.685 -27.724  0.00  0.00    -0.084 HD
BRANCH   6  17
ATOM     17  C   UNL     1      31.515 -17.633 -26.435  0.00  0.00    +0.002 C 
ATOM     18  C   UNL     1      32.043 -19.047 -26.542  0.00  0.00    +0.000 C 
ENDBRANCH   6  17
ENDBRANCH   2  13
BRANCH   3  19
ATOM     19  C   UNL     1      34.944 -19.936 -21.075  0.00  0.00    +0.054 C 
ATOM     20  C   UNL     1      34.183 -21.402 -19.327  0.00  0.00    +0.000 C 
ATOM     21  C   UNL     1      35.489 -21.402 -18.781  0.00  0.00    +0.000 C 
ATOM     22  C   UNL     1      33.924 -20.655 -20.488  0.00  0.00    +0.005 C 
ATOM     23  C   UNL     1      36.222 -19.918 -20.564  0.00  0.00    +0.005 C 
ATOM     24  C   UNL     1      36.497 -20.654 -19.412  0.00  0.00    +0.000 C 
ATOM     25  C   UNL     1      35.749 -22.148 -17.619  0.00  0.00    +0.003 C 
ATOM     26  C   UNL     1      33.176 -22.149 -18.696  0.00  0.00    +0.000 C 
ATOM     27  C   UNL     1      34.736 -22.884 -17.005  0.00  0.00    +0.031 C 
ATOM     28  C   UNL     1      33.451 -22.884 -17.543  0.00  0.00    +0.003 C 
BRANCH  27  31
ATOM     29  N   UNL     1      34.206 -23.561 -14.676  0.00  0.00    -0.343 N 
ATOM     30  N   UNL     1      36.071 -24.450 -15.767  0.00  0.00    -0.285 NA
ATOM     31  C   UNL     1      35.021 -23.651 -15.804  0.00  0.00    +0.117 C 
ATOM     32  H   UNL     1      34.417 -24.090 -13.873  0.00  0.00    +0.144 HD
ATOM     33  H   UNL     1      33.419 -22.969 -14.683  0.00  0.00    +0.144 HD
ATOM     34  H   UNL     1      36.266 -24.970 -14.954  0.00  0.00    +0.188 HD
ENDBRANCH  27  31
ENDBRANCH   3  19
TORSDOF 4
ENDMDL
