MODEL 1
REMARK VINA RESULT:     -13.9      0.000      0.000
REMARK  Name = 115237
REMARK  5 active torsions:
REMARK  status: ('A' for Active; 'I' for Inactive)
REMARK    1  A    between atoms: N_1  and  C_18
REMARK    2  A    between atoms: C_2  and  C_11
REMARK    3  A    between atoms: C_18  and  C_19
REMARK    4  A    between atoms: C_19  and  C_23
REMARK    5  A    between atoms: C_25  and  O_32
REMARK                            x       y       z     vdW  Elec       q    Type
REMARK                         _______ _______ _______ _____ _____    ______ ____
ROOT
ATOM      1  N   UNL     1      33.981 -21.989 -18.572  0.00  0.00    +0.387 N 
ATOM      2  C   UNL     1      34.382 -20.215 -20.874  0.00  0.00    +0.039 C 
ATOM      3  C   UNL     1      33.025 -20.353 -20.165  0.00  0.00    -0.017 C 
ATOM      4  C   UNL     1      35.518 -20.577 -19.902  0.00  0.00    -0.017 C 
ATOM      5  C   UNL     1      32.879 -21.728 -19.509  0.00  0.00    -0.077 C 
ATOM      6  C   UNL     1      35.281 -21.943 -19.256  0.00  0.00    -0.077 C 
ATOM      7  H   UNL     1      33.972 -21.254 -17.864  0.00  0.00    -0.080 HD
ENDROOT
BRANCH   2  11
ATOM      8  F   UNL     1      34.168 -16.315 -26.348  0.00  0.00    -0.204 F 
ATOM      9  O   UNL     1      35.043 -16.757 -21.639  0.00  0.00    -0.354 OA
ATOM     10  N   UNL     1      34.969 -17.834 -20.764  0.00  0.00    -0.081 NA
ATOM     11  C   UNL     1      34.571 -18.859 -21.515  0.00  0.00    +0.100 A 
ATOM     12  C   UNL     1      34.375 -18.512 -22.860  0.00  0.00    +0.054 A 
ATOM     13  C   UNL     1      34.688 -17.164 -22.889  0.00  0.00    +0.179 A 
ATOM     14  C   UNL     1      33.978 -19.145 -24.047  0.00  0.00    +0.007 C 
ATOM     15  C   UNL     1      34.637 -16.371 -24.032  0.00  0.00    +0.070 C 
ATOM     16  C   UNL     1      33.917 -18.376 -25.218  0.00  0.00    +0.030 C 
ATOM     17  C   UNL     1      34.240 -17.015 -25.207  0.00  0.00    +0.143 C 
ENDBRANCH   2  11
BRANCH   1  18
ATOM     18  C   UNL     1      33.795 -23.280 -17.911  0.00  0.00    -0.076 C 
BRANCH  18  19
ATOM     19  C   UNL     1      32.771 -23.147 -16.792  0.00  0.00    -0.007 C 
BRANCH  19  23
ATOM     20  O   UNL     1      35.522 -23.017 -16.385  0.00  0.00    -0.274 OA
ATOM     21  N   UNL     1      35.426 -23.512 -14.111  0.00  0.00    -0.235 N 
ATOM     22  N   UNL     1      33.346 -24.085 -13.140  0.00  0.00    -0.397 NA
ATOM     23  C   UNL     1      33.390 -23.460 -15.461  0.00  0.00    +0.123 C 
ATOM     24  C   UNL     1      36.883 -23.404 -13.998  0.00  0.00    +0.100 C 
ATOM     25  C   UNL     1      35.273 -24.134 -11.688  0.00  0.00    +0.177 C 
ATOM     26  C   UNL     1      37.390 -23.219 -12.580  0.00  0.00    +0.025 C 
ATOM     27  C   UNL     1      36.781 -24.293 -11.705  0.00  0.00    +0.040 C 
ATOM     28  C   UNL     1      34.630 -23.923 -13.055  0.00  0.00    +0.192 C 
ATOM     29  C   UNL     1      34.875 -23.300 -15.377  0.00  0.00    +0.237 C 
ATOM     30  C   UNL     1      32.738 -23.850 -14.348  0.00  0.00    +0.097 C 
ATOM     31  C   UNL     1      31.252 -24.092 -14.312  0.00  0.00    +0.062 C 
BRANCH  25  32
ATOM     32  O   UNL     1      34.698 -25.291 -11.098  0.00  0.00    -0.376 OA
ATOM     33  H   UNL     1      34.987 -26.079 -11.583  0.00  0.00    +0.211 HD
ENDBRANCH  25  32
ENDBRANCH  19  23
ENDBRANCH  18  19
ENDBRANCH   1  18
TORSDOF 5
ENDMDL
MODEL 2
REMARK VINA RESULT:     -13.7      3.681     11.280
REMARK  Name = 115237
REMARK  5 active torsions:
REMARK  status: ('A' for Active; 'I' for Inactive)
REMARK    1  A    between atoms: N_1  and  C_18
REMARK    2  A    between atoms: C_2  and  C_11
REMARK    3  A    between atoms: C_18  and  C_19
REMARK    4  A    between atoms: C_19  and  C_23
REMARK    5  A    between atoms: C_25  and  O_32
REMARK                            x       y       z     vdW  Elec       q    Type
REMARK                         _______ _______ _______ _____ _____    ______ ____
ROOT
ATOM      1  N   UNL     1      33.947 -19.536 -21.171  0.00  0.00    +0.387 N 
ATOM      2  C   UNL     1      34.062 -21.837 -19.357  0.00  0.00    +0.039 C 
ATOM      3  C   UNL     1      35.311 -21.030 -19.747  0.00  0.00    -0.017 C 
ATOM      4  C   UNL     1      32.808 -20.958 -19.497  0.00  0.00    -0.017 C 
ATOM      5  C   UNL     1      35.146 -20.384 -21.124  0.00  0.00    -0.077 C 
ATOM      6  C   UNL     1      32.734 -20.314 -20.883  0.00  0.00    -0.077 C 
ATOM      7  H   UNL     1      34.039 -18.819 -20.451  0.00  0.00    -0.080 HD
ENDROOT
BRANCH   2  11
ATOM      8  F   UNL     1      31.113 -24.504 -13.933  0.00  0.00    -0.204 F 
ATOM      9  O   UNL     1      35.151 -23.260 -16.231  0.00  0.00    -0.354 OA
ATOM     10  N   UNL     1      35.388 -22.670 -17.467  0.00  0.00    -0.081 NA
ATOM     11  C   UNL     1      34.180 -22.473 -17.990  0.00  0.00    +0.100 A 
ATOM     12  C   UNL     1      33.141 -22.907 -17.154  0.00  0.00    +0.054 A 
ATOM     13  C   UNL     1      33.809 -23.400 -16.047  0.00  0.00    +0.179 A 
ATOM     14  C   UNL     1      31.739 -22.951 -17.179  0.00  0.00    +0.007 C 
ATOM     15  C   UNL     1      33.182 -23.950 -14.933  0.00  0.00    +0.070 C 
ATOM     16  C   UNL     1      31.074 -23.498 -16.073  0.00  0.00    +0.030 C 
ATOM     17  C   UNL     1      31.785 -23.988 -14.972  0.00  0.00    +0.143 C 
ENDBRANCH   2  11
BRANCH   1  18
ATOM     18  C   UNL     1      33.836 -18.880 -22.474  0.00  0.00    -0.076 C 
BRANCH  18  19
ATOM     19  C   UNL     1      34.997 -17.915 -22.669  0.00  0.00    -0.007 C 
BRANCH  19  23
ATOM     20  O   UNL     1      34.411 -17.550 -25.365  0.00  0.00    -0.274 OA
ATOM     21  N   UNL     1      33.662 -15.357 -25.128  0.00  0.00    -0.235 N 
ATOM     22  N   UNL     1      33.845 -14.295 -23.021  0.00  0.00    -0.397 NA
ATOM     23  C   UNL     1      34.513 -16.597 -23.203  0.00  0.00    +0.123 C 
ATOM     24  C   UNL     1      33.372 -15.271 -26.561  0.00  0.00    +0.100 C 
ATOM     25  C   UNL     1      32.949 -12.972 -24.829  0.00  0.00    +0.177 C 
ATOM     26  C   UNL     1      32.431 -14.144 -26.945  0.00  0.00    +0.025 C 
ATOM     27  C   UNL     1      32.949 -12.856 -26.341  0.00  0.00    +0.040 C 
ATOM     28  C   UNL     1      33.541 -14.267 -24.281  0.00  0.00    +0.192 C 
ATOM     29  C   UNL     1      34.191 -16.564 -24.663  0.00  0.00    +0.237 C 
ATOM     30  C   UNL     1      34.330 -15.466 -22.494  0.00  0.00    +0.097 C 
ATOM     31  C   UNL     1      34.659 -15.356 -21.028  0.00  0.00    +0.062 C 
BRANCH  25  32
ATOM     32  O   UNL     1      33.682 -11.883 -24.288  0.00  0.00    -0.376 OA
ATOM     33  H   UNL     1      34.314 -11.558 -24.947  0.00  0.00    +0.211 HD
ENDBRANCH  25  32
ENDBRANCH  19  23
ENDBRANCH  18  19
ENDBRANCH   1  18
TORSDOF 5
ENDMDL
MODEL 3
REMARK VINA RESULT:     -13.6      2.204      3.484
REMARK  Name = 115237
REMARK  5 active torsions:
REMARK  status: ('A' for Active; 'I' for Inactive)
REMARK    1  A    between atoms: N_1  and  C_18
REMARK    2  A    between atoms: C_2  and  C_11
REMARK    3  A    between atoms: C_18  and  C_19
REMARK    4  A    between atoms: C_19  and  C_23
REMARK    5  A    between atoms: C_25  and  O_32
REMARK                            x       y       z     vdW  Elec       q    Type
REMARK                         _______ _______ _______ _____ _____    ______ ____
ROOT
ATOM      1  N   UNL     1      35.356 -20.225 -19.716  0.00  0.00    +0.387 N 
ATOM      2  C   UNL     1      34.912 -19.027 -22.356  0.00  0.00    +0.039 C 
ATOM      3  C   UNL     1      33.755 -19.452 -21.437  0.00  0.00    -0.017 C 
ATOM      4  C   UNL     1      36.165 -18.731 -21.515  0.00  0.00    -0.017 C 
ATOM      5  C   UNL     1      34.174 -20.593 -20.508  0.00  0.00    -0.077 C 
ATOM      6  C   UNL     1      36.496 -19.898 -20.583  0.00  0.00    -0.077 C 
ATOM      7  H   UNL     1      35.125 -19.392 -19.174  0.00  0.00    -0.080 HD
ENDROOT
BRANCH   2  11
ATOM      8  F   UNL     1      31.572 -16.770 -27.739  0.00  0.00    -0.204 F 
ATOM      9  O   UNL     1      34.506 -15.866 -24.036  0.00  0.00    -0.354 OA
ATOM     10  N   UNL     1      35.030 -16.670 -23.032  0.00  0.00    -0.081 NA
ATOM     11  C   UNL     1      34.540 -17.885 -23.274  0.00  0.00    +0.100 A 
ATOM     12  C   UNL     1      33.708 -17.926 -24.402  0.00  0.00    +0.054 A 
ATOM     13  C   UNL     1      33.718 -16.618 -24.853  0.00  0.00    +0.179 A 
ATOM     14  C   UNL     1      32.953 -18.882 -25.099  0.00  0.00    +0.007 C 
ATOM     15  C   UNL     1      33.019 -16.168 -25.969  0.00  0.00    +0.070 C 
ATOM     16  C   UNL     1      32.237 -18.463 -26.229  0.00  0.00    +0.030 C 
ATOM     17  C   UNL     1      32.271 -17.131 -26.653  0.00  0.00    +0.143 C 
ENDBRANCH   2  11
BRANCH   1  18
ATOM     18  C   UNL     1      35.708 -21.304 -18.793  0.00  0.00    -0.076 C 
BRANCH  18  19
ATOM     19  C   UNL     1      34.709 -22.445 -18.924  0.00  0.00    -0.007 C 
BRANCH  19  23
ATOM     20  O   UNL     1      31.952 -22.503 -18.548  0.00  0.00    -0.274 OA
ATOM     21  N   UNL     1      32.052 -23.213 -16.331  0.00  0.00    -0.235 N 
ATOM     22  N   UNL     1      34.160 -23.394 -15.270  0.00  0.00    -0.397 NA
ATOM     23  C   UNL     1      34.099 -22.777 -17.593  0.00  0.00    +0.123 C 
ATOM     24  C   UNL     1      30.590 -23.226 -16.240  0.00  0.00    +0.100 C 
ATOM     25  C   UNL     1      32.219 -23.891 -13.925  0.00  0.00    +0.177 C 
ATOM     26  C   UNL     1      30.041 -24.041 -15.085  0.00  0.00    +0.025 C 
ATOM     27  C   UNL     1      30.735 -23.605 -13.813  0.00  0.00    +0.040 C 
ATOM     28  C   UNL     1      32.865 -23.455 -15.236  0.00  0.00    +0.192 C 
ATOM     29  C   UNL     1      32.604 -22.819 -17.553  0.00  0.00    +0.237 C 
ATOM     30  C   UNL     1      34.765 -23.054 -16.455  0.00  0.00    +0.097 C 
ATOM     31  C   UNL     1      36.266 -23.001 -16.351  0.00  0.00    +0.062 C 
BRANCH  25  32
ATOM     32  O   UNL     1      32.892 -23.239 -12.857  0.00  0.00    -0.376 OA
ATOM     33  H   UNL     1      32.382 -22.462 -12.580  0.00  0.00    +0.211 HD
ENDBRANCH  25  32
ENDBRANCH  19  23
ENDBRANCH  18  19
ENDBRANCH   1  18
TORSDOF 5
ENDMDL
MODEL 4
REMARK VINA RESULT:     -13.4      3.715     11.297
REMARK  Name = 115237
REMARK  5 active torsions:
REMARK  status: ('A' for Active; 'I' for Inactive)
REMARK    1  A    between atoms: N_1  and  C_18
REMARK    2  A    between atoms: C_2  and  C_11
REMARK    3  A    between atoms: C_18  and  C_19
REMARK    4  A    between atoms: C_19  and  C_23
REMARK    5  A    between atoms: C_25  and  O_32
REMARK                            x       y       z     vdW  Elec       q    Type
REMARK                         _______ _______ _______ _____ _____    ______ ____
ROOT
ATOM      1  N   UNL     1      33.954 -19.354 -21.339  0.00  0.00    +0.387 N 
ATOM      2  C   UNL     1      33.893 -21.718 -19.603  0.00  0.00    +0.039 C 
ATOM      3  C   UNL     1      35.179 -20.915 -19.860  0.00  0.00    -0.017 C 
ATOM      4  C   UNL     1      32.665 -20.817 -19.815  0.00  0.00    -0.017 C 
ATOM      5  C   UNL     1      35.136 -20.219 -21.222  0.00  0.00    -0.077 C 
ATOM      6  C   UNL     1      32.713 -20.124 -21.179  0.00  0.00    -0.077 C 
ATOM      7  H   UNL     1      33.995 -18.664 -20.588  0.00  0.00    -0.080 HD
ENDROOT
BRANCH   2  11
ATOM      8  F   UNL     1      37.126 -23.389 -13.948  0.00  0.00    -0.204 F 
ATOM      9  O   UNL     1      33.109 -23.529 -16.589  0.00  0.00    -0.354 OA
ATOM     10  N   UNL     1      32.785 -23.016 -17.839  0.00  0.00    -0.081 NA
ATOM     11  C   UNL     1      33.891 -22.401 -18.254  0.00  0.00    +0.100 A 
ATOM     12  C   UNL     1      34.944 -22.482 -17.332  0.00  0.00    +0.054 A 
ATOM     13  C   UNL     1      34.398 -23.209 -16.289  0.00  0.00    +0.179 A 
ATOM     14  C   UNL     1      36.273 -22.044 -17.235  0.00  0.00    +0.007 C 
ATOM     15  C   UNL     1      35.082 -23.545 -15.124  0.00  0.00    +0.070 C 
ATOM     16  C   UNL     1      36.993 -22.366 -16.075  0.00  0.00    +0.030 C 
ATOM     17  C   UNL     1      36.405 -23.102 -15.041  0.00  0.00    +0.143 C 
ENDBRANCH   2  11
BRANCH   1  18
ATOM     18  C   UNL     1      33.959 -18.653 -22.622  0.00  0.00    -0.076 C 
BRANCH  18  19
ATOM     19  C   UNL     1      35.042 -17.582 -22.624  0.00  0.00    -0.007 C 
BRANCH  19  23
ATOM     20  O   UNL     1      34.470 -17.276 -25.330  0.00  0.00    -0.274 OA
ATOM     21  N   UNL     1      33.639 -15.108 -25.130  0.00  0.00    -0.235 N 
ATOM     22  N   UNL     1      33.763 -14.012 -23.037  0.00  0.00    -0.397 NA
ATOM     23  C   UNL     1      34.516 -16.291 -23.180  0.00  0.00    +0.123 C 
ATOM     24  C   UNL     1      33.361 -15.052 -26.567  0.00  0.00    +0.100 C 
ATOM     25  C   UNL     1      32.838 -12.747 -24.872  0.00  0.00    +0.177 C 
ATOM     26  C   UNL     1      32.384 -13.966 -26.975  0.00  0.00    +0.025 C 
ATOM     27  C   UNL     1      32.848 -12.652 -26.385  0.00  0.00    +0.040 C 
ATOM     28  C   UNL     1      33.470 -14.012 -24.300  0.00  0.00    +0.192 C 
ATOM     29  C   UNL     1      34.207 -16.288 -24.644  0.00  0.00    +0.237 C 
ATOM     30  C   UNL     1      34.285 -15.157 -22.489  0.00  0.00    +0.097 C 
ATOM     31  C   UNL     1      34.595 -15.015 -21.022  0.00  0.00    +0.062 C 
BRANCH  25  32
ATOM     32  O   UNL     1      33.525 -11.624 -24.338  0.00  0.00    -0.376 OA
ATOM     33  H   UNL     1      33.478 -10.888 -24.968  0.00  0.00    +0.211 HD
ENDBRANCH  25  32
ENDBRANCH  19  23
ENDBRANCH  18  19
ENDBRANCH   1  18
TORSDOF 5
ENDMDL
MODEL 5
REMARK VINA RESULT:     -13.4      2.370      3.781
REMARK  Name = 115237
REMARK  5 active torsions:
REMARK  status: ('A' for Active; 'I' for Inactive)
REMARK    1  A    between atoms: N_1  and  C_18
REMARK    2  A    between atoms: C_2  and  C_11
REMARK    3  A    between atoms: C_18  and  C_19
REMARK    4  A    between atoms: C_19  and  C_23
REMARK    5  A    between atoms: C_25  and  O_32
REMARK                            x       y       z     vdW  Elec       q    Type
REMARK                         _______ _______ _______ _____ _____    ______ ____
ROOT
ATOM      1  N   UNL     1      35.422 -20.360 -19.543  0.00  0.00    +0.387 N 
ATOM      2  C   UNL     1      34.974 -19.202 -22.200  0.00  0.00    +0.039 C 
ATOM      3  C   UNL     1      33.824 -19.500 -21.225  0.00  0.00    -0.017 C 
ATOM      4  C   UNL     1      36.281 -18.991 -21.417  0.00  0.00    -0.017 C 
ATOM      5  C   UNL     1      34.182 -20.647 -20.278  0.00  0.00    -0.077 C 
ATOM      6  C   UNL     1      36.550 -20.156 -20.463  0.00  0.00    -0.077 C 
ATOM      7  H   UNL     1      35.284 -19.495 -19.018  0.00  0.00    -0.080 HD
ENDROOT
BRANCH   2  11
ATOM      8  F   UNL     1      33.902 -12.635 -23.172  0.00  0.00    -0.204 F 
ATOM      9  O   UNL     1      34.228 -17.069 -25.007  0.00  0.00    -0.354 OA
ATOM     10  N   UNL     1      34.493 -18.308 -24.435  0.00  0.00    -0.081 NA
ATOM     11  C   UNL     1      34.663 -18.058 -23.138  0.00  0.00    +0.100 A 
ATOM     12  C   UNL     1      34.524 -16.700 -22.818  0.00  0.00    +0.054 A 
ATOM     13  C   UNL     1      34.248 -16.111 -24.039  0.00  0.00    +0.179 A 
ATOM     14  C   UNL     1      34.593 -15.892 -21.672  0.00  0.00    +0.007 C 
ATOM     15  C   UNL     1      34.030 -14.749 -24.222  0.00  0.00    +0.070 C 
ATOM     16  C   UNL     1      34.377 -14.515 -21.820  0.00  0.00    +0.030 C 
ATOM     17  C   UNL     1      34.102 -13.957 -23.073  0.00  0.00    +0.143 C 
ENDBRANCH   2  11
BRANCH   1  18
ATOM     18  C   UNL     1      35.719 -21.438 -18.600  0.00  0.00    -0.076 C 
BRANCH  18  19
ATOM     19  C   UNL     1      34.703 -22.560 -18.760  0.00  0.00    -0.007 C 
BRANCH  19  23
ATOM     20  O   UNL     1      31.931 -22.518 -18.508  0.00  0.00    -0.274 OA
ATOM     21  N   UNL     1      31.908 -23.205 -16.282  0.00  0.00    -0.235 N 
ATOM     22  N   UNL     1      33.958 -23.447 -15.125  0.00  0.00    -0.397 NA
ATOM     23  C   UNL     1      34.022 -22.855 -17.455  0.00  0.00    +0.123 C 
ATOM     24  C   UNL     1      30.444 -23.166 -16.256  0.00  0.00    +0.100 C 
ATOM     25  C   UNL     1      31.944 -23.861 -13.863  0.00  0.00    +0.177 C 
ATOM     26  C   UNL     1      29.815 -23.949 -15.119  0.00  0.00    +0.025 C 
ATOM     27  C   UNL     1      30.467 -23.522 -13.821  0.00  0.00    +0.040 C 
ATOM     28  C   UNL     1      32.662 -23.463 -15.149  0.00  0.00    +0.192 C 
ATOM     29  C   UNL     1      32.527 -22.845 -17.482  0.00  0.00    +0.237 C 
ATOM     30  C   UNL     1      34.627 -23.142 -16.285  0.00  0.00    +0.097 C 
ATOM     31  C   UNL     1      36.123 -23.140 -16.115  0.00  0.00    +0.062 C 
BRANCH  25  32
ATOM     32  O   UNL     1      32.591 -23.220 -12.773  0.00  0.00    -0.376 OA
ATOM     33  H   UNL     1      32.417 -23.714 -11.958  0.00  0.00    +0.211 HD
ENDBRANCH  25  32
ENDBRANCH  19  23
ENDBRANCH  18  19
ENDBRANCH   1  18
TORSDOF 5
ENDMDL
MODEL 6
REMARK VINA RESULT:     -13.3      3.673     11.221
REMARK  Name = 115237
REMARK  5 active torsions:
REMARK  status: ('A' for Active; 'I' for Inactive)
REMARK    1  A    between atoms: N_1  and  C_18
REMARK    2  A    between atoms: C_2  and  C_11
REMARK    3  A    between atoms: C_18  and  C_19
REMARK    4  A    between atoms: C_19  and  C_23
REMARK    5  A    between atoms: C_25  and  O_32
REMARK                            x       y       z     vdW  Elec       q    Type
REMARK                         _______ _______ _______ _____ _____    ______ ____
ROOT
ATOM      1  N   UNL     1      33.903 -19.833 -20.967  0.00  0.00    +0.387 N 
ATOM      2  C   UNL     1      34.036 -22.072 -19.076  0.00  0.00    +0.039 C 
ATOM      3  C   UNL     1      35.283 -21.287 -19.514  0.00  0.00    -0.017 C 
ATOM      4  C   UNL     1      32.784 -21.191 -19.226  0.00  0.00    -0.017 C 
ATOM      5  C   UNL     1      35.099 -20.686 -20.909  0.00  0.00    -0.077 C 
ATOM      6  C   UNL     1      32.691 -20.594 -20.632  0.00  0.00    -0.077 C 
ATOM      7  H   UNL     1      34.011 -19.093 -20.273  0.00  0.00    -0.080 HD
ENDROOT
BRANCH   2  11
ATOM      8  F   UNL     1      31.169 -24.670 -13.576  0.00  0.00    -0.204 F 
ATOM      9  O   UNL     1      35.167 -23.361 -15.908  0.00  0.00    -0.354 OA
ATOM     10  N   UNL     1      35.386 -22.802 -17.161  0.00  0.00    -0.081 NA
ATOM     11  C   UNL     1      34.173 -22.662 -17.691  0.00  0.00    +0.100 A 
ATOM     12  C   UNL     1      33.148 -23.105 -16.842  0.00  0.00    +0.054 A 
ATOM     13  C   UNL     1      33.830 -23.541 -15.720  0.00  0.00    +0.179 A 
ATOM     14  C   UNL     1      31.748 -23.197 -16.868  0.00  0.00    +0.007 C 
ATOM     15  C   UNL     1      33.220 -24.078 -14.591  0.00  0.00    +0.070 C 
ATOM     16  C   UNL     1      31.100 -23.732 -15.745  0.00  0.00    +0.030 C 
ATOM     17  C   UNL     1      31.825 -24.164 -14.630  0.00  0.00    +0.143 C 
ENDBRANCH   2  11
BRANCH   1  18
ATOM     18  C   UNL     1      33.775 -19.222 -22.289  0.00  0.00    -0.076 C 
BRANCH  18  19
ATOM     19  C   UNL     1      34.844 -18.154 -22.472  0.00  0.00    -0.007 C 
BRANCH  19  23
ATOM     20  O   UNL     1      34.603 -15.531 -21.573  0.00  0.00    -0.274 OA
ATOM     21  N   UNL     1      33.944 -14.658 -23.631  0.00  0.00    -0.235 N 
ATOM     22  N   UNL     1      33.556 -16.132 -25.440  0.00  0.00    -0.397 NA
ATOM     23  C   UNL     1      34.352 -17.052 -23.366  0.00  0.00    +0.123 C 
ATOM     24  C   UNL     1      33.863 -13.309 -23.064  0.00  0.00    +0.100 C 
ATOM     25  C   UNL     1      33.155 -13.787 -25.844  0.00  0.00    +0.177 C 
ATOM     26  C   UNL     1      33.871 -12.195 -24.093  0.00  0.00    +0.025 C 
ATOM     27  C   UNL     1      32.814 -12.492 -25.135  0.00  0.00    +0.040 C 
ATOM     28  C   UNL     1      33.551 -14.941 -24.928  0.00  0.00    +0.192 C 
ATOM     29  C   UNL     1      34.322 -15.685 -22.761  0.00  0.00    +0.237 C 
ATOM     30  C   UNL     1      33.958 -17.180 -24.649  0.00  0.00    +0.097 C 
ATOM     31  C   UNL     1      33.899 -18.506 -25.360  0.00  0.00    +0.062 C 
BRANCH  25  32
ATOM     32  O   UNL     1      32.034 -14.195 -26.616  0.00  0.00    -0.376 OA
ATOM     33  H   UNL     1      32.313 -14.858 -27.266  0.00  0.00    +0.211 HD
ENDBRANCH  25  32
ENDBRANCH  19  23
ENDBRANCH  18  19
ENDBRANCH   1  18
TORSDOF 5
ENDMDL
MODEL 7
REMARK VINA RESULT:     -13.3      5.700     12.026
REMARK  Name = 115237
REMARK  5 active torsions:
REMARK  status: ('A' for Active; 'I' for Inactive)
REMARK    1  A    between atoms: N_1  and  C_18
REMARK    2  A    between atoms: C_2  and  C_11
REMARK    3  A    between atoms: C_18  and  C_19
REMARK    4  A    between atoms: C_19  and  C_23
REMARK    5  A    between atoms: C_25  and  O_32
REMARK                            x       y       z     vdW  Elec       q    Type
REMARK                         _______ _______ _______ _____ _____    ______ ____
ROOT
ATOM      1  N   UNL     1      34.628 -14.653 -22.934  0.00  0.00    +0.387 N 
ATOM      2  C   UNL     1      34.432 -17.335 -21.762  0.00  0.00    +0.039 C 
ATOM      3  C   UNL     1      34.864 -17.101 -23.218  0.00  0.00    -0.017 C 
ATOM      4  C   UNL     1      34.738 -16.086 -20.919  0.00  0.00    -0.017 C 
ATOM      5  C   UNL     1      34.268 -15.805 -23.773  0.00  0.00    -0.077 C 
ATOM      6  C   UNL     1      34.146 -14.827 -21.557  0.00  0.00    -0.077 C 
ATOM      7  H   UNL     1      35.646 -14.592 -22.905  0.00  0.00    -0.080 HD
ENDROOT
BRANCH   2  11
ATOM      8  F   UNL     1      33.550 -23.365 -18.918  0.00  0.00    -0.204 F 
ATOM      9  O   UNL     1      36.555 -19.976 -20.538  0.00  0.00    -0.354 OA
ATOM     10  N   UNL     1      36.346 -18.733 -21.122  0.00  0.00    -0.081 NA
ATOM     11  C   UNL     1      35.022 -18.596 -21.173  0.00  0.00    +0.100 A 
ATOM     12  C   UNL     1      34.335 -19.700 -20.647  0.00  0.00    +0.054 A 
ATOM     13  C   UNL     1      35.354 -20.552 -20.256  0.00  0.00    +0.179 A 
ATOM     14  C   UNL     1      33.003 -20.094 -20.449  0.00  0.00    +0.007 C 
ATOM     15  C   UNL     1      35.152 -21.798 -19.670  0.00  0.00    +0.070 C 
ATOM     16  C   UNL     1      32.764 -21.343 -19.859  0.00  0.00    +0.030 C 
ATOM     17  C   UNL     1      33.821 -22.177 -19.478  0.00  0.00    +0.143 C 
ENDBRANCH   2  11
BRANCH   1  18
ATOM     18  C   UNL     1      34.099 -13.417 -23.509  0.00  0.00    -0.076 C 
BRANCH  18  19
ATOM     19  C   UNL     1      32.612 -13.299 -23.205  0.00  0.00    -0.007 C 
BRANCH  19  23
ATOM     20  O   UNL     1      33.030 -10.855 -24.468  0.00  0.00    -0.274 OA
ATOM     21  N   UNL     1      32.164  -9.564 -22.732  0.00  0.00    -0.235 N 
ATOM     22  N   UNL     1      31.532 -10.622 -20.712  0.00  0.00    -0.397 NA
ATOM     23  C   UNL     1      32.306 -11.995 -22.527  0.00  0.00    +0.123 C 
ATOM     24  C   UNL     1      32.411  -8.333 -23.487  0.00  0.00    +0.100 C 
ATOM     25  C   UNL     1      31.304  -8.221 -20.799  0.00  0.00    +0.177 C 
ATOM     26  C   UNL     1      31.632  -7.129 -22.994  0.00  0.00    +0.025 C 
ATOM     27  C   UNL     1      31.847  -6.992 -21.502  0.00  0.00    +0.040 C 
ATOM     28  C   UNL     1      31.704  -9.553 -21.426  0.00  0.00    +0.192 C 
ATOM     29  C   UNL     1      32.534 -10.764 -23.346  0.00  0.00    +0.237 C 
ATOM     30  C   UNL     1      31.836 -11.837 -21.274  0.00  0.00    +0.097 C 
ATOM     31  C   UNL     1      31.608 -12.990 -20.333  0.00  0.00    +0.062 C 
BRANCH  25  32
ATOM     32  O   UNL     1      31.749  -8.211 -19.450  0.00  0.00    -0.376 OA
ATOM     33  H   UNL     1      31.109  -7.731 -18.902  0.00  0.00    +0.211 HD
ENDBRANCH  25  32
ENDBRANCH  19  23
ENDBRANCH  18  19
ENDBRANCH   1  18
TORSDOF 5
ENDMDL
MODEL 8
REMARK VINA RESULT:     -13.1      4.856     12.377
REMARK  Name = 115237
REMARK  5 active torsions:
REMARK  status: ('A' for Active; 'I' for Inactive)
REMARK    1  A    between atoms: N_1  and  C_18
REMARK    2  A    between atoms: C_2  and  C_11
REMARK    3  A    between atoms: C_18  and  C_19
REMARK    4  A    between atoms: C_19  and  C_23
REMARK    5  A    between atoms: C_25  and  O_32
REMARK                            x       y       z     vdW  Elec       q    Type
REMARK                         _______ _______ _______ _____ _____    ______ ____
ROOT
ATOM      1  N   UNL     1      34.890 -16.689 -24.382  0.00  0.00    +0.387 N 
ATOM      2  C   UNL     1      34.565 -18.410 -22.029  0.00  0.00    +0.039 C 
ATOM      3  C   UNL     1      34.610 -18.969 -23.460  0.00  0.00    -0.017 C 
ATOM      4  C   UNL     1      35.305 -17.062 -21.971  0.00  0.00    -0.017 C 
ATOM      5  C   UNL     1      34.116 -17.935 -24.475  0.00  0.00    -0.077 C 
ATOM      6  C   UNL     1      34.786 -16.099 -23.040  0.00  0.00    -0.077 C 
ATOM      7  H   UNL     1      35.870 -16.914 -24.552  0.00  0.00    -0.080 HD
ENDROOT
BRANCH   2  11
ATOM      8  F   UNL     1      33.337 -23.452 -17.752  0.00  0.00    -0.204 F 
ATOM      9  O   UNL     1      36.489 -20.400 -19.724  0.00  0.00    -0.354 OA
ATOM     10  N   UNL     1      36.359 -19.395 -20.673  0.00  0.00    -0.081 NA
ATOM     11  C   UNL     1      35.068 -19.397 -21.000  0.00  0.00    +0.100 A 
ATOM     12  C   UNL     1      34.327 -20.365 -20.307  0.00  0.00    +0.054 A 
ATOM     13  C   UNL     1      35.275 -20.978 -19.507  0.00  0.00    +0.179 A 
ATOM     14  C   UNL     1      32.996 -20.805 -20.246  0.00  0.00    +0.007 C 
ATOM     15  C   UNL     1      35.003 -22.022 -18.628  0.00  0.00    +0.070 C 
ATOM     16  C   UNL     1      32.686 -21.855 -19.370  0.00  0.00    +0.030 C 
ATOM     17  C   UNL     1      33.673 -22.450 -18.577  0.00  0.00    +0.143 C 
ENDBRANCH   2  11
BRANCH   1  18
ATOM     18  C   UNL     1      34.444 -15.734 -25.397  0.00  0.00    -0.076 C 
BRANCH  18  19
ATOM     19  C   UNL     1      33.066 -15.198 -25.034  0.00  0.00    -0.007 C 
BRANCH  19  23
ATOM     20  O   UNL     1      32.696 -13.430 -22.917  0.00  0.00    -0.274 OA
ATOM     21  N   UNL     1      32.868 -11.502 -24.213  0.00  0.00    -0.235 N 
ATOM     22  N   UNL     1      33.049 -11.704 -26.564  0.00  0.00    -0.397 NA
ATOM     23  C   UNL     1      32.997 -13.713 -25.245  0.00  0.00    +0.123 C 
ATOM     24  C   UNL     1      32.681 -10.657 -23.032  0.00  0.00    +0.100 C 
ATOM     25  C   UNL     1      32.973  -9.464 -25.668  0.00  0.00    +0.177 C 
ATOM     26  C   UNL     1      33.127  -9.219 -23.212  0.00  0.00    +0.025 C 
ATOM     27  C   UNL     1      32.490  -8.670 -24.471  0.00  0.00    +0.040 C 
ATOM     28  C   UNL     1      32.942 -10.979 -25.494  0.00  0.00    +0.192 C 
ATOM     29  C   UNL     1      32.845 -12.885 -24.009  0.00  0.00    +0.237 C 
ATOM     30  C   UNL     1      33.075 -13.070 -26.427  0.00  0.00    +0.097 C 
ATOM     31  C   UNL     1      33.183 -13.788 -27.745  0.00  0.00    +0.062 C 
BRANCH  25  32
ATOM     32  O   UNL     1      32.174  -9.128 -26.793  0.00  0.00    -0.376 OA
ATOM     33  H   UNL     1      31.615  -9.884 -27.030  0.00  0.00    +0.211 HD
ENDBRANCH  25  32
ENDBRANCH  19  23
ENDBRANCH  18  19
ENDBRANCH   1  18
TORSDOF 5
ENDMDL
MODEL 9
REMARK VINA RESULT:     -13.0      2.440      4.267
REMARK  Name = 115237
REMARK  5 active torsions:
REMARK  status: ('A' for Active; 'I' for Inactive)
REMARK    1  A    between atoms: N_1  and  C_18
REMARK    2  A    between atoms: C_2  and  C_11
REMARK    3  A    between atoms: C_18  and  C_19
REMARK    4  A    between atoms: C_19  and  C_23
REMARK    5  A    between atoms: C_25  and  O_32
REMARK                            x       y       z     vdW  Elec       q    Type
REMARK                         _______ _______ _______ _____ _____    ______ ____
ROOT
ATOM      1  N   UNL     1      35.239 -19.977 -20.937  0.00  0.00    +0.387 N 
ATOM      2  C   UNL     1      34.358 -17.956 -22.871  0.00  0.00    +0.039 C 
ATOM      3  C   UNL     1      35.842 -18.256 -22.610  0.00  0.00    -0.017 C 
ATOM      4  C   UNL     1      33.506 -19.187 -22.516  0.00  0.00    -0.017 C 
ATOM      5  C   UNL     1      36.061 -18.785 -21.191  0.00  0.00    -0.077 C 
ATOM      6  C   UNL     1      33.809 -19.681 -21.101  0.00  0.00    -0.077 C 
ATOM      7  H   UNL     1      35.494 -20.687 -21.624  0.00  0.00    -0.080 HD
ENDROOT
BRANCH   2  11
ATOM      8  F   UNL     1      32.755 -12.904 -27.011  0.00  0.00    -0.204 F 
ATOM      9  O   UNL     1      33.913 -17.536 -26.422  0.00  0.00    -0.354 OA
ATOM     10  N   UNL     1      34.203 -18.298 -25.297  0.00  0.00    -0.081 NA
ATOM     11  C   UNL     1      34.101 -17.453 -24.274  0.00  0.00    +0.100 A 
ATOM     12  C   UNL     1      33.752 -16.153 -24.668  0.00  0.00    +0.054 A 
ATOM     13  C   UNL     1      33.644 -16.256 -26.044  0.00  0.00    +0.179 A 
ATOM     14  C   UNL     1      33.517 -14.912 -24.056  0.00  0.00    +0.007 C 
ATOM     15  C   UNL     1      33.313 -15.198 -26.885  0.00  0.00    +0.070 C 
ATOM     16  C   UNL     1      33.179 -13.825 -24.875  0.00  0.00    +0.030 C 
ATOM     17  C   UNL     1      33.080 -13.968 -26.263  0.00  0.00    +0.143 C 
ENDBRANCH   2  11
BRANCH   1  18
ATOM     18  C   UNL     1      35.503 -20.503 -19.597  0.00  0.00    -0.076 C 
BRANCH  18  19
ATOM     19  C   UNL     1      35.224 -21.999 -19.564  0.00  0.00    -0.007 C 
BRANCH  19  23
ATOM     20  O   UNL     1      32.479 -22.339 -19.248  0.00  0.00    -0.274 OA
ATOM     21  N   UNL     1      32.605 -23.052 -17.033  0.00  0.00    -0.235 N 
ATOM     22  N   UNL     1      34.698 -23.027 -15.929  0.00  0.00    -0.397 NA
ATOM     23  C   UNL     1      34.622 -22.402 -18.249  0.00  0.00    +0.123 C 
ATOM     24  C   UNL     1      31.150 -23.214 -16.973  0.00  0.00    +0.100 C 
ATOM     25  C   UNL     1      32.790 -23.730 -14.627  0.00  0.00    +0.177 C 
ATOM     26  C   UNL     1      30.663 -24.090 -15.835  0.00  0.00    +0.025 C 
ATOM     27  C   UNL     1      31.282 -23.596 -14.546  0.00  0.00    +0.040 C 
ATOM     28  C   UNL     1      33.415 -23.220 -15.922  0.00  0.00    +0.192 C 
ATOM     29  C   UNL     1      33.139 -22.595 -18.241  0.00  0.00    +0.237 C 
ATOM     30  C   UNL     1      35.289 -22.618 -17.098  0.00  0.00    +0.097 C 
ATOM     31  C   UNL     1      36.775 -22.415 -16.962  0.00  0.00    +0.062 C 
BRANCH  25  32
ATOM     32  O   UNL     1      33.372 -23.021 -13.542  0.00  0.00    -0.376 OA
ATOM     33  H   UNL     1      32.678 -22.762 -12.917  0.00  0.00    +0.211 HD
ENDBRANCH  25  32
ENDBRANCH  19  23
ENDBRANCH  18  19
ENDBRANCH   1  18
TORSDOF 5
ENDMDL
