MODEL 1
REMARK VINA RESULT:     -12.1      0.000      0.000
REMARK  Name = 6918388
REMARK  5 active torsions:
REMARK  status: ('A' for Active; 'I' for Inactive)
REMARK    1  A    between atoms: N_1  and  C_4
REMARK    2  A    between atoms: N_1  and  C_15
REMARK    3  A    between atoms: C_4  and  C_6
REMARK    4  A    between atoms: C_15  and  C_17
REMARK    5  A    between atoms: C_19  and  C_23
REMARK                            x       y       z     vdW  Elec       q    Type
REMARK                         _______ _______ _______ _____ _____    ______ ____
ROOT
ATOM      1  N   UNL     1      35.723 -21.961 -18.011  0.00  0.00    +0.389 N 
ATOM      2  H   UNL     1      34.832 -21.549 -17.735  0.00  0.00    -0.084 HD
ATOM      3  H   UNL     1      35.664 -22.979 -17.998  0.00  0.00    -0.084 HD
ENDROOT
BRANCH   1   4
ATOM      4  C   UNL     1      36.752 -21.544 -17.069  0.00  0.00    -0.037 C 
BRANCH   4   6
ATOM      5  O   UNL     1      37.611 -23.288 -15.691  0.00  0.00    -0.482 OA
ATOM      6  C   UNL     1      36.601 -22.269 -15.738  0.00  0.00    +0.145 C 
ATOM      7  C   UNL     1      35.202 -22.867 -15.601  0.00  0.00    +0.046 C 
ATOM      8  C   UNL     1      35.075 -23.535 -14.238  0.00  0.00    +0.033 C 
ATOM      9  C   UNL     1      36.289 -24.373 -13.949  0.00  0.00    +0.012 C 
ATOM     10  C   UNL     1      37.474 -24.197 -14.674  0.00  0.00    +0.134 C 
ATOM     11  C   UNL     1      36.250 -25.327 -12.923  0.00  0.00    -0.001 C 
ATOM     12  C   UNL     1      38.590 -24.993 -14.403  0.00  0.00    +0.037 C 
ATOM     13  C   UNL     1      37.370 -26.111 -12.645  0.00  0.00    -0.000 C 
ATOM     14  C   UNL     1      38.538 -25.946 -13.388  0.00  0.00    +0.003 C 
ENDBRANCH   4   6
ENDBRANCH   1   4
BRANCH   1  15
ATOM     15  C   UNL     1      36.048 -21.532 -19.364  0.00  0.00    -0.053 C 
BRANCH  15  17
ATOM     16  N   UNL     1      32.474 -20.720 -20.237  0.00  0.00    -0.243 NA
ATOM     17  C   UNL     1      34.861 -20.925 -20.062  0.00  0.00    -0.025 C 
ATOM     18  C   UNL     1      35.041 -20.056 -21.120  0.00  0.00    -0.003 C 
ATOM     19  C   UNL     1      33.926 -19.511 -21.745  0.00  0.00    +0.019 C 
ATOM     20  C   UNL     1      33.582 -21.230 -19.654  0.00  0.00    +0.092 C 
ATOM     21  C   UNL     1      32.675 -19.872 -21.270  0.00  0.00    +0.099 C 
BRANCH  19  23
ATOM     22  F   UNL     1      34.458 -15.980 -26.028  0.00  0.00    -0.204 F 
ATOM     23  C   UNL     1      34.064 -18.598 -22.855  0.00  0.00    +0.002 C 
ATOM     24  C   UNL     1      34.606 -17.326 -22.652  0.00  0.00    +0.002 C 
ATOM     25  C   UNL     1      33.656 -18.980 -24.134  0.00  0.00    +0.002 C 
ATOM     26  C   UNL     1      34.738 -16.443 -23.723  0.00  0.00    +0.030 C 
ATOM     27  C   UNL     1      33.789 -18.097 -25.205  0.00  0.00    +0.030 C 
ATOM     28  C   UNL     1      34.330 -16.828 -24.999  0.00  0.00    +0.140 C 
ENDBRANCH  19  23
ENDBRANCH  15  17
ENDBRANCH   1  15
TORSDOF 5
ENDMDL
MODEL 2
REMARK VINA RESULT:     -12.0      5.381     11.760
REMARK  Name = 6918388
REMARK  5 active torsions:
REMARK  status: ('A' for Active; 'I' for Inactive)
REMARK    1  A    between atoms: N_1  and  C_4
REMARK    2  A    between atoms: N_1  and  C_15
REMARK    3  A    between atoms: C_4  and  C_6
REMARK    4  A    between atoms: C_15  and  C_17
REMARK    5  A    between atoms: C_19  and  C_23
REMARK                            x       y       z     vdW  Elec       q    Type
REMARK                         _______ _______ _______ _____ _____    ______ ____
ROOT
ATOM      1  N   UNL     1      32.369 -17.031 -25.491  0.00  0.00    +0.389 N 
ATOM      2  H   UNL     1      31.460 -17.460 -25.320  0.00  0.00    -0.084 HD
ATOM      3  H   UNL     1      32.521 -16.250 -24.852  0.00  0.00    -0.084 HD
ENDROOT
BRANCH   1   4
ATOM      4  C   UNL     1      32.409 -16.528 -26.856  0.00  0.00    -0.037 C 
BRANCH   4   6
ATOM      5  O   UNL     1      32.958 -14.629 -25.525  0.00  0.00    -0.482 OA
ATOM      6  C   UNL     1      32.834 -15.065 -26.887  0.00  0.00    +0.145 C 
ATOM      7  C   UNL     1      31.817 -14.219 -27.650  0.00  0.00    +0.046 C 
ATOM      8  C   UNL     1      32.306 -12.776 -27.703  0.00  0.00    +0.033 C 
ATOM      9  C   UNL     1      32.794 -12.338 -26.352  0.00  0.00    +0.012 C 
ATOM     10  C   UNL     1      33.099 -13.276 -25.357  0.00  0.00    +0.134 C 
ATOM     11  C   UNL     1      32.975 -10.975 -26.083  0.00  0.00    -0.001 C 
ATOM     12  C   UNL     1      33.538 -12.852 -24.100  0.00  0.00    +0.037 C 
ATOM     13  C   UNL     1      33.427 -10.554 -24.832  0.00  0.00    -0.000 C 
ATOM     14  C   UNL     1      33.705 -11.493 -23.841  0.00  0.00    +0.003 C 
ENDBRANCH   4   6
ENDBRANCH   1   4
BRANCH   1  15
ATOM     15  C   UNL     1      33.414 -18.022 -25.269  0.00  0.00    -0.053 C 
BRANCH  15  17
ATOM     16  N   UNL     1      35.154 -16.693 -22.203  0.00  0.00    -0.243 NA
ATOM     17  C   UNL     1      33.969 -17.949 -23.872  0.00  0.00    -0.025 C 
ATOM     18  C   UNL     1      33.819 -19.013 -23.005  0.00  0.00    -0.003 C 
ATOM     19  C   UNL     1      34.341 -18.918 -21.720  0.00  0.00    +0.019 C 
ATOM     20  C   UNL     1      34.633 -16.822 -23.443  0.00  0.00    +0.092 C 
ATOM     21  C   UNL     1      34.995 -17.746 -21.371  0.00  0.00    +0.099 C 
BRANCH  19  23
ATOM     22  F   UNL     1      33.825 -23.109 -18.078  0.00  0.00    -0.204 F 
ATOM     23  C   UNL     1      34.208 -20.004 -20.778  0.00  0.00    +0.002 C 
ATOM     24  C   UNL     1      32.941 -20.412 -20.354  0.00  0.00    +0.002 C 
ATOM     25  C   UNL     1      35.344 -20.648 -20.285  0.00  0.00    +0.002 C 
ATOM     26  C   UNL     1      32.812 -21.460 -19.443  0.00  0.00    +0.030 C 
ATOM     27  C   UNL     1      35.215 -21.696 -19.374  0.00  0.00    +0.030 C 
ATOM     28  C   UNL     1      33.949 -22.102 -18.953  0.00  0.00    +0.140 C 
ENDBRANCH  19  23
ENDBRANCH  15  17
ENDBRANCH   1  15
TORSDOF 5
ENDMDL
MODEL 3
REMARK VINA RESULT:     -11.9      3.929      9.741
REMARK  Name = 6918388
REMARK  5 active torsions:
REMARK  status: ('A' for Active; 'I' for Inactive)
REMARK    1  A    between atoms: N_1  and  C_4
REMARK    2  A    between atoms: N_1  and  C_15
REMARK    3  A    between atoms: C_4  and  C_6
REMARK    4  A    between atoms: C_15  and  C_17
REMARK    5  A    between atoms: C_19  and  C_23
REMARK                            x       y       z     vdW  Elec       q    Type
REMARK                         _______ _______ _______ _____ _____    ______ ____
ROOT
ATOM      1  N   UNL     1      33.022 -23.443 -17.955  0.00  0.00    +0.389 N 
ATOM      2  H   UNL     1      33.488 -24.337 -17.805  0.00  0.00    -0.084 HD
ATOM      3  H   UNL     1      32.463 -23.471 -18.808  0.00  0.00    -0.084 HD
ENDROOT
BRANCH   1   4
ATOM      4  C   UNL     1      34.028 -22.399 -18.094  0.00  0.00    -0.037 C 
BRANCH   4   6
ATOM      5  O   UNL     1      35.079 -20.877 -19.597  0.00  0.00    -0.482 OA
ATOM      6  C   UNL     1      33.928 -21.723 -19.456  0.00  0.00    +0.145 C 
ATOM      7  C   UNL     1      32.633 -20.922 -19.572  0.00  0.00    +0.046 C 
ATOM      8  C   UNL     1      32.548 -20.308 -20.964  0.00  0.00    +0.033 C 
ATOM      9  C   UNL     1      33.861 -19.685 -21.344  0.00  0.00    +0.012 C 
ATOM     10  C   UNL     1      35.037 -20.008 -20.657  0.00  0.00    +0.134 C 
ATOM     11  C   UNL     1      33.922 -18.786 -22.418  0.00  0.00    -0.001 C 
ATOM     12  C   UNL     1      36.249 -19.410 -21.013  0.00  0.00    +0.037 C 
ATOM     13  C   UNL     1      35.135 -18.200 -22.781  0.00  0.00    -0.000 C 
ATOM     14  C   UNL     1      36.296 -18.509 -22.075  0.00  0.00    +0.003 C 
ENDBRANCH   4   6
ENDBRANCH   1   4
BRANCH   1  15
ATOM     15  C   UNL     1      32.138 -23.169 -16.830  0.00  0.00    -0.053 C 
BRANCH  15  17
ATOM     16  N   UNL     1      32.496 -23.938 -13.159  0.00  0.00    -0.243 NA
ATOM     17  C   UNL     1      32.757 -23.575 -15.519  0.00  0.00    -0.025 C 
ATOM     18  C   UNL     1      34.087 -23.940 -15.458  0.00  0.00    -0.003 C 
ATOM     19  C   UNL     1      34.631 -24.310 -14.233  0.00  0.00    +0.019 C 
ATOM     20  C   UNL     1      32.003 -23.585 -14.367  0.00  0.00    +0.092 C 
ATOM     21  C   UNL     1      33.800 -24.293 -13.123  0.00  0.00    +0.099 C 
BRANCH  19  23
ATOM     22  F   UNL     1      39.982 -25.813 -13.788  0.00  0.00    -0.204 F 
ATOM     23  C   UNL     1      36.016 -24.700 -14.119  0.00  0.00    +0.002 C 
ATOM     24  C   UNL     1      36.441 -25.462 -13.029  0.00  0.00    +0.002 C 
ATOM     25  C   UNL     1      36.936 -24.315 -15.096  0.00  0.00    +0.002 C 
ATOM     26  C   UNL     1      37.780 -25.838 -12.917  0.00  0.00    +0.030 C 
ATOM     27  C   UNL     1      38.275 -24.691 -14.984  0.00  0.00    +0.030 C 
ATOM     28  C   UNL     1      38.696 -25.452 -13.895  0.00  0.00    +0.140 C 
ENDBRANCH  19  23
ENDBRANCH  15  17
ENDBRANCH   1  15
TORSDOF 5
ENDMDL
MODEL 4
REMARK VINA RESULT:     -11.8      4.229      8.959
REMARK  Name = 6918388
REMARK  5 active torsions:
REMARK  status: ('A' for Active; 'I' for Inactive)
REMARK    1  A    between atoms: N_1  and  C_4
REMARK    2  A    between atoms: N_1  and  C_15
REMARK    3  A    between atoms: C_4  and  C_6
REMARK    4  A    between atoms: C_15  and  C_17
REMARK    5  A    between atoms: C_19  and  C_23
REMARK                            x       y       z     vdW  Elec       q    Type
REMARK                         _______ _______ _______ _____ _____    ______ ____
ROOT
ATOM      1  N   UNL     1      35.838 -21.984 -16.508  0.00  0.00    +0.389 N 
ATOM      2  H   UNL     1      34.857 -21.995 -16.784  0.00  0.00    -0.084 HD
ATOM      3  H   UNL     1      36.046 -21.147 -15.963  0.00  0.00    -0.084 HD
ENDROOT
BRANCH   1   4
ATOM      4  C   UNL     1      36.669 -21.975 -17.704  0.00  0.00    -0.037 C 
BRANCH   4   6
ATOM      5  O   UNL     1      36.289 -20.433 -19.481  0.00  0.00    -0.482 OA
ATOM      6  C   UNL     1      35.836 -21.685 -18.946  0.00  0.00    +0.145 C 
ATOM      7  C   UNL     1      34.348 -21.636 -18.603  0.00  0.00    +0.046 C 
ATOM      8  C   UNL     1      33.548 -21.398 -19.878  0.00  0.00    +0.033 C 
ATOM      9  C   UNL     1      34.174 -20.302 -20.693  0.00  0.00    +0.012 C 
ATOM     10  C   UNL     1      35.494 -19.896 -20.459  0.00  0.00    +0.134 C 
ATOM     11  C   UNL     1      33.443 -19.692 -21.721  0.00  0.00    -0.001 C 
ATOM     12  C   UNL     1      36.058 -18.866 -21.216  0.00  0.00    +0.037 C 
ATOM     13  C   UNL     1      34.013 -18.674 -22.485  0.00  0.00    -0.000 C 
ATOM     14  C   UNL     1      35.318 -18.258 -22.230  0.00  0.00    +0.003 C 
ENDBRANCH   4   6
ENDBRANCH   1   4
BRANCH   1  15
ATOM     15  C   UNL     1      36.117 -23.154 -15.688  0.00  0.00    -0.053 C 
BRANCH  15  17
ATOM     16  N   UNL     1      34.108 -24.236 -12.689  0.00  0.00    -0.243 NA
ATOM     17  C   UNL     1      34.939 -23.532 -14.830  0.00  0.00    -0.025 C 
ATOM     18  C   UNL     1      33.662 -23.527 -15.356  0.00  0.00    -0.003 C 
ATOM     19  C   UNL     1      32.594 -23.880 -14.540  0.00  0.00    +0.019 C 
ATOM     20  C   UNL     1      35.122 -23.886 -13.513  0.00  0.00    +0.092 C 
ATOM     21  C   UNL     1      32.867 -24.223 -13.225  0.00  0.00    +0.099 C 
BRANCH  19  23
ATOM     22  F   UNL     1      27.369 -23.910 -16.487  0.00  0.00    -0.204 F 
ATOM     23  C   UNL     1      31.241 -23.889 -15.044  0.00  0.00    +0.002 C 
ATOM     24  C   UNL     1      30.855 -22.978 -16.030  0.00  0.00    +0.002 C 
ATOM     25  C   UNL     1      30.313 -24.806 -14.548  0.00  0.00    +0.002 C 
ATOM     26  C   UNL     1      29.548 -22.985 -16.517  0.00  0.00    +0.030 C 
ATOM     27  C   UNL     1      29.006 -24.814 -15.035  0.00  0.00    +0.030 C 
ATOM     28  C   UNL     1      28.624 -23.903 -16.019  0.00  0.00    +0.140 C 
ENDBRANCH  19  23
ENDBRANCH  15  17
ENDBRANCH   1  15
TORSDOF 5
ENDMDL
MODEL 5
REMARK VINA RESULT:     -11.7      1.621      2.422
REMARK  Name = 6918388
REMARK  5 active torsions:
REMARK  status: ('A' for Active; 'I' for Inactive)
REMARK    1  A    between atoms: N_1  and  C_4
REMARK    2  A    between atoms: N_1  and  C_15
REMARK    3  A    between atoms: C_4  and  C_6
REMARK    4  A    between atoms: C_15  and  C_17
REMARK    5  A    between atoms: C_19  and  C_23
REMARK                            x       y       z     vdW  Elec       q    Type
REMARK                         _______ _______ _______ _____ _____    ______ ____
ROOT
ATOM      1  N   UNL     1      33.537 -23.425 -17.815  0.00  0.00    +0.389 N 
ATOM      2  H   UNL     1      33.397 -24.330 -18.261  0.00  0.00    -0.084 HD
ATOM      3  H   UNL     1      34.530 -23.259 -17.649  0.00  0.00    -0.084 HD
ENDROOT
BRANCH   1   4
ATOM      4  C   UNL     1      32.845 -23.412 -16.535  0.00  0.00    -0.037 C 
BRANCH   4   6
ATOM      5  O   UNL     1      34.781 -24.565 -15.760  0.00  0.00    -0.482 OA
ATOM      6  C   UNL     1      33.828 -23.561 -15.381  0.00  0.00    +0.145 C 
ATOM      7  C   UNL     1      33.101 -23.945 -14.093  0.00  0.00    +0.046 C 
ATOM      8  C   UNL     1      34.111 -24.031 -12.955  0.00  0.00    +0.033 C 
ATOM      9  C   UNL     1      35.330 -24.792 -13.392  0.00  0.00    +0.012 C 
ATOM     10  C   UNL     1      35.598 -25.003 -14.751  0.00  0.00    +0.134 C 
ATOM     11  C   UNL     1      36.230 -25.278 -12.435  0.00  0.00    -0.001 C 
ATOM     12  C   UNL     1      36.729 -25.725 -15.142  0.00  0.00    +0.037 C 
ATOM     13  C   UNL     1      37.366 -25.987 -12.828  0.00  0.00    -0.000 C 
ATOM     14  C   UNL     1      37.612 -26.213 -14.180  0.00  0.00    +0.003 C 
ENDBRANCH   4   6
ENDBRANCH   1   4
BRANCH   1  15
ATOM     15  C   UNL     1      33.032 -22.377 -18.692  0.00  0.00    -0.053 C 
BRANCH  15  17
ATOM     16  N   UNL     1      36.479 -20.977 -19.290  0.00  0.00    -0.243 NA
ATOM     17  C   UNL     1      34.145 -21.543 -19.269  0.00  0.00    -0.025 C 
ATOM     18  C   UNL     1      33.882 -20.616 -20.258  0.00  0.00    -0.003 C 
ATOM     19  C   UNL     1      34.929 -19.860 -20.772  0.00  0.00    +0.019 C 
ATOM     20  C   UNL     1      35.435 -21.693 -18.815  0.00  0.00    +0.092 C 
ATOM     21  C   UNL     1      36.198 -20.077 -20.258  0.00  0.00    +0.099 C 
BRANCH  19  23
ATOM     22  F   UNL     1      34.061 -16.078 -24.776  0.00  0.00    -0.204 F 
ATOM     23  C   UNL     1      34.703 -18.880 -21.808  0.00  0.00    +0.002 C 
ATOM     24  C   UNL     1      34.155 -19.269 -23.032  0.00  0.00    +0.002 C 
ATOM     25  C   UNL     1      35.035 -17.542 -21.592  0.00  0.00    +0.002 C 
ATOM     26  C   UNL     1      33.938 -18.323 -24.034  0.00  0.00    +0.030 C 
ATOM     27  C   UNL     1      34.818 -16.596 -22.594  0.00  0.00    +0.030 C 
ATOM     28  C   UNL     1      34.270 -16.987 -23.814  0.00  0.00    +0.140 C 
ENDBRANCH  19  23
ENDBRANCH  15  17
ENDBRANCH   1  15
TORSDOF 5
ENDMDL
MODEL 6
REMARK VINA RESULT:     -11.6      2.922      4.426
REMARK  Name = 6918388
REMARK  5 active torsions:
REMARK  status: ('A' for Active; 'I' for Inactive)
REMARK    1  A    between atoms: N_1  and  C_4
REMARK    2  A    between atoms: N_1  and  C_15
REMARK    3  A    between atoms: C_4  and  C_6
REMARK    4  A    between atoms: C_15  and  C_17
REMARK    5  A    between atoms: C_19  and  C_23
REMARK                            x       y       z     vdW  Elec       q    Type
REMARK                         _______ _______ _______ _____ _____    ______ ____
ROOT
ATOM      1  N   UNL     1      34.124 -21.476 -19.271  0.00  0.00    +0.389 N 
ATOM      2  H   UNL     1      35.104 -21.384 -19.535  0.00  0.00    -0.084 HD
ATOM      3  H   UNL     1      33.982 -21.162 -18.311  0.00  0.00    -0.084 HD
ENDROOT
BRANCH   1   4
ATOM      4  C   UNL     1      33.735 -22.876 -19.364  0.00  0.00    -0.037 C 
BRANCH   4   6
ATOM      5  O   UNL     1      31.938 -22.895 -17.798  0.00  0.00    -0.482 OA
ATOM      6  C   UNL     1      33.264 -23.402 -18.014  0.00  0.00    +0.145 C 
ATOM      7  C   UNL     1      34.213 -22.967 -16.899  0.00  0.00    +0.046 C 
ATOM      8  C   UNL     1      33.737 -23.557 -15.578  0.00  0.00    +0.033 C 
ATOM      9  C   UNL     1      32.254 -23.372 -15.424  0.00  0.00    +0.012 C 
ATOM     10  C   UNL     1      31.449 -23.067 -16.529  0.00  0.00    +0.134 C 
ATOM     11  C   UNL     1      31.657 -23.532 -14.167  0.00  0.00    -0.001 C 
ATOM     12  C   UNL     1      30.073 -22.885 -16.368  0.00  0.00    +0.037 C 
ATOM     13  C   UNL     1      30.281 -23.363 -14.011  0.00  0.00    -0.000 C 
ATOM     14  C   UNL     1      29.491 -23.035 -15.111  0.00  0.00    +0.003 C 
ENDBRANCH   4   6
ENDBRANCH   1   4
BRANCH   1  15
ATOM     15  C   UNL     1      33.312 -20.650 -20.154  0.00  0.00    -0.053 C 
BRANCH  15  17
ATOM     16  N   UNL     1      36.290 -18.767 -21.489  0.00  0.00    -0.243 NA
ATOM     17  C   UNL     1      34.158 -19.780 -21.045  0.00  0.00    -0.025 C 
ATOM     18  C   UNL     1      33.620 -19.215 -22.184  0.00  0.00    -0.003 C 
ATOM     19  C   UNL     1      34.425 -18.417 -22.988  0.00  0.00    +0.019 C 
ATOM     20  C   UNL     1      35.476 -19.537 -20.732  0.00  0.00    +0.092 C 
ATOM     21  C   UNL     1      35.742 -18.225 -22.599  0.00  0.00    +0.099 C 
BRANCH  19  23
ATOM     22  F   UNL     1      32.430 -16.060 -27.631  0.00  0.00    -0.204 F 
ATOM     23  C   UNL     1      33.908 -17.805 -24.189  0.00  0.00    +0.002 C 
ATOM     24  C   UNL     1      33.153 -18.561 -25.089  0.00  0.00    +0.002 C 
ATOM     25  C   UNL     1      34.162 -16.460 -24.457  0.00  0.00    +0.002 C 
ATOM     26  C   UNL     1      32.654 -17.971 -26.251  0.00  0.00    +0.030 C 
ATOM     27  C   UNL     1      33.664 -15.870 -25.619  0.00  0.00    +0.030 C 
ATOM     28  C   UNL     1      32.910 -16.626 -26.516  0.00  0.00    +0.140 C 
ENDBRANCH  19  23
ENDBRANCH  15  17
ENDBRANCH   1  15
TORSDOF 5
ENDMDL
MODEL 7
REMARK VINA RESULT:     -11.3      4.419      7.077
REMARK  Name = 6918388
REMARK  5 active torsions:
REMARK  status: ('A' for Active; 'I' for Inactive)
REMARK    1  A    between atoms: N_1  and  C_4
REMARK    2  A    between atoms: N_1  and  C_15
REMARK    3  A    between atoms: C_4  and  C_6
REMARK    4  A    between atoms: C_15  and  C_17
REMARK    5  A    between atoms: C_19  and  C_23
REMARK                            x       y       z     vdW  Elec       q    Type
REMARK                         _______ _______ _______ _____ _____    ______ ____
ROOT
ATOM      1  N   UNL     1      34.986 -17.940 -24.126  0.00  0.00    +0.389 N 
ATOM      2  H   UNL     1      35.790 -18.546 -24.279  0.00  0.00    -0.084 HD
ATOM      3  H   UNL     1      35.153 -17.017 -24.528  0.00  0.00    -0.084 HD
ENDROOT
BRANCH   1   4
ATOM      4  C   UNL     1      34.768 -17.788 -22.694  0.00  0.00    -0.037 C 
BRANCH   4   6
ATOM      5  O   UNL     1      33.783 -19.390 -21.230  0.00  0.00    -0.482 OA
ATOM      6  C   UNL     1      34.983 -19.109 -21.967  0.00  0.00    +0.145 C 
ATOM      7  C   UNL     1      36.197 -19.030 -21.042  0.00  0.00    +0.046 C 
ATOM      8  C   UNL     1      36.407 -20.384 -20.377  0.00  0.00    +0.033 C 
ATOM      9  C   UNL     1      35.103 -20.929 -19.869  0.00  0.00    +0.012 C 
ATOM     10  C   UNL     1      33.882 -20.416 -20.326  0.00  0.00    +0.134 C 
ATOM     11  C   UNL     1      35.098 -21.982 -18.945  0.00  0.00    -0.001 C 
ATOM     12  C   UNL     1      32.677 -20.923 -19.834  0.00  0.00    +0.037 C 
ATOM     13  C   UNL     1      33.893 -22.496 -18.465  0.00  0.00    -0.000 C 
ATOM     14  C   UNL     1      32.684 -21.964 -18.906  0.00  0.00    +0.003 C 
ENDBRANCH   4   6
ENDBRANCH   1   4
BRANCH   1  15
ATOM     15  C   UNL     1      33.818 -18.523 -24.772  0.00  0.00    -0.053 C 
BRANCH  15  17
ATOM     16  N   UNL     1      31.623 -17.194 -27.531  0.00  0.00    -0.243 NA
ATOM     17  C   UNL     1      33.162 -17.558 -25.724  0.00  0.00    -0.025 C 
ATOM     18  C   UNL     1      33.473 -16.214 -25.679  0.00  0.00    -0.003 C 
ATOM     19  C   UNL     1      32.851 -15.346 -26.569  0.00  0.00    +0.019 C 
ATOM     20  C   UNL     1      32.247 -18.006 -26.649  0.00  0.00    +0.092 C 
ATOM     21  C   UNL     1      31.941 -15.882 -27.468  0.00  0.00    +0.099 C 
BRANCH  19  23
ATOM     22  F   UNL     1      33.983  -9.886 -26.535  0.00  0.00    -0.204 F 
ATOM     23  C   UNL     1      33.143 -13.932 -26.560  0.00  0.00    +0.002 C 
ATOM     24  C   UNL     1      33.672 -13.319 -27.698  0.00  0.00    +0.002 C 
ATOM     25  C   UNL     1      32.899 -13.173 -25.414  0.00  0.00    +0.002 C 
ATOM     26  C   UNL     1      33.956 -11.953 -27.689  0.00  0.00    +0.030 C 
ATOM     27  C   UNL     1      33.183 -11.807 -25.406  0.00  0.00    +0.030 C 
ATOM     28  C   UNL     1      33.711 -11.198 -26.543  0.00  0.00    +0.140 C 
ENDBRANCH  19  23
ENDBRANCH  15  17
ENDBRANCH   1  15
TORSDOF 5
ENDMDL
MODEL 8
REMARK VINA RESULT:     -11.2      4.040      9.844
REMARK  Name = 6918388
REMARK  5 active torsions:
REMARK  status: ('A' for Active; 'I' for Inactive)
REMARK    1  A    between atoms: N_1  and  C_4
REMARK    2  A    between atoms: N_1  and  C_15
REMARK    3  A    between atoms: C_4  and  C_6
REMARK    4  A    between atoms: C_15  and  C_17
REMARK    5  A    between atoms: C_19  and  C_23
REMARK                            x       y       z     vdW  Elec       q    Type
REMARK                         _______ _______ _______ _____ _____    ______ ____
ROOT
ATOM      1  N   UNL     1      35.188 -20.533 -19.498  0.00  0.00    +0.389 N 
ATOM      2  H   UNL     1      34.350 -20.575 -18.919  0.00  0.00    -0.084 HD
ATOM      3  H   UNL     1      35.676 -19.649 -19.356  0.00  0.00    -0.084 HD
ENDROOT
BRANCH   1   4
ATOM      4  C   UNL     1      34.804 -20.631 -20.899  0.00  0.00    -0.037 C 
BRANCH   4   6
ATOM      5  O   UNL     1      34.675 -18.256 -20.764  0.00  0.00    -0.482 OA
ATOM      6  C   UNL     1      35.078 -19.325 -21.633  0.00  0.00    +0.145 C 
ATOM      7  C   UNL     1      34.321 -19.277 -22.960  0.00  0.00    +0.046 C 
ATOM      8  C   UNL     1      34.664 -17.981 -23.684  0.00  0.00    +0.033 C 
ATOM      9  C   UNL     1      34.604 -16.818 -22.736  0.00  0.00    +0.012 C 
ATOM     10  C   UNL     1      34.625 -17.017 -21.350  0.00  0.00    +0.134 C 
ATOM     11  C   UNL     1      34.555 -15.510 -23.237  0.00  0.00    -0.001 C 
ATOM     12  C   UNL     1      34.554 -15.926 -20.480  0.00  0.00    +0.037 C 
ATOM     13  C   UNL     1      34.499 -14.421 -22.367  0.00  0.00    -0.000 C 
ATOM     14  C   UNL     1      34.494 -14.630 -20.990  0.00  0.00    +0.003 C 
ENDBRANCH   4   6
ENDBRANCH   1   4
BRANCH   1  15
ATOM     15  C   UNL     1      36.081 -21.621 -19.124  0.00  0.00    -0.053 C 
BRANCH  15  17
ATOM     16  N   UNL     1      36.665 -22.510 -15.510  0.00  0.00    -0.243 NA
ATOM     17  C   UNL     1      35.823 -22.103 -17.722  0.00  0.00    -0.025 C 
ATOM     18  C   UNL     1      34.571 -22.563 -17.361  0.00  0.00    -0.003 C 
ATOM     19  C   UNL     1      34.362 -23.001 -16.059  0.00  0.00    +0.019 C 
ATOM     20  C   UNL     1      36.830 -22.092 -16.784  0.00  0.00    +0.092 C 
ATOM     21  C   UNL     1      35.432 -22.955 -15.179  0.00  0.00    +0.099 C 
BRANCH  19  23
ATOM     22  F   UNL     1      29.379 -24.893 -14.420  0.00  0.00    -0.204 F 
ATOM     23  C   UNL     1      33.071 -23.489 -15.634  0.00  0.00    +0.002 C 
ATOM     24  C   UNL     1      32.960 -24.253 -14.470  0.00  0.00    +0.002 C 
ATOM     25  C   UNL     1      31.931 -23.203 -16.387  0.00  0.00    +0.002 C 
ATOM     26  C   UNL     1      31.713 -24.726 -14.060  0.00  0.00    +0.030 C 
ATOM     27  C   UNL     1      30.684 -23.677 -15.977  0.00  0.00    +0.030 C 
ATOM     28  C   UNL     1      30.576 -24.438 -14.814  0.00  0.00    +0.140 C 
ENDBRANCH  19  23
ENDBRANCH  15  17
ENDBRANCH   1  15
TORSDOF 5
ENDMDL
MODEL 9
REMARK VINA RESULT:     -11.2      5.847     12.308
REMARK  Name = 6918388
REMARK  5 active torsions:
REMARK  status: ('A' for Active; 'I' for Inactive)
REMARK    1  A    between atoms: N_1  and  C_4
REMARK    2  A    between atoms: N_1  and  C_15
REMARK    3  A    between atoms: C_4  and  C_6
REMARK    4  A    between atoms: C_15  and  C_17
REMARK    5  A    between atoms: C_19  and  C_23
REMARK                            x       y       z     vdW  Elec       q    Type
REMARK                         _______ _______ _______ _____ _____    ______ ____
ROOT
ATOM      1  N   UNL     1      34.332 -13.954 -23.086  0.00  0.00    +0.389 N 
ATOM      2  H   UNL     1      34.982 -13.169 -23.067  0.00  0.00    -0.084 HD
ATOM      3  H   UNL     1      34.419 -14.469 -23.962  0.00  0.00    -0.084 HD
ENDROOT
BRANCH   1   4
ATOM      4  C   UNL     1      32.971 -13.447 -22.979  0.00  0.00    -0.037 C 
BRANCH   4   6
ATOM      5  O   UNL     1      34.128 -11.752 -24.189  0.00  0.00    -0.482 OA
ATOM      6  C   UNL     1      32.838 -12.092 -23.660  0.00  0.00    +0.145 C 
ATOM      7  C   UNL     1      32.345 -11.033 -22.675  0.00  0.00    +0.046 C 
ATOM      8  C   UNL     1      32.174  -9.709 -23.408  0.00  0.00    +0.033 C 
ATOM      9  C   UNL     1      33.366  -9.434 -24.281  0.00  0.00    +0.012 C 
ATOM     10  C   UNL     1      34.256 -10.459 -24.626  0.00  0.00    +0.134 C 
ATOM     11  C   UNL     1      33.581  -8.144 -24.783  0.00  0.00    -0.001 C 
ATOM     12  C   UNL     1      35.367 -10.186 -25.428  0.00  0.00    +0.037 C 
ATOM     13  C   UNL     1      34.684  -7.876 -25.594  0.00  0.00    -0.000 C 
ATOM     14  C   UNL     1      35.578  -8.896 -25.912  0.00  0.00    +0.003 C 
ENDBRANCH   4   6
ENDBRANCH   1   4
BRANCH   1  15
ATOM     15  C   UNL     1      34.641 -14.856 -21.985  0.00  0.00    -0.053 C 
BRANCH  15  17
ATOM     16  N   UNL     1      34.857 -17.882 -24.219  0.00  0.00    -0.243 NA
ATOM     17  C   UNL     1      34.664 -16.295 -22.427  0.00  0.00    -0.025 C 
ATOM     18  C   UNL     1      34.521 -17.311 -21.504  0.00  0.00    -0.003 C 
ATOM     19  C   UNL     1      34.547 -18.630 -21.941  0.00  0.00    +0.019 C 
ATOM     20  C   UNL     1      34.828 -16.612 -23.756  0.00  0.00    +0.092 C 
ATOM     21  C   UNL     1      34.716 -18.861 -23.297  0.00  0.00    +0.099 C 
BRANCH  19  23
ATOM     22  F   UNL     1      33.984 -22.862 -18.353  0.00  0.00    -0.204 F 
ATOM     23  C   UNL     1      34.402 -19.727 -21.013  0.00  0.00    +0.002 C 
ATOM     24  C   UNL     1      33.130 -20.147 -20.619  0.00  0.00    +0.002 C 
ATOM     25  C   UNL     1      35.532 -20.370 -20.504  0.00  0.00    +0.002 C 
ATOM     26  C   UNL     1      32.989 -21.205 -19.721  0.00  0.00    +0.030 C 
ATOM     27  C   UNL     1      35.391 -21.428 -19.607  0.00  0.00    +0.030 C 
ATOM     28  C   UNL     1      34.120 -21.845 -19.215  0.00  0.00    +0.140 C 
ENDBRANCH  19  23
ENDBRANCH  15  17
ENDBRANCH   1  15
TORSDOF 5
ENDMDL
