MODEL 1
REMARK VINA RESULT:     -13.0      0.000      0.000
REMARK  Name = 24808489
REMARK  4 active torsions:
REMARK  status: ('A' for Active; 'I' for Inactive)
REMARK    1  A    between atoms: N_1  and  C_10
REMARK    2  A    between atoms: N_1  and  C_21
REMARK    3  A    between atoms: C_18  and  C_24
REMARK    4  A    between atoms: C_24  and  N_25
REMARK                            x       y       z     vdW  Elec       q    Type
REMARK                         _______ _______ _______ _____ _____    ______ ____
ROOT
ATOM      1  N   UNL     1      34.237 -22.504 -18.750  0.00  0.00    -0.311 N 
ATOM      2  H   UNL     1      34.975 -23.154 -18.757  0.00  0.00    +0.152 HD
ENDROOT
BRANCH   1  10
ATOM      3 BR   UNL     1      27.924 -23.594 -16.118  0.00  0.00    -0.049 Br
ATOM      4  O   UNL     1      35.668 -23.042 -16.724  0.00  0.00    -0.270 OA
ATOM      5  O   UNL     1      33.819 -24.320 -12.722  0.00  0.00    -0.270 OA
ATOM      6  N   UNL     1      34.704 -23.677 -14.743  0.00  0.00    -0.248 N 
ATOM      7  C   UNL     1      33.273 -23.180 -16.638  0.00  0.00    +0.068 C 
ATOM      8  C   UNL     1      32.095 -23.488 -15.797  0.00  0.00    +0.010 C 
ATOM      9  C   UNL     1      32.288 -23.876 -14.461  0.00  0.00    +0.054 C 
ATOM     10  C   UNL     1      33.208 -22.799 -17.926  0.00  0.00    +0.066 C 
ATOM     11  C   UNL     1      34.655 -23.283 -16.072  0.00  0.00    +0.253 C 
ATOM     12  C   UNL     1      30.773 -23.410 -16.270  0.00  0.00    +0.007 C 
ATOM     13  C   UNL     1      33.650 -23.981 -13.889  0.00  0.00    +0.252 C 
ATOM     14  C   UNL     1      31.196 -24.177 -13.630  0.00  0.00    +0.005 C 
ATOM     15  C   UNL     1      29.686 -23.710 -15.442  0.00  0.00    +0.035 C 
ATOM     16  C   UNL     1      29.898 -24.093 -14.124  0.00  0.00    +0.007 C 
ATOM     17  H   UNL     1      35.605 -23.752 -14.352  0.00  0.00    +0.158 HD
ENDBRANCH   1  10
BRANCH   1  21
ATOM     18  C   UNL     1      34.707 -19.189 -21.283  0.00  0.00    -0.043 C 
ATOM     19  C   UNL     1      33.429 -19.659 -20.978  0.00  0.00    -0.005 C 
ATOM     20  C   UNL     1      35.829 -19.821 -20.746  0.00  0.00    -0.005 C 
ATOM     21  C   UNL     1      34.395 -21.392 -19.601  0.00  0.00    +0.048 C 
ATOM     22  C   UNL     1      33.274 -20.760 -20.137  0.00  0.00    +0.014 C 
ATOM     23  C   UNL     1      35.673 -20.923 -19.905  0.00  0.00    +0.014 C 
BRANCH  18  24
ATOM     24  C   UNL     1      34.874 -18.012 -22.183  0.00  0.00    -0.050 C 
BRANCH  24  25
ATOM     25  N   UNL     1      34.046 -18.105 -23.377  0.00  0.00    +0.390 N 
ATOM     26  C   UNL     1      34.118 -16.899 -24.201  0.00  0.00    -0.077 C 
ATOM     27  C   UNL     1      34.461 -19.194 -24.260  0.00  0.00    -0.077 C 
ATOM     28  C   UNL     1      33.526 -17.355 -25.526  0.00  0.00    -0.025 C 
ATOM     29  C   UNL     1      33.748 -18.864 -25.564  0.00  0.00    -0.025 C 
ATOM     30  H   UNL     1      33.105 -18.254 -23.013  0.00  0.00    -0.079 HD
ENDBRANCH  24  25
ENDBRANCH  18  24
ENDBRANCH   1  21
TORSDOF 4
ENDMDL
MODEL 2
REMARK VINA RESULT:     -12.9      1.217      2.052
REMARK  Name = 24808489
REMARK  4 active torsions:
REMARK  status: ('A' for Active; 'I' for Inactive)
REMARK    1  A    between atoms: N_1  and  C_10
REMARK    2  A    between atoms: N_1  and  C_21
REMARK    3  A    between atoms: C_18  and  C_24
REMARK    4  A    between atoms: C_24  and  N_25
REMARK                            x       y       z     vdW  Elec       q    Type
REMARK                         _______ _______ _______ _____ _____    ______ ____
ROOT
ATOM      1  N   UNL     1      34.433 -22.414 -18.723  0.00  0.00    -0.311 N 
ATOM      2  H   UNL     1      35.172 -23.054 -18.614  0.00  0.00    +0.152 HD
ENDROOT
BRANCH   1  10
ATOM      3 BR   UNL     1      27.871 -23.237 -16.668  0.00  0.00    -0.049 Br
ATOM      4  O   UNL     1      35.655 -23.085 -16.601  0.00  0.00    -0.270 OA
ATOM      5  O   UNL     1      33.408 -24.374 -12.813  0.00  0.00    -0.270 OA
ATOM      6  N   UNL     1      34.493 -23.723 -14.730  0.00  0.00    -0.248 N 
ATOM      7  C   UNL     1      33.258 -23.097 -16.722  0.00  0.00    +0.068 C 
ATOM      8  C   UNL     1      31.998 -23.364 -15.994  0.00  0.00    +0.010 C 
ATOM      9  C   UNL     1      32.056 -23.800 -14.659  0.00  0.00    +0.054 C 
ATOM     10  C   UNL     1      33.324 -22.676 -17.997  0.00  0.00    +0.066 C 
ATOM     11  C   UNL     1      34.579 -23.290 -16.045  0.00  0.00    +0.253 C 
ATOM     12  C   UNL     1      30.727 -23.202 -16.573  0.00  0.00    +0.007 C 
ATOM     13  C   UNL     1      33.356 -23.994 -13.979  0.00  0.00    +0.252 C 
ATOM     14  C   UNL     1      30.883 -24.065 -13.934  0.00  0.00    +0.005 C 
ATOM     15  C   UNL     1      29.560 -23.466 -15.850  0.00  0.00    +0.035 C 
ATOM     16  C   UNL     1      29.637 -23.897 -14.532  0.00  0.00    +0.007 C 
ATOM     17  H   UNL     1      35.353 -23.857 -14.268  0.00  0.00    +0.158 HD
ENDBRANCH   1  10
BRANCH   1  21
ATOM     18  C   UNL     1      35.154 -19.239 -21.373  0.00  0.00    -0.043 C 
ATOM     19  C   UNL     1      36.220 -19.858 -20.719  0.00  0.00    -0.005 C 
ATOM     20  C   UNL     1      33.849 -19.675 -21.146  0.00  0.00    -0.005 C 
ATOM     21  C   UNL     1      34.675 -21.348 -19.611  0.00  0.00    +0.048 C 
ATOM     22  C   UNL     1      35.980 -20.912 -19.838  0.00  0.00    +0.014 C 
ATOM     23  C   UNL     1      33.609 -20.729 -20.265  0.00  0.00    +0.014 C 
BRANCH  18  24
ATOM     24  C   UNL     1      35.411 -18.111 -22.314  0.00  0.00    -0.050 C 
BRANCH  24  25
ATOM     25  N   UNL     1      34.600 -16.941 -22.012  0.00  0.00    +0.390 N 
ATOM     26  C   UNL     1      34.907 -16.372 -20.701  0.00  0.00    -0.077 C 
ATOM     27  C   UNL     1      34.820 -15.850 -22.961  0.00  0.00    -0.077 C 
ATOM     28  C   UNL     1      34.262 -14.995 -20.766  0.00  0.00    -0.025 C 
ATOM     29  C   UNL     1      34.202 -14.654 -22.252  0.00  0.00    -0.025 C 
ATOM     30  H   UNL     1      33.641 -17.288 -22.055  0.00  0.00    -0.079 HD
ENDBRANCH  24  25
ENDBRANCH  18  24
ENDBRANCH   1  21
TORSDOF 4
ENDMDL
MODEL 3
REMARK VINA RESULT:     -12.6      2.476      3.287
REMARK  Name = 24808489
REMARK  4 active torsions:
REMARK  status: ('A' for Active; 'I' for Inactive)
REMARK    1  A    between atoms: N_1  and  C_10
REMARK    2  A    between atoms: N_1  and  C_21
REMARK    3  A    between atoms: C_18  and  C_24
REMARK    4  A    between atoms: C_24  and  N_25
REMARK                            x       y       z     vdW  Elec       q    Type
REMARK                         _______ _______ _______ _____ _____    ______ ____
ROOT
ATOM      1  N   UNL     1      33.173 -22.712 -18.770  0.00  0.00    -0.311 N 
ATOM      2  H   UNL     1      32.404 -23.247 -19.069  0.00  0.00    +0.152 HD
ENDROOT
BRANCH   1  10
ATOM      3 BR   UNL     1      37.755 -24.891 -14.056  0.00  0.00    -0.049 Br
ATOM      4  O   UNL     1      31.079 -22.595 -17.341  0.00  0.00    -0.270 OA
ATOM      5  O   UNL     1      31.119 -23.703 -12.887  0.00  0.00    -0.270 OA
ATOM      6  N   UNL     1      31.143 -23.157 -15.119  0.00  0.00    -0.248 N 
ATOM      7  C   UNL     1      33.184 -23.292 -16.422  0.00  0.00    +0.068 C 
ATOM      8  C   UNL     1      33.898 -23.749 -15.210  0.00  0.00    +0.010 C 
ATOM      9  C   UNL     1      33.187 -23.887 -14.006  0.00  0.00    +0.054 C 
ATOM     10  C   UNL     1      33.760 -23.124 -17.626  0.00  0.00    +0.066 C 
ATOM     11  C   UNL     1      31.721 -22.979 -16.367  0.00  0.00    +0.253 C 
ATOM     12  C   UNL     1      35.270 -24.058 -15.198  0.00  0.00    +0.007 C 
ATOM     13  C   UNL     1      31.741 -23.582 -13.938  0.00  0.00    +0.252 C 
ATOM     14  C   UNL     1      33.830 -24.318 -12.833  0.00  0.00    +0.005 C 
ATOM     15  C   UNL     1      35.908 -24.486 -14.029  0.00  0.00    +0.035 C 
ATOM     16  C   UNL     1      35.189 -24.617 -12.849  0.00  0.00    +0.007 C 
ATOM     17  H   UNL     1      30.180 -22.955 -15.061  0.00  0.00    +0.158 HD
ENDBRANCH   1  10
BRANCH   1  21
ATOM     18  C   UNL     1      34.187 -19.460 -21.223  0.00  0.00    -0.043 C 
ATOM     19  C   UNL     1      35.191 -20.226 -20.630  0.00  0.00    -0.005 C 
ATOM     20  C   UNL     1      32.847 -19.774 -21.002  0.00  0.00    -0.005 C 
ATOM     21  C   UNL     1      33.513 -21.620 -19.593  0.00  0.00    +0.048 C 
ATOM     22  C   UNL     1      34.853 -21.306 -19.814  0.00  0.00    +0.014 C 
ATOM     23  C   UNL     1      32.509 -20.854 -20.186  0.00  0.00    +0.014 C 
BRANCH  18  24
ATOM     24  C   UNL     1      34.548 -18.304 -22.094  0.00  0.00    -0.050 C 
BRANCH  24  25
ATOM     25  N   UNL     1      33.865 -18.343 -23.379  0.00  0.00    +0.390 N 
ATOM     26  C   UNL     1      34.016 -17.096 -24.129  0.00  0.00    -0.077 C 
ATOM     27  C   UNL     1      34.393 -19.383 -24.261  0.00  0.00    -0.077 C 
ATOM     28  C   UNL     1      33.586 -17.489 -25.534  0.00  0.00    -0.025 C 
ATOM     29  C   UNL     1      33.831 -18.993 -25.620  0.00  0.00    -0.025 C 
ATOM     30  H   UNL     1      32.890 -18.517 -23.134  0.00  0.00    -0.079 HD
ENDBRANCH  24  25
ENDBRANCH  18  24
ENDBRANCH   1  21
TORSDOF 4
ENDMDL
MODEL 4
REMARK VINA RESULT:     -11.5      3.082      4.369
REMARK  Name = 24808489
REMARK  4 active torsions:
REMARK  status: ('A' for Active; 'I' for Inactive)
REMARK    1  A    between atoms: N_1  and  C_10
REMARK    2  A    between atoms: N_1  and  C_21
REMARK    3  A    between atoms: C_18  and  C_24
REMARK    4  A    between atoms: C_24  and  N_25
REMARK                            x       y       z     vdW  Elec       q    Type
REMARK                         _______ _______ _______ _____ _____    ______ ____
ROOT
ATOM      1  N   UNL     1      34.134 -22.673 -17.825  0.00  0.00    -0.311 N 
ATOM      2  H   UNL     1      33.199 -22.930 -17.660  0.00  0.00    +0.152 HD
ENDROOT
BRANCH   1  10
ATOM      3 BR   UNL     1      39.932 -25.265 -15.062  0.00  0.00    -0.049 Br
ATOM      4  O   UNL     1      32.586 -22.794 -15.817  0.00  0.00    -0.270 OA
ATOM      5  O   UNL     1      33.993 -24.432 -11.768  0.00  0.00    -0.270 OA
ATOM      6  N   UNL     1      33.330 -23.619 -13.811  0.00  0.00    -0.248 N 
ATOM      7  C   UNL     1      34.866 -23.532 -15.686  0.00  0.00    +0.068 C 
ATOM      8  C   UNL     1      35.917 -24.110 -14.820  0.00  0.00    +0.010 C 
ATOM      9  C   UNL     1      35.612 -24.416 -13.483  0.00  0.00    +0.054 C 
ATOM     10  C   UNL     1      35.043 -23.203 -16.978  0.00  0.00    +0.066 C 
ATOM     11  C   UNL     1      33.495 -23.273 -15.145  0.00  0.00    +0.253 C 
ATOM     12  C   UNL     1      37.222 -24.376 -15.269  0.00  0.00    +0.007 C 
ATOM     13  C   UNL     1      34.260 -24.165 -12.935  0.00  0.00    +0.252 C 
ATOM     14  C   UNL     1      36.582 -24.965 -12.628  0.00  0.00    +0.005 C 
ATOM     15  C   UNL     1      38.187 -24.924 -14.417  0.00  0.00    +0.035 C 
ATOM     16  C   UNL     1      37.867 -25.218 -13.098  0.00  0.00    +0.007 C 
ATOM     17  H   UNL     1      32.434 -23.455 -13.436  0.00  0.00    +0.158 HD
ENDBRANCH   1  10
BRANCH   1  21
ATOM     18  C   UNL     1      34.760 -20.082 -21.069  0.00  0.00    -0.043 C 
ATOM     19  C   UNL     1      35.850 -20.607 -20.374  0.00  0.00    -0.005 C 
ATOM     20  C   UNL     1      33.462 -20.418 -20.685  0.00  0.00    -0.005 C 
ATOM     21  C   UNL     1      34.344 -21.803 -18.913  0.00  0.00    +0.048 C 
ATOM     22  C   UNL     1      35.642 -21.467 -19.297  0.00  0.00    +0.014 C 
ATOM     23  C   UNL     1      33.253 -21.278 -19.607  0.00  0.00    +0.014 C 
BRANCH  18  24
ATOM     24  C   UNL     1      34.983 -19.162 -22.220  0.00  0.00    -0.050 C 
BRANCH  24  25
ATOM     25  N   UNL     1      34.458 -17.827 -21.974  0.00  0.00    +0.390 N 
ATOM     26  C   UNL     1      34.988 -17.236 -20.745  0.00  0.00    -0.077 C 
ATOM     27  C   UNL     1      34.814 -16.883 -23.033  0.00  0.00    -0.077 C 
ATOM     28  C   UNL     1      34.636 -15.764 -20.894  0.00  0.00    -0.025 C 
ATOM     29  C   UNL     1      34.519 -15.532 -22.397  0.00  0.00    -0.025 C 
ATOM     30  H   UNL     1      33.449 -17.965 -21.918  0.00  0.00    -0.079 HD
ENDBRANCH  24  25
ENDBRANCH  18  24
ENDBRANCH   1  21
TORSDOF 4
ENDMDL
MODEL 5
REMARK VINA RESULT:     -11.3      2.949      3.922
REMARK  Name = 24808489
REMARK  4 active torsions:
REMARK  status: ('A' for Active; 'I' for Inactive)
REMARK    1  A    between atoms: N_1  and  C_10
REMARK    2  A    between atoms: N_1  and  C_21
REMARK    3  A    between atoms: C_18  and  C_24
REMARK    4  A    between atoms: C_24  and  N_25
REMARK                            x       y       z     vdW  Elec       q    Type
REMARK                         _______ _______ _______ _____ _____    ______ ____
ROOT
ATOM      1  N   UNL     1      34.308 -22.628 -17.952  0.00  0.00    -0.311 N 
ATOM      2  H   UNL     1      33.373 -22.928 -17.895  0.00  0.00    +0.152 HD
ENDROOT
BRANCH   1  10
ATOM      3 BR   UNL     1      39.889 -25.321 -14.859  0.00  0.00    -0.049 Br
ATOM      4  O   UNL     1      32.625 -22.785 -16.058  0.00  0.00    -0.270 OA
ATOM      5  O   UNL     1      33.743 -24.525 -11.961  0.00  0.00    -0.270 OA
ATOM      6  N   UNL     1      33.226 -23.661 -14.026  0.00  0.00    -0.248 N 
ATOM      7  C   UNL     1      34.888 -23.541 -15.788  0.00  0.00    +0.068 C 
ATOM      8  C   UNL     1      35.873 -24.146 -14.866  0.00  0.00    +0.010 C 
ATOM      9  C   UNL     1      35.476 -24.480 -13.560  0.00  0.00    +0.054 C 
ATOM     10  C   UNL     1      35.154 -23.183 -17.057  0.00  0.00    +0.066 C 
ATOM     11  C   UNL     1      33.484 -23.286 -15.336  0.00  0.00    +0.253 C 
ATOM     12  C   UNL     1      37.205 -24.410 -15.231  0.00  0.00    +0.007 C 
ATOM     13  C   UNL     1      34.091 -24.233 -13.101  0.00  0.00    +0.252 C 
ATOM     14  C   UNL     1      36.382 -25.055 -12.654  0.00  0.00    +0.005 C 
ATOM     15  C   UNL     1      38.106 -24.983 -14.328  0.00  0.00    +0.035 C 
ATOM     16  C   UNL     1      37.695 -25.306 -13.041  0.00  0.00    +0.007 C 
ATOM     17  H   UNL     1      32.307 -23.500 -13.709  0.00  0.00    +0.158 HD
ENDBRANCH   1  10
BRANCH   1  21
ATOM     18  C   UNL     1      35.128 -19.797 -20.942  0.00  0.00    -0.043 C 
ATOM     19  C   UNL     1      33.808 -20.144 -20.652  0.00  0.00    -0.005 C 
ATOM     20  C   UNL     1      36.175 -20.391 -20.238  0.00  0.00    -0.005 C 
ATOM     21  C   UNL     1      34.583 -21.679 -18.955  0.00  0.00    +0.048 C 
ATOM     22  C   UNL     1      33.536 -21.085 -19.659  0.00  0.00    +0.014 C 
ATOM     23  C   UNL     1      35.904 -21.332 -19.245  0.00  0.00    +0.014 C 
BRANCH  18  24
ATOM     24  C   UNL     1      35.418 -18.792 -22.004  0.00  0.00    -0.050 C 
BRANCH  24  25
ATOM     25  N   UNL     1      34.409 -18.785 -23.052  0.00  0.00    +0.390 N 
ATOM     26  C   UNL     1      34.206 -17.454 -23.623  0.00  0.00    -0.077 C 
ATOM     27  C   UNL     1      34.775 -19.633 -24.186  0.00  0.00    -0.077 C 
ATOM     28  C   UNL     1      33.442 -17.745 -24.907  0.00  0.00    -0.025 C 
ATOM     29  C   UNL     1      33.814 -19.178 -25.275  0.00  0.00    -0.025 C 
ATOM     30  H   UNL     1      33.567 -19.125 -22.587  0.00  0.00    -0.079 HD
ENDBRANCH  24  25
ENDBRANCH  18  24
ENDBRANCH   1  21
TORSDOF 4
ENDMDL
MODEL 6
REMARK VINA RESULT:     -10.9      7.117     12.194
REMARK  Name = 24808489
REMARK  4 active torsions:
REMARK  status: ('A' for Active; 'I' for Inactive)
REMARK    1  A    between atoms: N_1  and  C_10
REMARK    2  A    between atoms: N_1  and  C_21
REMARK    3  A    between atoms: C_18  and  C_24
REMARK    4  A    between atoms: C_24  and  N_25
REMARK                            x       y       z     vdW  Elec       q    Type
REMARK                         _______ _______ _______ _____ _____    ______ ____
ROOT
ATOM      1  N   UNL     1      33.546 -14.070 -24.032  0.00  0.00    -0.311 N 
ATOM      2  H   UNL     1      33.531 -14.033 -25.015  0.00  0.00    +0.152 HD
ENDROOT
BRANCH   1  10
ATOM      3 BR   UNL     1      30.845  -9.774 -19.319  0.00  0.00    -0.049 Br
ATOM      4  O   UNL     1      33.769 -12.489 -26.005  0.00  0.00    -0.270 OA
ATOM      5  O   UNL     1      32.492  -8.088 -25.741  0.00  0.00    -0.270 OA
ATOM      6  N   UNL     1      33.119 -10.297 -25.831  0.00  0.00    -0.248 N 
ATOM      7  C   UNL     1      32.878 -11.749 -23.903  0.00  0.00    +0.068 C 
ATOM      8  C   UNL     1      32.322 -10.607 -23.144  0.00  0.00    +0.010 C 
ATOM      9  C   UNL     1      32.192  -9.360 -23.777  0.00  0.00    +0.054 C 
ATOM     10  C   UNL     1      33.047 -12.985 -23.401  0.00  0.00    +0.066 C 
ATOM     11  C   UNL     1      33.300 -11.577 -25.328  0.00  0.00    +0.253 C 
ATOM     12  C   UNL     1      31.909 -10.705 -21.803  0.00  0.00    +0.007 C 
ATOM     13  C   UNL     1      32.605  -9.177 -25.187  0.00  0.00    +0.252 C 
ATOM     14  C   UNL     1      31.669  -8.252 -23.091  0.00  0.00    +0.005 C 
ATOM     15  C   UNL     1      31.388  -9.601 -21.121  0.00  0.00    +0.035 C 
ATOM     16  C   UNL     1      31.268  -8.375 -21.764  0.00  0.00    +0.007 C 
ATOM     17  H   UNL     1      33.392 -10.163 -26.768  0.00  0.00    +0.158 HD
ENDBRANCH   1  10
BRANCH   1  21
ATOM     18  C   UNL     1      35.149 -17.574 -22.367  0.00  0.00    -0.043 C 
ATOM     19  C   UNL     1      34.917 -16.461 -21.559  0.00  0.00    -0.005 C 
ATOM     20  C   UNL     1      34.849 -17.523 -23.728  0.00  0.00    -0.005 C 
ATOM     21  C   UNL     1      34.085 -15.245 -23.474  0.00  0.00    +0.048 C 
ATOM     22  C   UNL     1      34.385 -15.296 -22.113  0.00  0.00    +0.014 C 
ATOM     23  C   UNL     1      34.317 -16.359 -24.282  0.00  0.00    +0.014 C 
BRANCH  18  24
ATOM     24  C   UNL     1      35.719 -18.819 -21.775  0.00  0.00    -0.050 C 
BRANCH  24  25
ATOM     25  N   UNL     1      34.836 -19.416 -20.784  0.00  0.00    +0.390 N 
ATOM     26  C   UNL     1      33.501 -19.689 -21.316  0.00  0.00    -0.077 C 
ATOM     27  C   UNL     1      35.326 -20.709 -20.307  0.00  0.00    -0.077 C 
ATOM     28  C   UNL     1      32.907 -20.633 -20.282  0.00  0.00    -0.025 C 
ATOM     29  C   UNL     1      34.106 -21.301 -19.616  0.00  0.00    -0.025 C 
ATOM     30  H   UNL     1      34.806 -18.727 -20.032  0.00  0.00    -0.079 HD
ENDBRANCH  24  25
ENDBRANCH  18  24
ENDBRANCH   1  21
TORSDOF 4
ENDMDL
MODEL 7
REMARK VINA RESULT:     -10.6      9.057     13.308
REMARK  Name = 24808489
REMARK  4 active torsions:
REMARK  status: ('A' for Active; 'I' for Inactive)
REMARK    1  A    between atoms: N_1  and  C_10
REMARK    2  A    between atoms: N_1  and  C_21
REMARK    3  A    between atoms: C_18  and  C_24
REMARK    4  A    between atoms: C_24  and  N_25
REMARK                            x       y       z     vdW  Elec       q    Type
REMARK                         _______ _______ _______ _____ _____    ______ ____
ROOT
ATOM      1  N   UNL     1      31.347 -11.695 -21.573  0.00  0.00    -0.311 N 
ATOM      2  H   UNL     1      30.725 -11.951 -20.855  0.00  0.00    +0.152 HD
ENDROOT
BRANCH   1  10
ATOM      3 BR   UNL     1      30.211  -6.182 -25.608  0.00  0.00    -0.049 Br
ATOM      4  O   UNL     1      31.924 -10.541 -19.387  0.00  0.00    -0.270 OA
ATOM      5  O   UNL     1      31.994  -5.968 -19.006  0.00  0.00    -0.270 OA
ATOM      6  N   UNL     1      31.947  -8.252 -19.240  0.00  0.00    -0.248 N 
ATOM      7  C   UNL     1      31.384  -9.286 -21.361  0.00  0.00    +0.068 C 
ATOM      8  C   UNL     1      31.215  -7.937 -21.945  0.00  0.00    +0.010 C 
ATOM      9  C   UNL     1      31.425  -6.808 -21.135  0.00  0.00    +0.054 C 
ATOM     10  C   UNL     1      31.211 -10.434 -22.039  0.00  0.00    +0.066 C 
ATOM     11  C   UNL     1      31.772  -9.446 -19.925  0.00  0.00    +0.253 C 
ATOM     12  C   UNL     1      30.852  -7.721 -23.286  0.00  0.00    +0.007 C 
ATOM     13  C   UNL     1      31.810  -6.953 -19.714  0.00  0.00    +0.252 C 
ATOM     14  C   UNL     1      31.274  -5.510 -21.652  0.00  0.00    +0.005 C 
ATOM     15  C   UNL     1      30.702  -6.428 -23.799  0.00  0.00    +0.035 C 
ATOM     16  C   UNL     1      30.913  -5.325 -22.983  0.00  0.00    +0.007 C 
ATOM     17  H   UNL     1      32.202  -8.337 -18.292  0.00  0.00    +0.158 HD
ENDBRANCH   1  10
BRANCH   1  21
ATOM     18  C   UNL     1      34.060 -14.666 -22.772  0.00  0.00    -0.043 C 
ATOM     19  C   UNL     1      33.807 -14.457 -21.415  0.00  0.00    -0.005 C 
ATOM     20  C   UNL     1      33.411 -13.887 -23.729  0.00  0.00    -0.005 C 
ATOM     21  C   UNL     1      32.257 -12.691 -21.976  0.00  0.00    +0.048 C 
ATOM     22  C   UNL     1      32.906 -13.470 -21.018  0.00  0.00    +0.014 C 
ATOM     23  C   UNL     1      32.510 -12.900 -23.332  0.00  0.00    +0.014 C 
BRANCH  18  24
ATOM     24  C   UNL     1      35.024 -15.721 -23.197  0.00  0.00    -0.050 C 
BRANCH  24  25
ATOM     25  N   UNL     1      34.519 -17.064 -22.955  0.00  0.00    +0.390 N 
ATOM     26  C   UNL     1      34.662 -17.933 -24.123  0.00  0.00    -0.077 C 
ATOM     27  C   UNL     1      35.240 -17.748 -21.882  0.00  0.00    -0.077 C 
ATOM     28  C   UNL     1      34.452 -19.324 -23.542  0.00  0.00    -0.025 C 
ATOM     29  C   UNL     1      34.829 -19.201 -22.068  0.00  0.00    -0.025 C 
ATOM     30  H   UNL     1      33.538 -16.919 -22.714  0.00  0.00    -0.079 HD
ENDBRANCH  24  25
ENDBRANCH  18  24
ENDBRANCH   1  21
TORSDOF 4
ENDMDL
MODEL 8
REMARK VINA RESULT:     -10.4      8.279     11.786
REMARK  Name = 24808489
REMARK  4 active torsions:
REMARK  status: ('A' for Active; 'I' for Inactive)
REMARK    1  A    between atoms: N_1  and  C_10
REMARK    2  A    between atoms: N_1  and  C_21
REMARK    3  A    between atoms: C_18  and  C_24
REMARK    4  A    between atoms: C_24  and  N_25
REMARK                            x       y       z     vdW  Elec       q    Type
REMARK                         _______ _______ _______ _____ _____    ______ ____
ROOT
ATOM      1  N   UNL     1      33.801 -12.837 -24.247  0.00  0.00    -0.311 N 
ATOM      2  H   UNL     1      34.213 -12.502 -25.075  0.00  0.00    +0.152 HD
ENDROOT
BRANCH   1  10
ATOM      3 BR   UNL     1      35.909 -18.737 -21.296  0.00  0.00    -0.049 Br
ATOM      4  O   UNL     1      32.552 -13.760 -26.254  0.00  0.00    -0.270 OA
ATOM      5  O   UNL     1      32.225 -18.270 -27.042  0.00  0.00    -0.270 OA
ATOM      6  N   UNL     1      32.412 -16.021 -26.611  0.00  0.00    -0.248 N 
ATOM      7  C   UNL     1      33.621 -15.212 -24.670  0.00  0.00    +0.068 C 
ATOM      8  C   UNL     1      33.912 -16.614 -24.298  0.00  0.00    +0.010 C 
ATOM      9  C   UNL     1      33.433 -17.653 -25.112  0.00  0.00    +0.054 C 
ATOM     10  C   UNL     1      34.029 -14.139 -23.968  0.00  0.00    +0.066 C 
ATOM     11  C   UNL     1      32.824 -14.904 -25.898  0.00  0.00    +0.253 C 
ATOM     12  C   UNL     1      34.654 -16.967 -23.157  0.00  0.00    +0.007 C 
ATOM     13  C   UNL     1      32.644 -17.362 -26.330  0.00  0.00    +0.252 C 
ATOM     14  C   UNL     1      33.687 -18.997 -24.792  0.00  0.00    +0.005 C 
ATOM     15  C   UNL     1      34.907 -18.305 -22.840  0.00  0.00    +0.035 C 
ATOM     16  C   UNL     1      34.424 -19.319 -23.657  0.00  0.00    +0.007 C 
ATOM     17  H   UNL     1      31.885 -15.839 -27.422  0.00  0.00    +0.158 HD
ENDBRANCH   1  10
BRANCH   1  21
ATOM     18  C   UNL     1      31.576 -10.029 -22.060  0.00  0.00    -0.043 C 
ATOM     19  C   UNL     1      32.399  -9.606 -23.104  0.00  0.00    -0.005 C 
ATOM     20  C   UNL     1      31.492 -11.384 -21.743  0.00  0.00    -0.005 C 
ATOM     21  C   UNL     1      33.055 -11.895 -23.513  0.00  0.00    +0.048 C 
ATOM     22  C   UNL     1      33.139 -10.540 -23.830  0.00  0.00    +0.014 C 
ATOM     23  C   UNL     1      32.231 -12.317 -22.469  0.00  0.00    +0.014 C 
BRANCH  18  24
ATOM     24  C   UNL     1      30.786  -9.030 -21.284  0.00  0.00    -0.050 C 
BRANCH  24  25
ATOM     25  N   UNL     1      31.530  -7.804 -21.037  0.00  0.00    +0.390 N 
ATOM     26  C   UNL     1      30.913  -6.639 -21.670  0.00  0.00    -0.077 C 
ATOM     27  C   UNL     1      31.600  -7.471 -19.615  0.00  0.00    -0.077 C 
ATOM     28  C   UNL     1      31.599  -5.471 -20.978  0.00  0.00    -0.025 C 
ATOM     29  C   UNL     1      32.053  -6.018 -19.628  0.00  0.00    -0.025 C 
ATOM     30  H   UNL     1      32.455  -7.995 -21.423  0.00  0.00    -0.079 HD
ENDBRANCH  24  25
ENDBRANCH  18  24
ENDBRANCH   1  21
TORSDOF 4
ENDMDL
MODEL 9
REMARK VINA RESULT:     -10.2      9.096     12.806
REMARK  Name = 24808489
REMARK  4 active torsions:
REMARK  status: ('A' for Active; 'I' for Inactive)
REMARK    1  A    between atoms: N_1  and  C_10
REMARK    2  A    between atoms: N_1  and  C_21
REMARK    3  A    between atoms: C_18  and  C_24
REMARK    4  A    between atoms: C_24  and  N_25
REMARK                            x       y       z     vdW  Elec       q    Type
REMARK                         _______ _______ _______ _____ _____    ______ ____
ROOT
ATOM      1  N   UNL     1      33.437 -11.888 -25.204  0.00  0.00    -0.311 N 
ATOM      2  H   UNL     1      33.355 -11.713 -26.168  0.00  0.00    +0.152 HD
ENDROOT
BRANCH   1  10
ATOM      3 BR   UNL     1      35.330 -17.705 -21.957  0.00  0.00    -0.049 Br
ATOM      4  O   UNL     1      32.154 -12.865 -27.164  0.00  0.00    -0.270 OA
ATOM      5  O   UNL     1      31.663 -17.393 -27.725  0.00  0.00    -0.270 OA
ATOM      6  N   UNL     1      31.932 -15.134 -27.407  0.00  0.00    -0.248 N 
ATOM      7  C   UNL     1      33.171 -14.273 -25.507  0.00  0.00    +0.068 C 
ATOM      8  C   UNL     1      33.410 -15.664 -25.064  0.00  0.00    +0.010 C 
ATOM      9  C   UNL     1      32.893 -16.725 -25.826  0.00  0.00    +0.054 C 
ATOM     10  C   UNL     1      33.617 -13.182 -24.860  0.00  0.00    +0.066 C 
ATOM     11  C   UNL     1      32.384 -13.998 -26.751  0.00  0.00    +0.253 C 
ATOM     12  C   UNL     1      34.140 -15.986 -23.906  0.00  0.00    +0.007 C 
ATOM     13  C   UNL     1      32.115 -16.467 -27.058  0.00  0.00    +0.252 C 
ATOM     14  C   UNL     1      33.099 -18.059 -25.439  0.00  0.00    +0.005 C 
ATOM     15  C   UNL     1      34.344 -17.315 -23.522  0.00  0.00    +0.035 C 
ATOM     16  C   UNL     1      33.824 -18.351 -24.288  0.00  0.00    +0.007 C 
ATOM     17  H   UNL     1      31.411 -14.974 -28.227  0.00  0.00    +0.158 HD
ENDBRANCH   1  10
BRANCH   1  21
ATOM     18  C   UNL     1      33.178  -8.515 -22.718  0.00  0.00    -0.043 C 
ATOM     19  C   UNL     1      34.184  -8.597 -23.681  0.00  0.00    -0.005 C 
ATOM     20  C   UNL     1      32.258  -9.554 -22.581  0.00  0.00    -0.005 C 
ATOM     21  C   UNL     1      33.350 -10.757 -24.369  0.00  0.00    +0.048 C 
ATOM     22  C   UNL     1      34.270  -9.718 -24.506  0.00  0.00    +0.014 C 
ATOM     23  C   UNL     1      32.344 -10.675 -23.406  0.00  0.00    +0.014 C 
BRANCH  18  24
ATOM     24  C   UNL     1      33.087  -7.317 -21.835  0.00  0.00    -0.050 C 
BRANCH  24  25
ATOM     25  N   UNL     1      31.764  -6.710 -21.857  0.00  0.00    +0.390 N 
ATOM     26  C   UNL     1      31.509  -5.883 -20.678  0.00  0.00    -0.077 C 
ATOM     27  C   UNL     1      31.581  -5.813 -22.997  0.00  0.00    -0.077 C 
ATOM     28  C   UNL     1      30.291  -5.069 -21.089  0.00  0.00    -0.025 C 
ATOM     29  C   UNL     1      30.337  -5.025 -22.613  0.00  0.00    -0.025 C 
ATOM     30  H   UNL     1      31.128  -7.507 -21.900  0.00  0.00    -0.079 HD
ENDBRANCH  24  25
ENDBRANCH  18  24
ENDBRANCH   1  21
TORSDOF 4
ENDMDL
