MODEL 1
REMARK VINA RESULT:     -12.8      0.000      0.000
REMARK  Name = 60149
REMARK  5 active torsions:
REMARK  status: ('A' for Active; 'I' for Inactive)
REMARK    1  A    between atoms: N_2  and  C_12
REMARK    2  A    between atoms: C_3  and  C_19
REMARK    3  A    between atoms: N_18  and  C_25
REMARK    4  A    between atoms: C_25  and  C_26
REMARK    5  A    between atoms: C_26  and  N_28
REMARK                            x       y       z     vdW  Elec       q    Type
REMARK                         _______ _______ _______ _____ _____    ______ ____
ROOT
ATOM      1 CL   UNL     1      28.575 -22.890 -16.335  0.00  0.00    -0.082 Cl
ATOM      2  N   UNL     1      34.336 -23.700 -15.791  0.00  0.00    -0.265 N 
ATOM      3  C   UNL     1      33.705 -22.736 -17.682  0.00  0.00    -0.006 C 
ATOM      4  C   UNL     1      32.540 -22.994 -16.912  0.00  0.00    +0.012 C 
ATOM      5  C   UNL     1      34.792 -23.179 -16.972  0.00  0.00    +0.065 C 
ATOM      6  C   UNL     1      32.964 -23.600 -15.727  0.00  0.00    +0.055 C 
ATOM      7  C   UNL     1      31.162 -22.771 -17.105  0.00  0.00    +0.012 C 
ATOM      8  C   UNL     1      32.074 -23.995 -14.721  0.00  0.00    +0.016 C 
ATOM      9  C   UNL     1      30.262 -23.162 -16.107  0.00  0.00    +0.058 C 
ATOM     10  C   UNL     1      30.713 -23.765 -14.935  0.00  0.00    +0.013 C 
ENDROOT
BRANCH   2  12
ATOM     11  F   UNL     1      37.592 -25.858 -11.903  0.00  0.00    -0.204 F 
ATOM     12  C   UNL     1      35.161 -24.247 -14.806  0.00  0.00    +0.056 C 
ATOM     13  C   UNL     1      35.410 -23.527 -13.646  0.00  0.00    +0.017 C 
ATOM     14  C   UNL     1      35.719 -25.502 -15.002  0.00  0.00    +0.017 C 
ATOM     15  C   UNL     1      36.235 -24.072 -12.663  0.00  0.00    +0.031 C 
ATOM     16  C   UNL     1      36.544 -26.048 -14.018  0.00  0.00    +0.031 C 
ATOM     17  C   UNL     1      36.801 -25.333 -12.848  0.00  0.00    +0.140 C 
ENDBRANCH   2  12
BRANCH   3  19
ATOM     18  N   UNL     1      33.960 -19.777 -20.842  0.00  0.00    +0.388 N 
ATOM     19  C   UNL     1      33.749 -22.089 -19.048  0.00  0.00    +0.019 C 
ATOM     20  C   UNL     1      32.582 -21.117 -19.284  0.00  0.00    -0.018 C 
ATOM     21  C   UNL     1      35.083 -21.376 -19.324  0.00  0.00    -0.018 C 
ATOM     22  C   UNL     1      32.673 -20.464 -20.665  0.00  0.00    -0.077 C 
ATOM     23  C   UNL     1      35.083 -20.712 -20.704  0.00  0.00    -0.077 C 
ATOM     24  H   UNL     1      34.044 -19.073 -20.110  0.00  0.00    -0.080 HD
BRANCH  18  25
ATOM     25  C   UNL     1      34.007 -19.110 -22.144  0.00  0.00    -0.055 C 
BRANCH  25  26
ATOM     26  C   UNL     1      35.226 -18.203 -22.228  0.00  0.00    +0.077 C 
BRANCH  26  28
ATOM     27  O   UNL     1      34.773 -16.196 -20.037  0.00  0.00    -0.252 OA
ATOM     28  N   UNL     1      34.841 -16.820 -22.312  0.00  0.00    -0.243 N 
ATOM     29  N   UNL     1      34.317 -14.689 -21.769  0.00  0.00    -0.266 N 
ATOM     30  C   UNL     1      34.679 -16.134 -23.582  0.00  0.00    +0.085 C 
ATOM     31  C   UNL     1      34.214 -14.736 -23.206  0.00  0.00    +0.082 C 
ATOM     32  C   UNL     1      34.658 -15.939 -21.229  0.00  0.00    +0.311 C 
ATOM     33  H   UNL     1      34.167 -13.877 -21.232  0.00  0.00    +0.157 HD
ENDBRANCH  26  28
ENDBRANCH  25  26
ENDBRANCH  18  25
ENDBRANCH   3  19
TORSDOF 5
ENDMDL
MODEL 2
REMARK VINA RESULT:     -12.6      0.947      1.415
REMARK  Name = 60149
REMARK  5 active torsions:
REMARK  status: ('A' for Active; 'I' for Inactive)
REMARK    1  A    between atoms: N_2  and  C_12
REMARK    2  A    between atoms: C_3  and  C_19
REMARK    3  A    between atoms: N_18  and  C_25
REMARK    4  A    between atoms: C_25  and  C_26
REMARK    5  A    between atoms: C_26  and  N_28
REMARK                            x       y       z     vdW  Elec       q    Type
REMARK                         _______ _______ _______ _____ _____    ______ ____
ROOT
ATOM      1 CL   UNL     1      28.499 -22.792 -16.245  0.00  0.00    -0.082 Cl
ATOM      2  N   UNL     1      34.221 -23.853 -15.728  0.00  0.00    -0.265 N 
ATOM      3  C   UNL     1      33.628 -22.837 -17.604  0.00  0.00    -0.006 C 
ATOM      4  C   UNL     1      32.455 -23.056 -16.834  0.00  0.00    +0.012 C 
ATOM      5  C   UNL     1      34.697 -23.336 -16.903  0.00  0.00    +0.065 C 
ATOM      6  C   UNL     1      32.855 -23.696 -15.659  0.00  0.00    +0.055 C 
ATOM      7  C   UNL     1      31.087 -22.772 -17.019  0.00  0.00    +0.012 C 
ATOM      8  C   UNL     1      31.952 -24.067 -14.656  0.00  0.00    +0.016 C 
ATOM      9  C   UNL     1      30.173 -23.138 -16.025  0.00  0.00    +0.058 C 
ATOM     10  C   UNL     1      30.601 -23.776 -14.862  0.00  0.00    +0.013 C 
ENDROOT
BRANCH   2  12
ATOM     11  F   UNL     1      37.393 -26.201 -11.880  0.00  0.00    -0.204 F 
ATOM     12  C   UNL     1      35.025 -24.449 -14.752  0.00  0.00    +0.056 C 
ATOM     13  C   UNL     1      35.670 -25.644 -15.035  0.00  0.00    +0.017 C 
ATOM     14  C   UNL     1      35.166 -23.834 -13.517  0.00  0.00    +0.017 C 
ATOM     15  C   UNL     1      36.472 -26.239 -14.061  0.00  0.00    +0.031 C 
ATOM     16  C   UNL     1      35.968 -24.429 -12.542  0.00  0.00    +0.031 C 
ATOM     17  C   UNL     1      36.622 -25.631 -12.814  0.00  0.00    +0.140 C 
ENDBRANCH   2  12
BRANCH   3  19
ATOM     18  N   UNL     1      33.945 -19.841 -20.722  0.00  0.00    +0.388 N 
ATOM     19  C   UNL     1      33.697 -22.173 -18.961  0.00  0.00    +0.019 C 
ATOM     20  C   UNL     1      32.537 -21.194 -19.203  0.00  0.00    -0.018 C 
ATOM     21  C   UNL     1      35.037 -21.463 -19.207  0.00  0.00    -0.018 C 
ATOM     22  C   UNL     1      32.652 -20.524 -20.574  0.00  0.00    -0.077 C 
ATOM     23  C   UNL     1      35.062 -20.782 -20.578  0.00  0.00    -0.077 C 
ATOM     24  H   UNL     1      34.020 -19.146 -19.980  0.00  0.00    -0.080 HD
BRANCH  18  25
ATOM     25  C   UNL     1      34.016 -19.158 -22.015  0.00  0.00    -0.055 C 
BRANCH  25  26
ATOM     26  C   UNL     1      35.251 -18.271 -22.076  0.00  0.00    +0.077 C 
BRANCH  26  28
ATOM     27  O   UNL     1      34.759 -16.902 -24.706  0.00  0.00    -0.252 OA
ATOM     28  N   UNL     1      34.897 -16.904 -22.351  0.00  0.00    -0.243 N 
ATOM     29  N   UNL     1      34.324 -14.996 -23.419  0.00  0.00    -0.266 N 
ATOM     30  C   UNL     1      34.636 -15.941 -21.295  0.00  0.00    +0.085 C 
ATOM     31  C   UNL     1      34.366 -14.635 -22.025  0.00  0.00    +0.082 C 
ATOM     32  C   UNL     1      34.673 -16.340 -23.621  0.00  0.00    +0.311 C 
ATOM     33  H   UNL     1      34.079 -14.373 -24.142  0.00  0.00    +0.157 HD
ENDBRANCH  26  28
ENDBRANCH  25  26
ENDBRANCH  18  25
ENDBRANCH   3  19
TORSDOF 5
ENDMDL
MODEL 3
REMARK VINA RESULT:     -11.5      6.111      9.979
REMARK  Name = 60149
REMARK  5 active torsions:
REMARK  status: ('A' for Active; 'I' for Inactive)
REMARK    1  A    between atoms: N_2  and  C_12
REMARK    2  A    between atoms: C_3  and  C_19
REMARK    3  A    between atoms: N_18  and  C_25
REMARK    4  A    between atoms: C_25  and  C_26
REMARK    5  A    between atoms: C_26  and  N_28
REMARK                            x       y       z     vdW  Elec       q    Type
REMARK                         _______ _______ _______ _____ _____    ______ ____
ROOT
ATOM      1 CL   UNL     1      32.177 -16.130 -27.877  0.00  0.00    -0.082 Cl
ATOM      2  N   UNL     1      34.514 -17.025 -22.598  0.00  0.00    -0.265 N 
ATOM      3  C   UNL     1      33.996 -14.919 -23.042  0.00  0.00    -0.006 C 
ATOM      4  C   UNL     1      33.650 -15.704 -24.174  0.00  0.00    +0.012 C 
ATOM      5  C   UNL     1      34.524 -15.754 -22.090  0.00  0.00    +0.065 C 
ATOM      6  C   UNL     1      33.985 -17.024 -23.869  0.00  0.00    +0.055 C 
ATOM      7  C   UNL     1      33.082 -15.421 -25.432  0.00  0.00    +0.012 C 
ATOM      8  C   UNL     1      33.779 -18.081 -24.763  0.00  0.00    +0.016 C 
ATOM      9  C   UNL     1      32.872 -16.468 -26.336  0.00  0.00    +0.058 C 
ATOM     10  C   UNL     1      33.216 -17.777 -26.005  0.00  0.00    +0.013 C 
ENDROOT
BRANCH   2  12
ATOM     11  F   UNL     1      36.336 -21.455 -19.871  0.00  0.00    -0.204 F 
ATOM     12  C   UNL     1      34.976 -18.148 -21.906  0.00  0.00    +0.056 C 
ATOM     13  C   UNL     1      34.063 -19.004 -21.307  0.00  0.00    +0.017 C 
ATOM     14  C   UNL     1      36.340 -18.389 -21.830  0.00  0.00    +0.017 C 
ATOM     15  C   UNL     1      34.525 -20.125 -20.616  0.00  0.00    +0.031 C 
ATOM     16  C   UNL     1      36.802 -19.510 -21.139  0.00  0.00    +0.031 C 
ATOM     17  C   UNL     1      35.894 -20.378 -20.533  0.00  0.00    +0.140 C 
ENDBRANCH   2  12
BRANCH   3  19
ATOM     18  N   UNL     1      32.482 -10.880 -23.491  0.00  0.00    +0.388 N 
ATOM     19  C   UNL     1      33.820 -13.423 -22.902  0.00  0.00    +0.019 C 
ATOM     20  C   UNL     1      34.017 -12.675 -24.230  0.00  0.00    -0.018 C 
ATOM     21  C   UNL     1      32.466 -13.041 -22.285  0.00  0.00    -0.018 C 
ATOM     22  C   UNL     1      33.808 -11.169 -24.055  0.00  0.00    -0.077 C 
ATOM     23  C   UNL     1      32.311 -11.521 -22.181  0.00  0.00    -0.077 C 
ATOM     24  H   UNL     1      31.781 -11.265 -24.123  0.00  0.00    -0.080 HD
BRANCH  18  25
ATOM     25  C   UNL     1      32.276  -9.435 -23.384  0.00  0.00    -0.055 C 
BRANCH  25  26
ATOM     26  C   UNL     1      31.272  -9.125 -22.283  0.00  0.00    +0.077 C 
BRANCH  26  28
ATOM     27  O   UNL     1      32.422  -9.187 -19.507  0.00  0.00    -0.252 OA
ATOM     28  N   UNL     1      31.729  -8.045 -21.452  0.00  0.00    -0.243 N 
ATOM     29  N   UNL     1      32.606  -6.865 -19.734  0.00  0.00    -0.266 N 
ATOM     30  C   UNL     1      31.766  -6.669 -21.916  0.00  0.00    +0.085 C 
ATOM     31  C   UNL     1      32.246  -5.871 -20.713  0.00  0.00    +0.082 C 
ATOM     32  C   UNL     1      32.268  -8.160 -20.156  0.00  0.00    +0.311 C 
ATOM     33  H   UNL     1      33.037  -6.659 -18.873  0.00  0.00    +0.157 HD
ENDBRANCH  26  28
ENDBRANCH  25  26
ENDBRANCH  18  25
ENDBRANCH   3  19
TORSDOF 5
ENDMDL
MODEL 4
REMARK VINA RESULT:     -11.2      7.353     13.918
REMARK  Name = 60149
REMARK  5 active torsions:
REMARK  status: ('A' for Active; 'I' for Inactive)
REMARK    1  A    between atoms: N_2  and  C_12
REMARK    2  A    between atoms: C_3  and  C_19
REMARK    3  A    between atoms: N_18  and  C_25
REMARK    4  A    between atoms: C_25  and  C_26
REMARK    5  A    between atoms: C_26  and  N_28
REMARK                            x       y       z     vdW  Elec       q    Type
REMARK                         _______ _______ _______ _____ _____    ______ ____
ROOT
ATOM      1 CL   UNL     1      30.624 -10.360 -19.349  0.00  0.00    -0.082 Cl
ATOM      2  N   UNL     1      33.084  -9.938 -24.631  0.00  0.00    -0.265 N 
ATOM      3  C   UNL     1      32.945 -11.998 -23.830  0.00  0.00    -0.006 C 
ATOM      4  C   UNL     1      32.385 -11.115 -22.869  0.00  0.00    +0.012 C 
ATOM      5  C   UNL     1      33.365 -11.251 -24.901  0.00  0.00    +0.065 C 
ATOM      6  C   UNL     1      32.484  -9.826 -23.397  0.00  0.00    +0.055 C 
ATOM      7  C   UNL     1      31.802 -11.284 -21.597  0.00  0.00    +0.012 C 
ATOM      8  C   UNL     1      32.027  -8.693 -22.714  0.00  0.00    +0.016 C 
ATOM      9  C   UNL     1      31.341 -10.160 -20.903  0.00  0.00    +0.058 C 
ATOM     10  C   UNL     1      31.452  -8.885 -21.455  0.00  0.00    +0.013 C 
ENDROOT
BRANCH   2  12
ATOM     11  F   UNL     1      34.211  -5.771 -28.057  0.00  0.00    -0.204 F 
ATOM     12  C   UNL     1      33.370  -8.882 -25.500  0.00  0.00    +0.056 C 
ATOM     13  C   UNL     1      34.686  -8.483 -25.679  0.00  0.00    +0.017 C 
ATOM     14  C   UNL     1      32.332  -8.249 -26.169  0.00  0.00    +0.017 C 
ATOM     15  C   UNL     1      34.972  -7.427 -26.546  0.00  0.00    +0.031 C 
ATOM     16  C   UNL     1      32.617  -7.193 -27.035  0.00  0.00    +0.031 C 
ATOM     17  C   UNL     1      33.937  -6.783 -27.224  0.00  0.00    +0.140 C 
ENDBRANCH   2  12
BRANCH   3  19
ATOM     18  N   UNL     1      34.464 -16.053 -24.055  0.00  0.00    +0.388 N 
ATOM     19  C   UNL     1      33.062 -13.500 -23.704  0.00  0.00    +0.019 C 
ATOM     20  C   UNL     1      33.167 -14.205 -25.067  0.00  0.00    -0.018 C 
ATOM     21  C   UNL     1      34.231 -13.931 -22.804  0.00  0.00    -0.018 C 
ATOM     22  C   UNL     1      33.309 -15.719 -24.900  0.00  0.00    -0.077 C 
ATOM     23  C   UNL     1      34.335 -15.456 -22.720  0.00  0.00    -0.077 C 
ATOM     24  H   UNL     1      35.298 -15.665 -24.495  0.00  0.00    -0.080 HD
BRANCH  18  25
ATOM     25  C   UNL     1      34.619 -17.505 -23.953  0.00  0.00    -0.055 C 
BRANCH  25  26
ATOM     26  C   UNL     1      35.643 -17.853 -22.883  0.00  0.00    +0.077 C 
BRANCH  26  28
ATOM     27  O   UNL     1      37.001 -19.281 -20.614  0.00  0.00    -0.252 OA
ATOM     28  N   UNL     1      35.110 -18.798 -21.940  0.00  0.00    -0.243 N 
ATOM     29  N   UNL     1      34.903 -20.237 -20.208  0.00  0.00    -0.266 N 
ATOM     30  C   UNL     1      33.704 -19.161 -21.914  0.00  0.00    +0.085 C 
ATOM     31  C   UNL     1      33.600 -20.215 -20.822  0.00  0.00    +0.082 C 
ATOM     32  C   UNL     1      35.816 -19.419 -20.891  0.00  0.00    +0.311 C 
ATOM     33  H   UNL     1      35.125 -20.762 -19.405  0.00  0.00    +0.157 HD
ENDBRANCH  26  28
ENDBRANCH  25  26
ENDBRANCH  18  25
ENDBRANCH   3  19
TORSDOF 5
ENDMDL
MODEL 5
REMARK VINA RESULT:     -11.0      3.173      4.600
REMARK  Name = 60149
REMARK  5 active torsions:
REMARK  status: ('A' for Active; 'I' for Inactive)
REMARK    1  A    between atoms: N_2  and  C_12
REMARK    2  A    between atoms: C_3  and  C_19
REMARK    3  A    between atoms: N_18  and  C_25
REMARK    4  A    between atoms: C_25  and  C_26
REMARK    5  A    between atoms: C_26  and  N_28
REMARK                            x       y       z     vdW  Elec       q    Type
REMARK                         _______ _______ _______ _____ _____    ______ ____
ROOT
ATOM      1 CL   UNL     1      38.096 -23.287 -15.378  0.00  0.00    -0.082 Cl
ATOM      2  N   UNL     1      32.434 -23.245 -16.819  0.00  0.00    -0.265 N 
ATOM      3  C   UNL     1      33.778 -22.287 -18.295  0.00  0.00    -0.006 C 
ATOM      4  C   UNL     1      34.574 -22.758 -17.217  0.00  0.00    +0.012 C 
ATOM      5  C   UNL     1      32.469 -22.598 -18.025  0.00  0.00    +0.065 C 
ATOM      6  C   UNL     1      33.705 -23.356 -16.303  0.00  0.00    +0.055 C 
ATOM      7  C   UNL     1      35.954 -22.735 -16.928  0.00  0.00    +0.012 C 
ATOM      8  C   UNL     1      34.149 -23.936 -15.108  0.00  0.00    +0.016 C 
ATOM      9  C   UNL     1      36.410 -23.310 -15.737  0.00  0.00    +0.058 C 
ATOM     10  C   UNL     1      35.520 -23.901 -14.842  0.00  0.00    +0.013 C 
ENDROOT
BRANCH   2  12
ATOM     11  F   UNL     1      27.820 -25.109 -14.449  0.00  0.00    -0.204 F 
ATOM     12  C   UNL     1      31.264 -23.717 -16.218  0.00  0.00    +0.056 C 
ATOM     13  C   UNL     1      30.045 -23.149 -16.557  0.00  0.00    +0.017 C 
ATOM     14  C   UNL     1      31.341 -24.747 -15.292  0.00  0.00    +0.017 C 
ATOM     15  C   UNL     1      28.877 -23.620 -15.956  0.00  0.00    +0.031 C 
ATOM     16  C   UNL     1      30.174 -25.218 -14.691  0.00  0.00    +0.031 C 
ATOM     17  C   UNL     1      28.941 -24.656 -15.024  0.00  0.00    +0.140 C 
ENDBRANCH   2  12
BRANCH   3  19
ATOM     18  N   UNL     1      35.129 -19.171 -20.991  0.00  0.00    +0.388 N 
ATOM     19  C   UNL     1      34.276 -21.566 -19.528  0.00  0.00    +0.019 C 
ATOM     20  C   UNL     1      33.280 -20.514 -20.043  0.00  0.00    -0.018 C 
ATOM     21  C   UNL     1      35.655 -20.920 -19.322  0.00  0.00    -0.018 C 
ATOM     22  C   UNL     1      33.826 -19.789 -21.275  0.00  0.00    -0.077 C 
ATOM     23  C   UNL     1      36.115 -20.179 -20.579  0.00  0.00    -0.077 C 
ATOM     24  H   UNL     1      35.006 -18.517 -20.219  0.00  0.00    -0.080 HD
BRANCH  18  25
ATOM     25  C   UNL     1      35.610 -18.434 -22.161  0.00  0.00    -0.055 C 
BRANCH  25  26
ATOM     26  C   UNL     1      34.834 -18.848 -23.402  0.00  0.00    +0.077 C 
BRANCH  26  28
ATOM     27  O   UNL     1      33.931 -18.638 -26.261  0.00  0.00    -0.252 OA
ATOM     28  N   UNL     1      34.389 -17.700 -24.145  0.00  0.00    -0.243 N 
ATOM     29  N   UNL     1      33.597 -16.369 -25.792  0.00  0.00    -0.266 N 
ATOM     30  C   UNL     1      34.236 -16.391 -23.535  0.00  0.00    +0.085 C 
ATOM     31  C   UNL     1      33.815 -15.482 -24.678  0.00  0.00    +0.082 C 
ATOM     32  C   UNL     1      33.970 -17.688 -25.489  0.00  0.00    +0.311 C 
ATOM     33  H   UNL     1      33.231 -16.084 -26.661  0.00  0.00    +0.157 HD
ENDBRANCH  26  28
ENDBRANCH  25  26
ENDBRANCH  18  25
ENDBRANCH   3  19
TORSDOF 5
ENDMDL
MODEL 6
REMARK VINA RESULT:     -10.7      5.862     12.520
REMARK  Name = 60149
REMARK  5 active torsions:
REMARK  status: ('A' for Active; 'I' for Inactive)
REMARK    1  A    between atoms: N_2  and  C_12
REMARK    2  A    between atoms: C_3  and  C_19
REMARK    3  A    between atoms: N_18  and  C_25
REMARK    4  A    between atoms: C_25  and  C_26
REMARK    5  A    between atoms: C_26  and  N_28
REMARK                            x       y       z     vdW  Elec       q    Type
REMARK                         _______ _______ _______ _____ _____    ______ ____
ROOT
ATOM      1 CL   UNL     1      31.335 -16.705 -28.130  0.00  0.00    -0.082 Cl
ATOM      2  N   UNL     1      33.680 -12.677 -24.607  0.00  0.00    -0.265 N 
ATOM      3  C   UNL     1      33.667 -14.736 -23.791  0.00  0.00    -0.006 C 
ATOM      4  C   UNL     1      33.075 -14.772 -25.081  0.00  0.00    +0.012 C 
ATOM      5  C   UNL     1      34.029 -13.439 -23.525  0.00  0.00    +0.065 C 
ATOM      6  C   UNL     1      33.096 -13.466 -25.573  0.00  0.00    +0.055 C 
ATOM      7  C   UNL     1      32.522 -15.791 -25.883  0.00  0.00    +0.012 C 
ATOM      8  C   UNL     1      32.589 -13.126 -26.833  0.00  0.00    +0.016 C 
ATOM      9  C   UNL     1      32.012 -15.465 -27.144  0.00  0.00    +0.058 C 
ATOM     10  C   UNL     1      32.045 -14.152 -27.610  0.00  0.00    +0.013 C 
ENDROOT
BRANCH   2  12
ATOM     11  F   UNL     1      34.538  -7.245 -24.969  0.00  0.00    -0.204 F 
ATOM     12  C   UNL     1      33.898 -11.300 -24.699  0.00  0.00    +0.056 C 
ATOM     13  C   UNL     1      34.999 -10.828 -25.398  0.00  0.00    +0.017 C 
ATOM     14  C   UNL     1      33.008 -10.427 -24.089  0.00  0.00    +0.017 C 
ATOM     15  C   UNL     1      35.217  -9.453 -25.489  0.00  0.00    +0.031 C 
ATOM     16  C   UNL     1      33.227  -9.052 -24.179  0.00  0.00    +0.031 C 
ATOM     17  C   UNL     1      34.330  -8.565 -24.880  0.00  0.00    +0.140 C 
ENDBRANCH   2  12
BRANCH   3  19
ATOM     18  N   UNL     1      35.526 -17.850 -21.414  0.00  0.00    +0.388 N 
ATOM     19  C   UNL     1      33.867 -15.913 -22.863  0.00  0.00    +0.019 C 
ATOM     20  C   UNL     1      34.538 -17.109 -23.558  0.00  0.00    -0.018 C 
ATOM     21  C   UNL     1      34.649 -15.543 -21.593  0.00  0.00    -0.018 C 
ATOM     22  C   UNL     1      34.746 -18.272 -22.585  0.00  0.00    -0.077 C 
ATOM     23  C   UNL     1      34.854 -16.763 -20.691  0.00  0.00    -0.077 C 
ATOM     24  H   UNL     1      36.425 -17.499 -21.745  0.00  0.00    -0.080 HD
BRANCH  18  25
ATOM     25  C   UNL     1      35.765 -18.986 -20.522  0.00  0.00    -0.055 C 
BRANCH  25  26
ATOM     26  C   UNL     1      35.196 -20.260 -21.128  0.00  0.00    +0.077 C 
BRANCH  26  28
ATOM     27  O   UNL     1      32.209 -20.212 -20.800  0.00  0.00    -0.252 OA
ATOM     28  N   UNL     1      34.362 -20.956 -20.186  0.00  0.00    -0.243 N 
ATOM     29  N   UNL     1      32.562 -21.744 -19.067  0.00  0.00    -0.266 N 
ATOM     30  C   UNL     1      34.896 -21.914 -19.233  0.00  0.00    +0.085 C 
ATOM     31  C   UNL     1      33.693 -22.349 -18.411  0.00  0.00    +0.082 C 
ATOM     32  C   UNL     1      32.957 -20.886 -20.104  0.00  0.00    +0.311 C 
ATOM     33  H   UNL     1      31.625 -21.914 -18.816  0.00  0.00    +0.157 HD
ENDBRANCH  26  28
ENDBRANCH  25  26
ENDBRANCH  18  25
ENDBRANCH   3  19
TORSDOF 5
ENDMDL
MODEL 7
REMARK VINA RESULT:     -10.7      8.608     15.113
REMARK  Name = 60149
REMARK  5 active torsions:
REMARK  status: ('A' for Active; 'I' for Inactive)
REMARK    1  A    between atoms: N_2  and  C_12
REMARK    2  A    between atoms: C_3  and  C_19
REMARK    3  A    between atoms: N_18  and  C_25
REMARK    4  A    between atoms: C_25  and  C_26
REMARK    5  A    between atoms: C_26  and  N_28
REMARK                            x       y       z     vdW  Elec       q    Type
REMARK                         _______ _______ _______ _____ _____    ______ ____
ROOT
ATOM      1 CL   UNL     1      36.080  -7.822 -28.600  0.00  0.00    -0.082 Cl
ATOM      2  N   UNL     1      32.721  -8.376 -23.852  0.00  0.00    -0.265 N 
ATOM      3  C   UNL     1      33.472 -10.283 -24.689  0.00  0.00    -0.006 C 
ATOM      4  C   UNL     1      33.967  -9.225 -25.496  0.00  0.00    +0.012 C 
ATOM      5  C   UNL     1      32.711  -9.735 -23.687  0.00  0.00    +0.065 C 
ATOM      6  C   UNL     1      33.480  -8.036 -24.949  0.00  0.00    +0.055 C 
ATOM      7  C   UNL     1      34.783  -9.159 -26.643  0.00  0.00    +0.012 C 
ATOM      8  C   UNL     1      33.771  -6.780 -25.493  0.00  0.00    +0.016 C 
ATOM      9  C   UNL     1      35.081  -7.910 -27.198  0.00  0.00    +0.058 C 
ATOM     10  C   UNL     1      34.581  -6.739 -26.630  0.00  0.00    +0.013 C 
ENDROOT
BRANCH   2  12
ATOM     11  F   UNL     1      30.082  -4.845 -20.543  0.00  0.00    -0.204 F 
ATOM     12  C   UNL     1      32.051  -7.481 -23.013  0.00  0.00    +0.056 C 
ATOM     13  C   UNL     1      32.691  -6.999 -21.880  0.00  0.00    +0.017 C 
ATOM     14  C   UNL     1      30.758  -7.088 -23.327  0.00  0.00    +0.017 C 
ATOM     15  C   UNL     1      32.023  -6.106 -21.041  0.00  0.00    +0.031 C 
ATOM     16  C   UNL     1      30.090  -6.196 -22.488  0.00  0.00    +0.031 C 
ATOM     17  C   UNL     1      30.722  -5.703 -21.346  0.00  0.00    +0.140 C 
ENDBRANCH   2  12
BRANCH   3  19
ATOM     18  N   UNL     1      32.920 -14.578 -24.922  0.00  0.00    +0.388 N 
ATOM     19  C   UNL     1      33.732 -11.759 -24.889  0.00  0.00    +0.019 C 
ATOM     20  C   UNL     1      33.537 -12.577 -23.603  0.00  0.00    -0.018 C 
ATOM     21  C   UNL     1      32.887 -12.362 -26.023  0.00  0.00    -0.018 C 
ATOM     22  C   UNL     1      33.784 -14.067 -23.849  0.00  0.00    -0.077 C 
ATOM     23  C   UNL     1      33.157 -13.861 -26.181  0.00  0.00    -0.077 C 
ATOM     24  H   UNL     1      31.951 -14.419 -24.647  0.00  0.00    -0.080 HD
BRANCH  18  25
ATOM     25  C   UNL     1      33.127 -16.015 -25.105  0.00  0.00    -0.055 C 
BRANCH  25  26
ATOM     26  C   UNL     1      34.541 -16.400 -24.695  0.00  0.00    +0.077 C 
BRANCH  26  28
ATOM     27  O   UNL     1      34.166 -19.366 -25.011  0.00  0.00    -0.252 OA
ATOM     28  N   UNL     1      34.529 -17.438 -23.699  0.00  0.00    -0.243 N 
ATOM     29  N   UNL     1      34.444 -19.459 -22.689  0.00  0.00    -0.266 N 
ATOM     30  C   UNL     1      34.793 -17.172 -22.296  0.00  0.00    +0.085 C 
ATOM     31  C   UNL     1      34.618 -18.519 -21.611  0.00  0.00    +0.082 C 
ATOM     32  C   UNL     1      34.356 -18.816 -23.933  0.00  0.00    +0.311 C 
ATOM     33  H   UNL     1      34.392 -20.435 -22.566  0.00  0.00    +0.157 HD
ENDBRANCH  26  28
ENDBRANCH  25  26
ENDBRANCH  18  25
ENDBRANCH   3  19
TORSDOF 5
ENDMDL
MODEL 8
REMARK VINA RESULT:     -10.6      6.238     10.149
REMARK  Name = 60149
REMARK  5 active torsions:
REMARK  status: ('A' for Active; 'I' for Inactive)
REMARK    1  A    between atoms: N_2  and  C_12
REMARK    2  A    between atoms: C_3  and  C_19
REMARK    3  A    between atoms: N_18  and  C_25
REMARK    4  A    between atoms: C_25  and  C_26
REMARK    5  A    between atoms: C_26  and  N_28
REMARK                            x       y       z     vdW  Elec       q    Type
REMARK                         _______ _______ _______ _____ _____    ______ ____
ROOT
ATOM      1 CL   UNL     1      31.984 -16.352 -27.874  0.00  0.00    -0.082 Cl
ATOM      2  N   UNL     1      34.512 -17.082 -22.657  0.00  0.00    -0.265 N 
ATOM      3  C   UNL     1      34.023 -14.984 -23.170  0.00  0.00    -0.006 C 
ATOM      4  C   UNL     1      33.615 -15.807 -24.253  0.00  0.00    +0.012 C 
ATOM      5  C   UNL     1      34.571 -15.792 -22.205  0.00  0.00    +0.065 C 
ATOM      6  C   UNL     1      33.933 -17.122 -23.906  0.00  0.00    +0.055 C 
ATOM      7  C   UNL     1      33.003 -15.564 -25.499  0.00  0.00    +0.012 C 
ATOM      8  C   UNL     1      33.668 -18.210 -24.746  0.00  0.00    +0.016 C 
ATOM      9  C   UNL     1      32.734 -16.642 -26.349  0.00  0.00    +0.058 C 
ATOM     10  C   UNL     1      33.062 -17.944 -25.976  0.00  0.00    +0.013 C 
ENDROOT
BRANCH   2  12
ATOM     11  F   UNL     1      36.346 -21.437 -19.819  0.00  0.00    -0.204 F 
ATOM     12  C   UNL     1      34.977 -18.186 -21.938  0.00  0.00    +0.056 C 
ATOM     13  C   UNL     1      34.068 -19.021 -21.305  0.00  0.00    +0.017 C 
ATOM     14  C   UNL     1      36.341 -18.430 -21.868  0.00  0.00    +0.017 C 
ATOM     15  C   UNL     1      34.532 -20.122 -20.585  0.00  0.00    +0.031 C 
ATOM     16  C   UNL     1      36.806 -19.532 -21.149  0.00  0.00    +0.031 C 
ATOM     17  C   UNL     1      35.901 -20.378 -20.508  0.00  0.00    +0.140 C 
ENDBRANCH   2  12
BRANCH   3  19
ATOM     18  N   UNL     1      32.634 -10.925 -23.798  0.00  0.00    +0.388 N 
ATOM     19  C   UNL     1      33.885 -13.481 -23.086  0.00  0.00    +0.019 C 
ATOM     20  C   UNL     1      34.137 -12.785 -24.434  0.00  0.00    -0.018 C 
ATOM     21  C   UNL     1      32.527 -13.040 -22.519  0.00  0.00    -0.018 C 
ATOM     22  C   UNL     1      33.965 -11.269 -24.316  0.00  0.00    -0.077 C 
ATOM     23  C   UNL     1      32.413 -11.514 -22.472  0.00  0.00    -0.077 C 
ATOM     24  H   UNL     1      31.939 -11.313 -24.435  0.00  0.00    -0.080 HD
BRANCH  18  25
ATOM     25  C   UNL     1      32.466  -9.472 -23.747  0.00  0.00    -0.055 C 
BRANCH  25  26
ATOM     26  C   UNL     1      33.782  -8.777 -24.058  0.00  0.00    +0.077 C 
BRANCH  26  28
ATOM     27  O   UNL     1      35.026  -7.977 -26.675  0.00  0.00    -0.252 OA
ATOM     28  N   UNL     1      33.573  -7.598 -24.855  0.00  0.00    -0.243 N 
ATOM     29  N   UNL     1      33.674  -6.073 -26.521  0.00  0.00    -0.266 N 
ATOM     30  C   UNL     1      32.591  -6.587 -24.504  0.00  0.00    +0.085 C 
ATOM     31  C   UNL     1      32.751  -5.512 -25.568  0.00  0.00    +0.082 C 
ATOM     32  C   UNL     1      34.193  -7.302 -26.085  0.00  0.00    +0.311 C 
ATOM     33  H   UNL     1      33.912  -5.645 -27.376  0.00  0.00    +0.157 HD
ENDBRANCH  26  28
ENDBRANCH  25  26
ENDBRANCH  18  25
ENDBRANCH   3  19
TORSDOF 5
ENDMDL
MODEL 9
REMARK VINA RESULT:     -10.1      6.555     13.224
REMARK  Name = 60149
REMARK  5 active torsions:
REMARK  status: ('A' for Active; 'I' for Inactive)
REMARK    1  A    between atoms: N_2  and  C_12
REMARK    2  A    between atoms: C_3  and  C_19
REMARK    3  A    between atoms: N_18  and  C_25
REMARK    4  A    between atoms: C_25  and  C_26
REMARK    5  A    between atoms: C_26  and  N_28
REMARK                            x       y       z     vdW  Elec       q    Type
REMARK                         _______ _______ _______ _____ _____    ______ ____
ROOT
ATOM      1 CL   UNL     1      34.399 -12.306 -28.032  0.00  0.00    -0.082 Cl
ATOM      2  N   UNL     1      32.415 -10.597 -22.809  0.00  0.00    -0.265 N 
ATOM      3  C   UNL     1      33.036 -12.719 -22.921  0.00  0.00    -0.006 C 
ATOM      4  C   UNL     1      33.243 -12.134 -24.198  0.00  0.00    +0.012 C 
ATOM      5  C   UNL     1      32.528 -11.755 -22.088  0.00  0.00    +0.065 C 
ATOM      6  C   UNL     1      32.845 -10.799 -24.101  0.00  0.00    +0.055 C 
ATOM      7  C   UNL     1      33.731 -12.609 -25.432  0.00  0.00    +0.012 C 
ATOM      8  C   UNL     1      32.911  -9.912 -25.182  0.00  0.00    +0.016 C 
ATOM      9  C   UNL     1      33.802 -11.733 -26.520  0.00  0.00    +0.058 C 
ATOM     10  C   UNL     1      33.398 -10.405 -26.395  0.00  0.00    +0.013 C 
ENDROOT
BRANCH   2  12
ATOM     11  F   UNL     1      30.515  -5.849 -20.754  0.00  0.00    -0.204 F 
ATOM     12  C   UNL     1      31.933  -9.393 -22.288  0.00  0.00    +0.056 C 
ATOM     13  C   UNL     1      32.355  -8.975 -21.035  0.00  0.00    +0.017 C 
ATOM     14  C   UNL     1      31.040  -8.636 -23.033  0.00  0.00    +0.017 C 
ATOM     15  C   UNL     1      31.873  -7.773 -20.514  0.00  0.00    +0.031 C 
ATOM     16  C   UNL     1      30.558  -7.435 -22.512  0.00  0.00    +0.031 C 
ATOM     17  C   UNL     1      30.975  -7.003 -21.253  0.00  0.00    +0.140 C 
ENDBRANCH   2  12
BRANCH   3  19
ATOM     18  N   UNL     1      35.111 -16.433 -22.081  0.00  0.00    +0.388 N 
ATOM     19  C   UNL     1      33.322 -14.154 -22.536  0.00  0.00    +0.019 C 
ATOM     20  C   UNL     1      33.932 -14.967 -23.689  0.00  0.00    -0.018 C 
ATOM     21  C   UNL     1      34.213 -14.268 -21.289  0.00  0.00    -0.018 C 
ATOM     22  C   UNL     1      34.230 -16.405 -23.257  0.00  0.00    -0.077 C 
ATOM     23  C   UNL     1      34.501 -15.731 -20.944  0.00  0.00    -0.077 C 
ATOM     24  H   UNL     1      35.975 -15.949 -22.323  0.00  0.00    -0.080 HD
BRANCH  18  25
ATOM     25  C   UNL     1      35.432 -17.814 -21.716  0.00  0.00    -0.055 C 
BRANCH  25  26
ATOM     26  C   UNL     1      34.214 -18.706 -21.903  0.00  0.00    +0.077 C 
BRANCH  26  28
ATOM     27  O   UNL     1      31.910 -20.248 -20.743  0.00  0.00    -0.252 OA
ATOM     28  N   UNL     1      34.215 -19.792 -20.961  0.00  0.00    -0.243 N 
ATOM     29  N   UNL     1      33.547 -21.472 -19.603  0.00  0.00    -0.266 N 
ATOM     30  C   UNL     1      35.442 -20.386 -20.459  0.00  0.00    +0.085 C 
ATOM     31  C   UNL     1      34.980 -21.435 -19.460  0.00  0.00    +0.082 C 
ATOM     32  C   UNL     1      33.083 -20.472 -20.471  0.00  0.00    +0.311 C 
ATOM     33  H   UNL     1      32.964 -22.122 -19.146  0.00  0.00    +0.157 HD
ENDBRANCH  26  28
ENDBRANCH  25  26
ENDBRANCH  18  25
ENDBRANCH   3  19
TORSDOF 5
ENDMDL
