MODEL 1
REMARK VINA RESULT:     -12.5      0.000      0.000
REMARK  Name = 66000
REMARK  8 active torsions:
REMARK  status: ('A' for Active; 'I' for Inactive)
REMARK    1  A    between atoms: C_1  and  O_19
REMARK    2  A    between atoms: C_4  and  C_7
REMARK    3  A    between atoms: C_10  and  C_15
REMARK    4  A    between atoms: O_19  and  C_20
REMARK    5  A    between atoms: C_20  and  C_24
REMARK    6  A    between atoms: C_23  and  C_28
REMARK    7  A    between atoms: C_28  and  C_30
REMARK    8  A    between atoms: C_30  and  O_31
REMARK                            x       y       z     vdW  Elec       q    Type
REMARK                         _______ _______ _______ _____ _____    ______ ____
ROOT
ATOM      1  C   UNL     1      34.595 -22.799 -17.528  0.00  0.00    +0.139 C 
ATOM      2  C   UNL     1      35.786 -22.143 -17.818  0.00  0.00    +0.037 C 
ATOM      3  C   UNL     1      33.453 -22.565 -18.284  0.00  0.00    +0.037 C 
ATOM      4  C   UNL     1      34.692 -20.998 -19.642  0.00  0.00    +0.000 C 
ATOM      5  C   UNL     1      35.834 -21.240 -18.878  0.00  0.00    +0.003 C 
ATOM      6  C   UNL     1      33.501 -21.661 -19.344  0.00  0.00    +0.003 C 
ENDROOT
BRANCH   4   7
ATOM      7  C   UNL     1      34.742 -20.060 -20.742  0.00  0.00    +0.000 C 
ATOM      8  C   UNL     1      35.935 -19.404 -21.046  0.00  0.00    +0.000 C 
ATOM      9  C   UNL     1      33.597 -19.812 -21.500  0.00  0.00    +0.000 C 
ATOM     10  C   UNL     1      34.839 -18.253 -22.865  0.00  0.00    +0.031 C 
ATOM     11  C   UNL     1      35.984 -18.500 -22.108  0.00  0.00    +0.003 C 
ATOM     12  C   UNL     1      33.646 -18.908 -22.562  0.00  0.00    +0.003 C 
BRANCH  10  15
ATOM     13  N   UNL     1      34.445 -17.660 -25.245  0.00  0.00    -0.343 N 
ATOM     14  N   UNL     1      35.370 -16.094 -23.778  0.00  0.00    -0.285 NA
ATOM     15  C   UNL     1      34.890 -17.310 -23.971  0.00  0.00    +0.117 C 
ATOM     16  H   UNL     1      34.489 -17.006 -25.979  0.00  0.00    +0.144 HD
ATOM     17  H   UNL     1      34.087 -18.562 -25.409  0.00  0.00    +0.144 HD
ATOM     18  H   UNL     1      35.406 -15.454 -24.525  0.00  0.00    +0.188 HD
ENDBRANCH  10  15
ENDBRANCH   4   7
BRANCH   1  19
ATOM     19  O   UNL     1      34.548 -23.688 -16.483  0.00  0.00    -0.474 OA
BRANCH  19  20
ATOM     20  C   UNL     1      34.957 -23.211 -15.214  0.00  0.00    +0.225 C 
BRANCH  20  24
ATOM     21  O   UNL     1      36.462 -27.269 -15.946  0.00  0.00    -0.275 OA
ATOM     22  N   UNL     1      35.054 -25.649 -15.013  0.00  0.00    -0.302 N 
ATOM     23  C   UNL     1      37.359 -25.293 -14.822  0.00  0.00    +0.089 C 
ATOM     24  C   UNL     1      35.187 -24.404 -14.296  0.00  0.00    +0.116 C 
ATOM     25  C   UNL     1      36.613 -24.477 -13.761  0.00  0.00    +0.033 C 
ATOM     26  C   UNL     1      36.279 -26.228 -15.335  0.00  0.00    +0.223 C 
ATOM     27  H   UNL     1      34.187 -26.049 -15.250  0.00  0.00    +0.149 HD
BRANCH  23  28
ATOM     28  C   UNL     1      38.564 -26.031 -14.271  0.00  0.00    +0.118 C 
BRANCH  28  30
ATOM     29  O   UNL     1      40.571 -24.649 -14.323  0.00  0.00    -0.250 OA
ATOM     30  C   UNL     1      39.859 -25.501 -14.832  0.00  0.00    +0.314 C 
BRANCH  30  31
ATOM     31  O   UNL     1      40.140 -26.112 -16.012  0.00  0.00    -0.480 OA
ATOM     32  H   UNL     1      39.446 -26.344 -16.597  0.00  0.00    +0.295 HD
ENDBRANCH  30  31
ENDBRANCH  28  30
ENDBRANCH  23  28
ENDBRANCH  20  24
ENDBRANCH  19  20
ENDBRANCH   1  19
TORSDOF 8
ENDMDL
MODEL 2
REMARK VINA RESULT:     -12.5      0.166      1.325
REMARK  Name = 66000
REMARK  8 active torsions:
REMARK  status: ('A' for Active; 'I' for Inactive)
REMARK    1  A    between atoms: C_1  and  O_19
REMARK    2  A    between atoms: C_4  and  C_7
REMARK    3  A    between atoms: C_10  and  C_15
REMARK    4  A    between atoms: O_19  and  C_20
REMARK    5  A    between atoms: C_20  and  C_24
REMARK    6  A    between atoms: C_23  and  C_28
REMARK    7  A    between atoms: C_28  and  C_30
REMARK    8  A    between atoms: C_30  and  O_31
REMARK                            x       y       z     vdW  Elec       q    Type
REMARK                         _______ _______ _______ _____ _____    ______ ____
ROOT
ATOM      1  C   UNL     1      34.457 -22.890 -17.395  0.00  0.00    +0.139 C 
ATOM      2  C   UNL     1      33.338 -22.666 -18.189  0.00  0.00    +0.037 C 
ATOM      3  C   UNL     1      35.654 -22.233 -17.652  0.00  0.00    +0.037 C 
ATOM      4  C   UNL     1      34.617 -21.110 -19.522  0.00  0.00    +0.000 C 
ATOM      5  C   UNL     1      33.419 -21.773 -19.256  0.00  0.00    +0.003 C 
ATOM      6  C   UNL     1      35.735 -21.340 -18.721  0.00  0.00    +0.003 C 
ENDROOT
BRANCH   4   7
ATOM      7  C   UNL     1      34.701 -20.184 -20.631  0.00  0.00    +0.000 C 
ATOM      8  C   UNL     1      33.562 -19.887 -21.379  0.00  0.00    +0.000 C 
ATOM      9  C   UNL     1      35.920 -19.586 -20.950  0.00  0.00    +0.000 C 
ATOM     10  C   UNL     1      34.861 -18.395 -22.766  0.00  0.00    +0.031 C 
ATOM     11  C   UNL     1      33.642 -18.993 -22.447  0.00  0.00    +0.003 C 
ATOM     12  C   UNL     1      36.001 -18.692 -22.018  0.00  0.00    +0.003 C 
BRANCH  10  15
ATOM     13  N   UNL     1      34.485 -17.807 -25.150  0.00  0.00    -0.343 N 
ATOM     14  N   UNL     1      35.471 -16.265 -23.697  0.00  0.00    -0.285 NA
ATOM     15  C   UNL     1      34.945 -17.464 -23.880  0.00  0.00    +0.117 C 
ATOM     16  H   UNL     1      34.553 -17.161 -25.889  0.00  0.00    +0.144 HD
ATOM     17  H   UNL     1      34.094 -18.696 -25.307  0.00  0.00    +0.144 HD
ATOM     18  H   UNL     1      35.529 -15.633 -24.449  0.00  0.00    +0.188 HD
ENDBRANCH  10  15
ENDBRANCH   4   7
BRANCH   1  19
ATOM     19  O   UNL     1      34.378 -23.770 -16.344  0.00  0.00    -0.474 OA
BRANCH  19  20
ATOM     20  C   UNL     1      34.923 -23.344 -15.107  0.00  0.00    +0.225 C 
BRANCH  20  24
ATOM     21  O   UNL     1      36.523 -27.327 -16.027  0.00  0.00    -0.275 OA
ATOM     22  N   UNL     1      35.082 -25.786 -15.015  0.00  0.00    -0.302 N 
ATOM     23  C   UNL     1      37.378 -25.381 -14.822  0.00  0.00    +0.089 C 
ATOM     24  C   UNL     1      35.188 -24.571 -14.244  0.00  0.00    +0.116 C 
ATOM     25  C   UNL     1      36.619 -24.631 -13.721  0.00  0.00    +0.033 C 
ATOM     26  C   UNL     1      36.319 -26.318 -15.369  0.00  0.00    +0.223 C 
ATOM     27  H   UNL     1      34.223 -26.196 -15.265  0.00  0.00    +0.149 HD
BRANCH  23  28
ATOM     28  C   UNL     1      38.605 -26.112 -14.310  0.00  0.00    +0.118 C 
BRANCH  28  30
ATOM     29  O   UNL     1      40.556 -24.651 -14.337  0.00  0.00    -0.250 OA
ATOM     30  C   UNL     1      39.882 -25.527 -14.857  0.00  0.00    +0.314 C 
BRANCH  30  31
ATOM     31  O   UNL     1      40.198 -26.120 -16.038  0.00  0.00    -0.480 OA
ATOM     32  H   UNL     1      40.096 -25.649 -16.841  0.00  0.00    +0.295 HD
ENDBRANCH  30  31
ENDBRANCH  28  30
ENDBRANCH  23  28
ENDBRANCH  20  24
ENDBRANCH  19  20
ENDBRANCH   1  19
TORSDOF 8
ENDMDL
MODEL 3
REMARK VINA RESULT:     -12.1      1.199      2.052
REMARK  Name = 66000
REMARK  8 active torsions:
REMARK  status: ('A' for Active; 'I' for Inactive)
REMARK    1  A    between atoms: C_1  and  O_19
REMARK    2  A    between atoms: C_4  and  C_7
REMARK    3  A    between atoms: C_10  and  C_15
REMARK    4  A    between atoms: O_19  and  C_20
REMARK    5  A    between atoms: C_20  and  C_24
REMARK    6  A    between atoms: C_23  and  C_28
REMARK    7  A    between atoms: C_28  and  C_30
REMARK    8  A    between atoms: C_30  and  O_31
REMARK                            x       y       z     vdW  Elec       q    Type
REMARK                         _______ _______ _______ _____ _____    ______ ____
ROOT
ATOM      1  C   UNL     1      34.963 -21.828 -18.626  0.00  0.00    +0.139 C 
ATOM      2  C   UNL     1      33.689 -21.579 -19.122  0.00  0.00    +0.037 C 
ATOM      3  C   UNL     1      36.075 -21.202 -19.176  0.00  0.00    +0.037 C 
ATOM      4  C   UNL     1      34.635 -20.059 -20.743  0.00  0.00    +0.000 C 
ATOM      5  C   UNL     1      33.524 -20.692 -20.184  0.00  0.00    +0.003 C 
ATOM      6  C   UNL     1      35.910 -20.315 -20.240  0.00  0.00    +0.003 C 
ENDROOT
BRANCH   4   7
ATOM      7  C   UNL     1      34.465 -19.139 -21.846  0.00  0.00    +0.000 C 
ATOM      8  C   UNL     1      33.909 -19.583 -23.046  0.00  0.00    +0.000 C 
ATOM      9  C   UNL     1      34.854 -17.806 -21.710  0.00  0.00    +0.000 C 
ATOM     10  C   UNL     1      34.134 -17.364 -23.973  0.00  0.00    +0.031 C 
ATOM     11  C   UNL     1      33.744 -18.696 -24.110  0.00  0.00    +0.003 C 
ATOM     12  C   UNL     1      34.689 -16.918 -22.773  0.00  0.00    +0.003 C 
BRANCH  10  15
ATOM     13  N   UNL     1      33.260 -15.244 -24.929  0.00  0.00    -0.343 N 
ATOM     14  N   UNL     1      34.474 -16.728 -26.266  0.00  0.00    -0.285 NA
ATOM     15  C   UNL     1      33.962 -16.438 -25.082  0.00  0.00    +0.117 C 
ATOM     16  H   UNL     1      33.155 -14.634 -25.694  0.00  0.00    +0.144 HD
ATOM     17  H   UNL     1      32.868 -15.013 -24.057  0.00  0.00    +0.144 HD
ATOM     18  H   UNL     1      34.359 -16.104 -27.018  0.00  0.00    +0.188 HD
ENDBRANCH  10  15
ENDBRANCH   4   7
BRANCH   1  19
ATOM     19  O   UNL     1      35.125 -22.703 -17.580  0.00  0.00    -0.474 OA
BRANCH  19  20
ATOM     20  C   UNL     1      36.097 -22.367 -16.606  0.00  0.00    +0.225 C 
BRANCH  20  24
ATOM     21  O   UNL     1      35.848 -26.598 -15.464  0.00  0.00    -0.275 OA
ATOM     22  N   UNL     1      35.162 -24.362 -15.538  0.00  0.00    -0.302 N 
ATOM     23  C   UNL     1      37.384 -24.774 -14.930  0.00  0.00    +0.089 C 
ATOM     24  C   UNL     1      35.736 -23.060 -15.298  0.00  0.00    +0.116 C 
ATOM     25  C   UNL     1      36.955 -23.385 -14.442  0.00  0.00    +0.033 C 
ATOM     26  C   UNL     1      36.061 -25.403 -15.325  0.00  0.00    +0.223 C 
ATOM     27  H   UNL     1      34.230 -24.499 -15.822  0.00  0.00    +0.149 HD
BRANCH  23  28
ATOM     28  C   UNL     1      38.126 -25.574 -13.876  0.00  0.00    +0.118 C 
BRANCH  28  30
ATOM     29  O   UNL     1      39.970 -26.958 -14.667  0.00  0.00    -0.250 OA
ATOM     30  C   UNL     1      39.544 -25.877 -14.290  0.00  0.00    +0.314 C 
BRANCH  30  31
ATOM     31  O   UNL     1      40.308 -24.759 -14.189  0.00  0.00    -0.480 OA
ATOM     32  H   UNL     1      41.018 -24.730 -13.578  0.00  0.00    +0.295 HD
ENDBRANCH  30  31
ENDBRANCH  28  30
ENDBRANCH  23  28
ENDBRANCH  20  24
ENDBRANCH  19  20
ENDBRANCH   1  19
TORSDOF 8
ENDMDL
MODEL 4
REMARK VINA RESULT:     -11.9      1.420      2.011
REMARK  Name = 66000
REMARK  8 active torsions:
REMARK  status: ('A' for Active; 'I' for Inactive)
REMARK    1  A    between atoms: C_1  and  O_19
REMARK    2  A    between atoms: C_4  and  C_7
REMARK    3  A    between atoms: C_10  and  C_15
REMARK    4  A    between atoms: O_19  and  C_20
REMARK    5  A    between atoms: C_20  and  C_24
REMARK    6  A    between atoms: C_23  and  C_28
REMARK    7  A    between atoms: C_28  and  C_30
REMARK    8  A    between atoms: C_30  and  O_31
REMARK                            x       y       z     vdW  Elec       q    Type
REMARK                         _______ _______ _______ _____ _____    ______ ____
ROOT
ATOM      1  C   UNL     1      35.090 -23.313 -16.575  0.00  0.00    +0.139 C 
ATOM      2  C   UNL     1      33.894 -23.280 -17.283  0.00  0.00    +0.037 C 
ATOM      3  C   UNL     1      36.161 -22.514 -16.951  0.00  0.00    +0.037 C 
ATOM      4  C   UNL     1      34.840 -21.628 -18.769  0.00  0.00    +0.000 C 
ATOM      5  C   UNL     1      33.769 -22.434 -18.384  0.00  0.00    +0.003 C 
ATOM      6  C   UNL     1      36.037 -21.668 -18.053  0.00  0.00    +0.003 C 
ENDROOT
BRANCH   4   7
ATOM      7  C   UNL     1      34.711 -20.750 -19.912  0.00  0.00    +0.000 C 
ATOM      8  C   UNL     1      35.845 -20.151 -20.462  0.00  0.00    +0.000 C 
ATOM      9  C   UNL     1      33.454 -20.504 -20.465  0.00  0.00    +0.000 C 
ATOM     10  C   UNL     1      34.464 -19.060 -22.118  0.00  0.00    +0.031 C 
ATOM     11  C   UNL     1      35.721 -19.305 -21.566  0.00  0.00    +0.003 C 
ATOM     12  C   UNL     1      33.330 -19.659 -21.568  0.00  0.00    +0.003 C 
BRANCH  10  15
ATOM     13  N   UNL     1      35.225 -17.128 -23.480  0.00  0.00    -0.343 N 
ATOM     14  N   UNL     1      33.354 -18.365 -24.133  0.00  0.00    -0.285 NA
ATOM     15  C   UNL     1      34.335 -18.178 -23.267  0.00  0.00    +0.117 C 
ATOM     16  H   UNL     1      35.119 -16.543 -24.264  0.00  0.00    +0.144 HD
ATOM     17  H   UNL     1      35.960 -16.971 -22.845  0.00  0.00    +0.144 HD
ATOM     18  H   UNL     1      33.264 -17.769 -24.912  0.00  0.00    +0.188 HD
ENDBRANCH  10  15
ENDBRANCH   4   7
BRANCH   1  19
ATOM     19  O   UNL     1      35.212 -24.147 -15.491  0.00  0.00    -0.474 OA
BRANCH  19  20
ATOM     20  C   UNL     1      34.382 -23.878 -14.376  0.00  0.00    +0.225 C 
BRANCH  20  24
ATOM     21  O   UNL     1      36.630 -26.625 -11.793  0.00  0.00    -0.275 OA
ATOM     22  N   UNL     1      35.248 -24.799 -12.279  0.00  0.00    -0.302 N 
ATOM     23  C   UNL     1      37.256 -24.962 -13.470  0.00  0.00    +0.089 C 
ATOM     24  C   UNL     1      35.263 -23.652 -13.154  0.00  0.00    +0.116 C 
ATOM     25  C   UNL     1      36.741 -23.518 -13.505  0.00  0.00    +0.033 C 
ATOM     26  C   UNL     1      36.386 -25.593 -12.400  0.00  0.00    +0.223 C 
ATOM     27  H   UNL     1      34.510 -25.000 -11.660  0.00  0.00    +0.149 HD
BRANCH  23  28
ATOM     28  C   UNL     1      38.738 -25.060 -13.159  0.00  0.00    +0.118 C 
BRANCH  28  30
ATOM     29  O   UNL     1      39.232 -26.841 -14.747  0.00  0.00    -0.250 OA
ATOM     30  C   UNL     1      39.502 -25.756 -14.256  0.00  0.00    +0.314 C 
BRANCH  30  31
ATOM     31  O   UNL     1      40.560 -24.997 -14.641  0.00  0.00    -0.480 OA
ATOM     32  H   UNL     1      40.641 -24.115 -14.335  0.00  0.00    +0.295 HD
ENDBRANCH  30  31
ENDBRANCH  28  30
ENDBRANCH  23  28
ENDBRANCH  20  24
ENDBRANCH  19  20
ENDBRANCH   1  19
TORSDOF 8
ENDMDL
MODEL 5
REMARK VINA RESULT:     -11.8      1.898      2.893
REMARK  Name = 66000
REMARK  8 active torsions:
REMARK  status: ('A' for Active; 'I' for Inactive)
REMARK    1  A    between atoms: C_1  and  O_19
REMARK    2  A    between atoms: C_4  and  C_7
REMARK    3  A    between atoms: C_10  and  C_15
REMARK    4  A    between atoms: O_19  and  C_20
REMARK    5  A    between atoms: C_20  and  C_24
REMARK    6  A    between atoms: C_23  and  C_28
REMARK    7  A    between atoms: C_28  and  C_30
REMARK    8  A    between atoms: C_30  and  O_31
REMARK                            x       y       z     vdW  Elec       q    Type
REMARK                         _______ _______ _______ _____ _____    ______ ____
ROOT
ATOM      1  C   UNL     1      34.134 -22.512 -18.314  0.00  0.00    +0.139 C 
ATOM      2  C   UNL     1      32.968 -22.023 -18.892  0.00  0.00    +0.037 C 
ATOM      3  C   UNL     1      35.375 -22.004 -18.677  0.00  0.00    +0.037 C 
ATOM      4  C   UNL     1      34.287 -20.496 -20.219  0.00  0.00    +0.000 C 
ATOM      5  C   UNL     1      33.046 -21.011 -19.848  0.00  0.00    +0.003 C 
ATOM      6  C   UNL     1      35.452 -20.992 -19.634  0.00  0.00    +0.003 C 
ENDROOT
BRANCH   4   7
ATOM      7  C   UNL     1      34.368 -19.446 -21.212  0.00  0.00    +0.000 C 
ATOM      8  C   UNL     1      33.759 -19.614 -22.456  0.00  0.00    +0.000 C 
ATOM      9  C   UNL     1      35.053 -18.265 -20.925  0.00  0.00    +0.000 C 
ATOM     10  C   UNL     1      34.521 -17.422 -23.125  0.00  0.00    +0.031 C 
ATOM     11  C   UNL     1      33.835 -18.602 -23.413  0.00  0.00    +0.003 C 
ATOM     12  C   UNL     1      35.130 -17.253 -21.882  0.00  0.00    +0.003 C 
BRANCH  10  15
ATOM     13  N   UNL     1      34.593 -16.655 -25.487  0.00  0.00    -0.343 N 
ATOM     14  N   UNL     1      34.688 -15.104 -23.742  0.00  0.00    -0.285 NA
ATOM     15  C   UNL     1      34.601 -16.367 -24.124  0.00  0.00    +0.117 C 
ATOM     16  H   UNL     1      34.649 -15.925 -26.145  0.00  0.00    +0.144 HD
ATOM     17  H   UNL     1      34.532 -17.589 -25.791  0.00  0.00    +0.144 HD
ATOM     18  H   UNL     1      34.742 -14.389 -24.415  0.00  0.00    +0.188 HD
ENDBRANCH  10  15
ENDBRANCH   4   7
BRANCH   1  19
ATOM     19  O   UNL     1      34.058 -23.509 -17.373  0.00  0.00    -0.474 OA
BRANCH  19  20
ATOM     20  C   UNL     1      34.160 -23.119 -16.015  0.00  0.00    +0.225 C 
BRANCH  20  24
ATOM     21  O   UNL     1      38.068 -23.936 -14.190  0.00  0.00    -0.275 OA
ATOM     22  N   UNL     1      36.118 -24.445 -15.380  0.00  0.00    -0.302 N 
ATOM     23  C   UNL     1      35.856 -23.385 -13.310  0.00  0.00    +0.089 C 
ATOM     24  C   UNL     1      34.693 -24.296 -15.209  0.00  0.00    +0.116 C 
ATOM     25  C   UNL     1      34.557 -24.097 -13.704  0.00  0.00    +0.033 C 
ATOM     26  C   UNL     1      36.852 -23.950 -14.304  0.00  0.00    +0.223 C 
ATOM     27  H   UNL     1      36.530 -24.853 -16.175  0.00  0.00    +0.149 HD
BRANCH  23  28
ATOM     28  C   UNL     1      36.258 -23.629 -11.868  0.00  0.00    +0.118 C 
BRANCH  28  30
ATOM     29  O   UNL     1      36.489 -26.054 -11.823  0.00  0.00    -0.250 OA
ATOM     30  C   UNL     1      35.947 -25.035 -11.424  0.00  0.00    +0.314 C 
BRANCH  30  31
ATOM     31  O   UNL     1      34.958 -25.022 -10.492  0.00  0.00    -0.480 OA
ATOM     32  H   UNL     1      34.161 -25.488 -10.648  0.00  0.00    +0.295 HD
ENDBRANCH  30  31
ENDBRANCH  28  30
ENDBRANCH  23  28
ENDBRANCH  20  24
ENDBRANCH  19  20
ENDBRANCH   1  19
TORSDOF 8
ENDMDL
MODEL 6
REMARK VINA RESULT:     -11.6      1.654      2.750
REMARK  Name = 66000
REMARK  8 active torsions:
REMARK  status: ('A' for Active; 'I' for Inactive)
REMARK    1  A    between atoms: C_1  and  O_19
REMARK    2  A    between atoms: C_4  and  C_7
REMARK    3  A    between atoms: C_10  and  C_15
REMARK    4  A    between atoms: O_19  and  C_20
REMARK    5  A    between atoms: C_20  and  C_24
REMARK    6  A    between atoms: C_23  and  C_28
REMARK    7  A    between atoms: C_28  and  C_30
REMARK    8  A    between atoms: C_30  and  O_31
REMARK                            x       y       z     vdW  Elec       q    Type
REMARK                         _______ _______ _______ _____ _____    ______ ____
ROOT
ATOM      1  C   UNL     1      35.390 -21.507 -19.119  0.00  0.00    +0.139 C 
ATOM      2  C   UNL     1      34.080 -21.342 -19.551  0.00  0.00    +0.037 C 
ATOM      3  C   UNL     1      36.426 -20.780 -19.692  0.00  0.00    +0.037 C 
ATOM      4  C   UNL     1      34.835 -19.702 -21.155  0.00  0.00    +0.000 C 
ATOM      5  C   UNL     1      33.801 -20.435 -20.573  0.00  0.00    +0.003 C 
ATOM      6  C   UNL     1      36.147 -19.874 -20.716  0.00  0.00    +0.003 C 
ENDROOT
BRANCH   4   7
ATOM      7  C   UNL     1      34.546 -18.761 -22.217  0.00  0.00    +0.000 C 
ATOM      8  C   UNL     1      34.901 -17.420 -22.076  0.00  0.00    +0.000 C 
ATOM      9  C   UNL     1      33.914 -19.197 -23.382  0.00  0.00    +0.000 C 
ATOM     10  C   UNL     1      33.992 -16.949 -24.264  0.00  0.00    +0.031 C 
ATOM     11  C   UNL     1      34.623 -16.513 -23.100  0.00  0.00    +0.003 C 
ATOM     12  C   UNL     1      33.637 -18.290 -24.406  0.00  0.00    +0.003 C 
BRANCH  10  15
ATOM     13  N   UNL     1      33.037 -14.806 -25.079  0.00  0.00    -0.343 N 
ATOM     14  N   UNL     1      34.070 -16.278 -26.571  0.00  0.00    -0.285 NA
ATOM     15  C   UNL     1      33.702 -16.004 -25.331  0.00  0.00    +0.117 C 
ATOM     16  H   UNL     1      32.851 -14.181 -25.816  0.00  0.00    +0.144 HD
ATOM     17  H   UNL     1      32.752 -14.585 -24.163  0.00  0.00    +0.144 HD
ATOM     18  H   UNL     1      33.875 -15.640 -27.295  0.00  0.00    +0.188 HD
ENDBRANCH  10  15
ENDBRANCH   4   7
BRANCH   1  19
ATOM     19  O   UNL     1      35.665 -22.400 -18.113  0.00  0.00    -0.474 OA
BRANCH  19  20
ATOM     20  C   UNL     1      34.689 -22.542 -17.095  0.00  0.00    +0.225 C 
BRANCH  20  24
ATOM     21  O   UNL     1      33.818 -24.487 -13.257  0.00  0.00    -0.275 OA
ATOM     22  N   UNL     1      34.452 -22.728 -14.665  0.00  0.00    -0.302 N 
ATOM     23  C   UNL     1      35.542 -24.777 -14.966  0.00  0.00    +0.089 C 
ATOM     24  C   UNL     1      35.387 -22.505 -15.742  0.00  0.00    +0.116 C 
ATOM     25  C   UNL     1      36.386 -23.643 -15.557  0.00  0.00    +0.033 C 
ATOM     26  C   UNL     1      34.503 -24.024 -14.157  0.00  0.00    +0.223 C 
ATOM     27  H   UNL     1      33.842 -22.035 -14.325  0.00  0.00    +0.149 HD
BRANCH  23  28
ATOM     28  C   UNL     1      36.351 -25.749 -14.127  0.00  0.00    +0.118 C 
BRANCH  28  30
ATOM     29  O   UNL     1      38.357 -26.982 -14.752  0.00  0.00    -0.250 OA
ATOM     30  C   UNL     1      37.201 -26.658 -14.977  0.00  0.00    +0.314 C 
BRANCH  30  31
ATOM     31  O   UNL     1      36.494 -27.085 -16.055  0.00  0.00    -0.480 OA
ATOM     32  H   UNL     1      35.606 -26.810 -16.172  0.00  0.00    +0.295 HD
ENDBRANCH  30  31
ENDBRANCH  28  30
ENDBRANCH  23  28
ENDBRANCH  20  24
ENDBRANCH  19  20
ENDBRANCH   1  19
TORSDOF 8
ENDMDL
MODEL 7
REMARK VINA RESULT:     -11.2      3.191      4.829
REMARK  Name = 66000
REMARK  8 active torsions:
REMARK  status: ('A' for Active; 'I' for Inactive)
REMARK    1  A    between atoms: C_1  and  O_19
REMARK    2  A    between atoms: C_4  and  C_7
REMARK    3  A    between atoms: C_10  and  C_15
REMARK    4  A    between atoms: O_19  and  C_20
REMARK    5  A    between atoms: C_20  and  C_24
REMARK    6  A    between atoms: C_23  and  C_28
REMARK    7  A    between atoms: C_28  and  C_30
REMARK    8  A    between atoms: C_30  and  O_31
REMARK                            x       y       z     vdW  Elec       q    Type
REMARK                         _______ _______ _______ _____ _____    ______ ____
ROOT
ATOM      1  C   UNL     1      34.949 -21.894 -18.784  0.00  0.00    +0.139 C 
ATOM      2  C   UNL     1      36.065 -21.259 -19.316  0.00  0.00    +0.037 C 
ATOM      3  C   UNL     1      33.675 -21.607 -19.255  0.00  0.00    +0.037 C 
ATOM      4  C   UNL     1      34.626 -20.026 -20.814  0.00  0.00    +0.000 C 
ATOM      5  C   UNL     1      35.902 -20.321 -20.335  0.00  0.00    +0.003 C 
ATOM      6  C   UNL     1      33.512 -20.668 -20.274  0.00  0.00    +0.003 C 
ENDROOT
BRANCH   4   7
ATOM      7  C   UNL     1      34.457 -19.052 -21.871  0.00  0.00    +0.000 C 
ATOM      8  C   UNL     1      33.900 -19.437 -23.091  0.00  0.00    +0.000 C 
ATOM      9  C   UNL     1      34.850 -17.729 -21.670  0.00  0.00    +0.000 C 
ATOM     10  C   UNL     1      34.128 -17.175 -23.908  0.00  0.00    +0.031 C 
ATOM     11  C   UNL     1      33.736 -18.497 -24.110  0.00  0.00    +0.003 C 
ATOM     12  C   UNL     1      34.685 -16.790 -22.689  0.00  0.00    +0.003 C 
BRANCH  10  15
ATOM     13  N   UNL     1      33.221 -15.030 -24.772  0.00  0.00    -0.343 N 
ATOM     14  N   UNL     1      34.504 -16.409 -26.155  0.00  0.00    -0.285 NA
ATOM     15  C   UNL     1      33.958 -16.196 -24.971  0.00  0.00    +0.117 C 
ATOM     16  H   UNL     1      33.118 -14.382 -25.506  0.00  0.00    +0.144 HD
ATOM     17  H   UNL     1      32.804 -14.855 -23.898  0.00  0.00    +0.144 HD
ATOM     18  H   UNL     1      34.390 -15.748 -26.876  0.00  0.00    +0.188 HD
ENDBRANCH  10  15
ENDBRANCH   4   7
BRANCH   1  19
ATOM     19  O   UNL     1      35.110 -22.817 -17.780  0.00  0.00    -0.474 OA
BRANCH  19  20
ATOM     20  C   UNL     1      34.404 -22.584 -16.574  0.00  0.00    +0.225 C 
BRANCH  20  24
ATOM     21  O   UNL     1      32.520 -24.144 -12.928  0.00  0.00    -0.275 OA
ATOM     22  N   UNL     1      33.631 -24.278 -14.984  0.00  0.00    -0.302 N 
ATOM     23  C   UNL     1      31.697 -22.962 -14.903  0.00  0.00    +0.089 C 
ATOM     24  C   UNL     1      33.470 -23.760 -16.321  0.00  0.00    +0.116 C 
ATOM     25  C   UNL     1      31.997 -23.366 -16.351  0.00  0.00    +0.033 C 
ATOM     26  C   UNL     1      32.625 -23.866 -14.113  0.00  0.00    +0.223 C 
ATOM     27  H   UNL     1      34.375 -24.863 -14.715  0.00  0.00    +0.149 HD
BRANCH  23  28
ATOM     28  C   UNL     1      30.239 -23.137 -14.524  0.00  0.00    +0.118 C 
BRANCH  28  30
ATOM     29  O   UNL     1      29.157 -24.747 -15.998  0.00  0.00    -0.250 OA
ATOM     30  C   UNL     1      29.703 -24.484 -14.938  0.00  0.00    +0.314 C 
BRANCH  30  31
ATOM     31  O   UNL     1      29.914 -25.393 -13.951  0.00  0.00    -0.480 OA
ATOM     32  H   UNL     1      29.235 -25.583 -13.335  0.00  0.00    +0.295 HD
ENDBRANCH  30  31
ENDBRANCH  28  30
ENDBRANCH  23  28
ENDBRANCH  20  24
ENDBRANCH  19  20
ENDBRANCH   1  19
TORSDOF 8
ENDMDL
MODEL 8
REMARK VINA RESULT:     -11.0      3.222      5.267
REMARK  Name = 66000
REMARK  8 active torsions:
REMARK  status: ('A' for Active; 'I' for Inactive)
REMARK    1  A    between atoms: C_1  and  O_19
REMARK    2  A    between atoms: C_4  and  C_7
REMARK    3  A    between atoms: C_10  and  C_15
REMARK    4  A    between atoms: O_19  and  C_20
REMARK    5  A    between atoms: C_20  and  C_24
REMARK    6  A    between atoms: C_23  and  C_28
REMARK    7  A    between atoms: C_28  and  C_30
REMARK    8  A    between atoms: C_30  and  O_31
REMARK                            x       y       z     vdW  Elec       q    Type
REMARK                         _______ _______ _______ _____ _____    ______ ____
ROOT
ATOM      1  C   UNL     1      34.229 -22.390 -18.460  0.00  0.00    +0.139 C 
ATOM      2  C   UNL     1      35.454 -21.860 -18.848  0.00  0.00    +0.037 C 
ATOM      3  C   UNL     1      33.044 -21.918 -19.010  0.00  0.00    +0.037 C 
ATOM      4  C   UNL     1      34.309 -20.363 -20.358  0.00  0.00    +0.000 C 
ATOM      5  C   UNL     1      35.494 -20.843 -19.800  0.00  0.00    +0.003 C 
ATOM      6  C   UNL     1      33.084 -20.900 -19.962  0.00  0.00    +0.003 C 
ENDROOT
BRANCH   4   7
ATOM      7  C   UNL     1      34.350 -19.306 -21.346  0.00  0.00    +0.000 C 
ATOM      8  C   UNL     1      34.902 -18.067 -21.020  0.00  0.00    +0.000 C 
ATOM      9  C   UNL     1      33.837 -19.526 -22.624  0.00  0.00    +0.000 C 
ATOM     10  C   UNL     1      34.431 -17.270 -23.251  0.00  0.00    +0.031 C 
ATOM     11  C   UNL     1      34.943 -17.049 -21.972  0.00  0.00    +0.003 C 
ATOM     12  C   UNL     1      33.878 -18.508 -23.577  0.00  0.00    +0.003 C 
BRANCH  10  15
ATOM     13  N   UNL     1      34.103 -14.902 -23.926  0.00  0.00    -0.343 N 
ATOM     14  N   UNL     1      34.863 -16.475 -25.478  0.00  0.00    -0.285 NA
ATOM     15  C   UNL     1      34.473 -16.208 -24.243  0.00  0.00    +0.117 C 
ATOM     16  H   UNL     1      34.139 -14.199 -24.614  0.00  0.00    +0.144 HD
ATOM     17  H   UNL     1      33.806 -14.684 -23.013  0.00  0.00    +0.144 HD
ATOM     18  H   UNL     1      34.892 -15.758 -26.151  0.00  0.00    +0.188 HD
ENDBRANCH  10  15
ENDBRANCH   4   7
BRANCH   1  19
ATOM     19  O   UNL     1      34.190 -23.391 -17.522  0.00  0.00    -0.474 OA
BRANCH  19  20
ATOM     20  C   UNL     1      33.988 -23.003 -16.174  0.00  0.00    +0.225 C 
BRANCH  20  24
ATOM     21  O   UNL     1      31.288 -22.863 -12.715  0.00  0.00    -0.275 OA
ATOM     22  N   UNL     1      32.963 -23.759 -14.083  0.00  0.00    -0.302 N 
ATOM     23  C   UNL     1      30.965 -23.125 -15.124  0.00  0.00    +0.089 C 
ATOM     24  C   UNL     1      33.149 -24.068 -15.481  0.00  0.00    +0.116 C 
ATOM     25  C   UNL     1      31.718 -24.131 -16.002  0.00  0.00    +0.033 C 
ATOM     26  C   UNL     1      31.708 -23.223 -13.805  0.00  0.00    +0.223 C 
ATOM     27  H   UNL     1      33.652 -23.911 -13.398  0.00  0.00    +0.149 HD
BRANCH  23  28
ATOM     28  C   UNL     1      29.486 -23.437 -14.992  0.00  0.00    +0.118 C 
BRANCH  28  30
ATOM     29  O   UNL     1      27.587 -22.043 -15.617  0.00  0.00    -0.250 OA
ATOM     30  C   UNL     1      28.643 -22.583 -15.906  0.00  0.00    +0.314 C 
BRANCH  30  31
ATOM     31  O   UNL     1      29.230 -22.487 -17.127  0.00  0.00    -0.480 OA
ATOM     32  H   UNL     1      29.928 -23.068 -17.358  0.00  0.00    +0.295 HD
ENDBRANCH  30  31
ENDBRANCH  28  30
ENDBRANCH  23  28
ENDBRANCH  20  24
ENDBRANCH  19  20
ENDBRANCH   1  19
TORSDOF 8
ENDMDL
MODEL 9
REMARK VINA RESULT:     -10.8      4.076     10.488
REMARK  Name = 66000
REMARK  8 active torsions:
REMARK  status: ('A' for Active; 'I' for Inactive)
REMARK    1  A    between atoms: C_1  and  O_19
REMARK    2  A    between atoms: C_4  and  C_7
REMARK    3  A    between atoms: C_10  and  C_15
REMARK    4  A    between atoms: O_19  and  C_20
REMARK    5  A    between atoms: C_20  and  C_24
REMARK    6  A    between atoms: C_23  and  C_28
REMARK    7  A    between atoms: C_28  and  C_30
REMARK    8  A    between atoms: C_30  and  O_31
REMARK                            x       y       z     vdW  Elec       q    Type
REMARK                         _______ _______ _______ _____ _____    ______ ____
ROOT
ATOM      1  C   UNL     1      35.045 -21.400 -19.561  0.00  0.00    +0.139 C 
ATOM      2  C   UNL     1      36.261 -21.243 -18.905  0.00  0.00    +0.037 C 
ATOM      3  C   UNL     1      34.006 -22.109 -18.973  0.00  0.00    +0.037 C 
ATOM      4  C   UNL     1      35.401 -22.521 -17.045  0.00  0.00    +0.000 C 
ATOM      5  C   UNL     1      36.439 -21.806 -17.642  0.00  0.00    +0.003 C 
ATOM      6  C   UNL     1      34.185 -22.673 -17.710  0.00  0.00    +0.003 C 
ENDROOT
BRANCH   4   7
ATOM      7  C   UNL     1      35.586 -23.105 -15.734  0.00  0.00    +0.000 C 
ATOM      8  C   UNL     1      36.868 -23.427 -15.288  0.00  0.00    +0.000 C 
ATOM      9  C   UNL     1      34.482 -23.347 -14.916  0.00  0.00    +0.000 C 
ATOM     10  C   UNL     1      35.943 -24.231 -13.206  0.00  0.00    +0.031 C 
ATOM     11  C   UNL     1      37.046 -23.990 -14.024  0.00  0.00    +0.003 C 
ATOM     12  C   UNL     1      34.661 -23.910 -13.651  0.00  0.00    +0.003 C 
BRANCH  10  15
ATOM     13  N   UNL     1      36.073 -24.042 -10.733  0.00  0.00    -0.343 N 
ATOM     14  N   UNL     1      36.362 -26.114 -11.773  0.00  0.00    -0.285 NA
ATOM     15  C   UNL     1      36.129 -24.818 -11.889  0.00  0.00    +0.117 C 
ATOM     16  H   UNL     1      36.203 -24.461  -9.852  0.00  0.00    +0.144 HD
ATOM     17  H   UNL     1      35.904 -23.075 -10.799  0.00  0.00    +0.144 HD
ATOM     18  H   UNL     1      36.488 -26.514 -10.883  0.00  0.00    +0.188 HD
ENDBRANCH  10  15
ENDBRANCH   4   7
BRANCH   1  19
ATOM     19  O   UNL     1      34.870 -20.846 -20.805  0.00  0.00    -0.474 OA
BRANCH  19  20
ATOM     20  C   UNL     1      35.347 -19.525 -20.994  0.00  0.00    +0.225 C 
BRANCH  20  24
ATOM     21  O   UNL     1      35.352 -15.792 -23.304  0.00  0.00    -0.275 OA
ATOM     22  N   UNL     1      34.605 -17.292 -21.670  0.00  0.00    -0.302 N 
ATOM     23  C   UNL     1      34.877 -18.129 -23.838  0.00  0.00    +0.089 C 
ATOM     24  C   UNL     1      34.227 -18.682 -21.589  0.00  0.00    +0.116 C 
ATOM     25  C   UNL     1      33.928 -19.032 -23.042  0.00  0.00    +0.033 C 
ATOM     26  C   UNL     1      34.977 -16.901 -22.953  0.00  0.00    +0.223 C 
ATOM     27  H   UNL     1      34.599 -16.682 -20.897  0.00  0.00    +0.149 HD
BRANCH  23  28
ATOM     28  C   UNL     1      34.371 -17.812 -25.233  0.00  0.00    +0.118 C 
BRANCH  28  30
ATOM     29  O   UNL     1      32.020 -18.408 -25.469  0.00  0.00    -0.250 OA
ATOM     30  C   UNL     1      32.883 -17.571 -25.254  0.00  0.00    +0.314 C 
BRANCH  30  31
ATOM     31  O   UNL     1      32.618 -16.264 -24.995  0.00  0.00    -0.480 OA
ATOM     32  H   UNL     1      32.623 -15.952 -24.111  0.00  0.00    +0.295 HD
ENDBRANCH  30  31
ENDBRANCH  28  30
ENDBRANCH  23  28
ENDBRANCH  20  24
ENDBRANCH  19  20
ENDBRANCH   1  19
TORSDOF 8
ENDMDL
