MODEL 1
REMARK VINA RESULT:     -12.3      0.000      0.000
REMARK  Name = 24812758
REMARK  9 active torsions:
REMARK  status: ('A' for Active; 'I' for Inactive)
REMARK    1  A    between atoms: C_1  and  C_11
REMARK    2  A    between atoms: C_4  and  C_23
REMARK    3  A    between atoms: C_9  and  O_14
REMARK    4  A    between atoms: C_10  and  O_16
REMARK    5  A    between atoms: C_12  and  O_18
REMARK    6  A    between atoms: C_13  and  C_20
REMARK    7  A    between atoms: C_20  and  O_21
REMARK    8  A    between atoms: C_23  and  C_25
REMARK    9  A    between atoms: C_27  and  C_30
REMARK                            x       y       z     vdW  Elec       q    Type
REMARK                         _______ _______ _______ _____ _____    ______ ____
ROOT
ATOM      1  C   UNL     1      33.809 -24.193 -14.333  0.00  0.00    +0.007 C 
ATOM      2  C   UNL     1      33.579 -24.009 -15.696  0.00  0.00    -0.006 C 
ATOM      3  C   UNL     1      32.807 -23.890 -13.410  0.00  0.00    -0.002 C 
ATOM      4  C   UNL     1      32.350 -23.522 -16.138  0.00  0.00    -0.021 C 
ATOM      5  C   UNL     1      31.348 -23.219 -15.215  0.00  0.00    -0.025 C 
ATOM      6  C   UNL     1      31.577 -23.403 -13.852  0.00  0.00    -0.005 C 
ATOM      7  C   UNL     1      30.022 -22.697 -15.663  0.00  0.00    +0.031 C 
ENDROOT
BRANCH   1  11
ATOM      8  O   UNL     1      35.879 -23.621 -13.309  0.00  0.00    -0.347 OA
ATOM      9  C   UNL     1      35.936 -25.399 -14.984  0.00  0.00    +0.171 C 
ATOM     10  C   UNL     1      37.343 -25.781 -14.519  0.00  0.00    +0.169 C 
ATOM     11  C   UNL     1      35.146 -24.723 -13.853  0.00  0.00    +0.167 C 
ATOM     12  C   UNL     1      38.033 -24.612 -13.817  0.00  0.00    +0.169 C 
ATOM     13  C   UNL     1      37.127 -24.015 -12.738  0.00  0.00    +0.174 C 
BRANCH   9  14
ATOM     14  O   UNL     1      35.242 -26.581 -15.383  0.00  0.00    -0.379 OA
ATOM     15  H   UNL     1      35.705 -26.991 -16.130  0.00  0.00    +0.211 HD
ENDBRANCH   9  14
BRANCH  10  16
ATOM     16  O   UNL     1      38.135 -26.145 -15.650  0.00  0.00    -0.379 OA
ATOM     17  H   UNL     1      38.797 -25.457 -15.818  0.00  0.00    +0.211 HD
ENDBRANCH  10  16
BRANCH  12  18
ATOM     18  O   UNL     1      39.241 -25.070 -13.216  0.00  0.00    -0.379 OA
ATOM     19  H   UNL     1      39.049 -25.422 -12.332  0.00  0.00    +0.211 HD
ENDBRANCH  12  18
BRANCH  13  20
ATOM     20  C   UNL     1      37.749 -22.778 -12.098  0.00  0.00    +0.169 C 
BRANCH  20  21
ATOM     21  O   UNL     1      36.921 -22.359 -11.028  0.00  0.00    -0.379 OA
ATOM     22  H   UNL     1      36.959 -21.393 -10.948  0.00  0.00    +0.211 HD
ENDBRANCH  20  21
ENDBRANCH  13  20
ENDBRANCH   1  11
BRANCH   4  23
ATOM     23  C   UNL     1      32.127 -23.334 -17.602  0.00  0.00    +0.059 C 
BRANCH  23  25
ATOM     24  S   UNL     1      32.788 -21.459 -19.559  0.00  0.00    -0.091 S 
ATOM     25  C   UNL     1      33.210 -22.526 -18.287  0.00  0.00    +0.012 C 
ATOM     26  C   UNL     1      34.562 -22.513 -18.029  0.00  0.00    +0.003 C 
ATOM     27  C   UNL     1      34.417 -20.978 -19.767  0.00  0.00    +0.029 C 
ATOM     28  C   UNL     1      35.262 -21.616 -18.887  0.00  0.00    +0.007 C 
BRANCH  27  30
ATOM     29  F   UNL     1      35.635 -17.228 -23.707  0.00  0.00    -0.204 F 
ATOM     30  C   UNL     1      34.733 -20.006 -20.788  0.00  0.00    +0.006 C 
ATOM     31  C   UNL     1      33.737 -19.559 -21.658  0.00  0.00    +0.003 C 
ATOM     32  C   UNL     1      36.033 -19.514 -20.906  0.00  0.00    +0.003 C 
ATOM     33  C   UNL     1      34.042 -18.621 -22.643  0.00  0.00    +0.030 C 
ATOM     34  C   UNL     1      36.337 -18.576 -21.891  0.00  0.00    +0.030 C 
ATOM     35  C   UNL     1      35.342 -18.129 -22.760  0.00  0.00    +0.140 C 
ENDBRANCH  27  30
ENDBRANCH  23  25
ENDBRANCH   4  23
TORSDOF 9
ENDMDL
MODEL 2
REMARK VINA RESULT:     -12.0      0.938      2.456
REMARK  Name = 24812758
REMARK  9 active torsions:
REMARK  status: ('A' for Active; 'I' for Inactive)
REMARK    1  A    between atoms: C_1  and  C_11
REMARK    2  A    between atoms: C_4  and  C_23
REMARK    3  A    between atoms: C_9  and  O_14
REMARK    4  A    between atoms: C_10  and  O_16
REMARK    5  A    between atoms: C_12  and  O_18
REMARK    6  A    between atoms: C_13  and  C_20
REMARK    7  A    between atoms: C_20  and  O_21
REMARK    8  A    between atoms: C_23  and  C_25
REMARK    9  A    between atoms: C_27  and  C_30
REMARK                            x       y       z     vdW  Elec       q    Type
REMARK                         _______ _______ _______ _____ _____    ______ ____
ROOT
ATOM      1  C   UNL     1      34.055 -23.872 -14.748  0.00  0.00    +0.007 C 
ATOM      2  C   UNL     1      33.634 -23.522 -16.031  0.00  0.00    -0.006 C 
ATOM      3  C   UNL     1      33.131 -23.938 -13.705  0.00  0.00    -0.002 C 
ATOM      4  C   UNL     1      32.290 -23.238 -16.272  0.00  0.00    -0.021 C 
ATOM      5  C   UNL     1      31.366 -23.305 -15.229  0.00  0.00    -0.025 C 
ATOM      6  C   UNL     1      31.787 -23.655 -13.946  0.00  0.00    -0.005 C 
ATOM      7  C   UNL     1      29.922 -23.006 -15.461  0.00  0.00    +0.031 C 
ENDROOT
BRANCH   1  11
ATOM      8  O   UNL     1      35.805 -25.451 -15.079  0.00  0.00    -0.347 OA
ATOM      9  C   UNL     1      35.843 -24.190 -12.986  0.00  0.00    +0.171 C 
ATOM     10  C   UNL     1      37.279 -24.659 -12.740  0.00  0.00    +0.169 C 
ATOM     11  C   UNL     1      35.516 -24.180 -14.487  0.00  0.00    +0.167 C 
ATOM     12  C   UNL     1      37.583 -25.945 -13.507  0.00  0.00    +0.169 C 
ATOM     13  C   UNL     1      37.184 -25.808 -14.977  0.00  0.00    +0.174 C 
BRANCH   9  14
ATOM     14  O   UNL     1      35.694 -22.864 -12.478  0.00  0.00    -0.379 OA
ATOM     15  H   UNL     1      36.032 -22.228 -13.128  0.00  0.00    +0.211 HD
ENDBRANCH   9  14
BRANCH  10  16
ATOM     16  O   UNL     1      37.461 -24.922 -11.348  0.00  0.00    -0.379 OA
ATOM     17  H   UNL     1      37.659 -25.863 -11.219  0.00  0.00    +0.211 HD
ENDBRANCH  10  16
BRANCH  12  18
ATOM     18  O   UNL     1      38.978 -26.225 -13.423  0.00  0.00    -0.379 OA
ATOM     19  H   UNL     1      39.114 -27.034 -12.904  0.00  0.00    +0.211 HD
ENDBRANCH  12  18
BRANCH  13  20
ATOM     20  C   UNL     1      37.376 -27.115 -15.740  0.00  0.00    +0.169 C 
BRANCH  20  21
ATOM     21  O   UNL     1      36.221 -27.352 -16.525  0.00  0.00    -0.379 OA
ATOM     22  H   UNL     1      35.579 -26.640 -16.380  0.00  0.00    +0.211 HD
ENDBRANCH  20  21
ENDBRANCH  13  20
ENDBRANCH   1  11
BRANCH   4  23
ATOM     23  C   UNL     1      31.863 -22.867 -17.653  0.00  0.00    +0.059 C 
BRANCH  23  25
ATOM     24  S   UNL     1      32.535 -21.033 -19.645  0.00  0.00    -0.091 S 
ATOM     25  C   UNL     1      32.954 -22.214 -18.477  0.00  0.00    +0.012 C 
ATOM     26  C   UNL     1      34.312 -22.433 -18.427  0.00  0.00    +0.003 C 
ATOM     27  C   UNL     1      34.174 -20.813 -20.088  0.00  0.00    +0.029 C 
ATOM     28  C   UNL     1      35.020 -21.621 -19.361  0.00  0.00    +0.007 C 
BRANCH  27  30
ATOM     29  F   UNL     1      35.415 -17.128 -24.081  0.00  0.00    -0.204 F 
ATOM     30  C   UNL     1      34.495 -19.858 -21.123  0.00  0.00    +0.006 C 
ATOM     31  C   UNL     1      35.750 -19.247 -21.143  0.00  0.00    +0.003 C 
ATOM     32  C   UNL     1      33.552 -19.546 -22.102  0.00  0.00    +0.003 C 
ATOM     33  C   UNL     1      36.060 -18.325 -22.142  0.00  0.00    +0.030 C 
ATOM     34  C   UNL     1      33.863 -18.624 -23.101  0.00  0.00    +0.030 C 
ATOM     35  C   UNL     1      35.117 -18.013 -23.121  0.00  0.00    +0.140 C 
ENDBRANCH  27  30
ENDBRANCH  23  25
ENDBRANCH   4  23
TORSDOF 9
ENDMDL
MODEL 3
REMARK VINA RESULT:     -11.0      3.088      5.537
REMARK  Name = 24812758
REMARK  9 active torsions:
REMARK  status: ('A' for Active; 'I' for Inactive)
REMARK    1  A    between atoms: C_1  and  C_11
REMARK    2  A    between atoms: C_4  and  C_23
REMARK    3  A    between atoms: C_9  and  O_14
REMARK    4  A    between atoms: C_10  and  O_16
REMARK    5  A    between atoms: C_12  and  O_18
REMARK    6  A    between atoms: C_13  and  C_20
REMARK    7  A    between atoms: C_20  and  O_21
REMARK    8  A    between atoms: C_23  and  C_25
REMARK    9  A    between atoms: C_27  and  C_30
REMARK                            x       y       z     vdW  Elec       q    Type
REMARK                         _______ _______ _______ _____ _____    ______ ____
ROOT
ATOM      1  C   UNL     1      33.277 -23.403 -16.229  0.00  0.00    +0.007 C 
ATOM      2  C   UNL     1      33.723 -23.167 -17.529  0.00  0.00    -0.006 C 
ATOM      3  C   UNL     1      34.068 -23.029 -15.142  0.00  0.00    -0.002 C 
ATOM      4  C   UNL     1      34.958 -22.557 -17.744  0.00  0.00    -0.021 C 
ATOM      5  C   UNL     1      35.749 -22.183 -16.657  0.00  0.00    -0.025 C 
ATOM      6  C   UNL     1      35.303 -22.419 -15.357  0.00  0.00    -0.005 C 
ATOM      7  C   UNL     1      37.075 -21.528 -16.861  0.00  0.00    +0.031 C 
ENDROOT
BRANCH   1  11
ATOM      8  O   UNL     1      30.920 -23.167 -16.456  0.00  0.00    -0.347 OA
ATOM      9  C   UNL     1      31.718 -24.425 -14.518  0.00  0.00    +0.171 C 
ATOM     10  C   UNL     1      30.297 -24.944 -14.281  0.00  0.00    +0.169 C 
ATOM     11  C   UNL     1      31.934 -24.066 -15.997  0.00  0.00    +0.167 C 
ATOM     12  C   UNL     1      29.256 -24.021 -14.913  0.00  0.00    +0.169 C 
ATOM     13  C   UNL     1      29.607 -23.724 -16.372  0.00  0.00    +0.174 C 
BRANCH   9  14
ATOM     14  O   UNL     1      32.650 -25.442 -14.154  0.00  0.00    -0.379 OA
ATOM     15  H   UNL     1      32.358 -25.869 -13.333  0.00  0.00    +0.211 HD
ENDBRANCH   9  14
BRANCH  10  16
ATOM     16  O   UNL     1      30.041 -25.002 -12.877  0.00  0.00    -0.379 OA
ATOM     17  H   UNL     1      30.644 -24.401 -12.413  0.00  0.00    +0.211 HD
ENDBRANCH  10  16
BRANCH  12  18
ATOM     18  O   UNL     1      27.976 -24.646 -14.857  0.00  0.00    -0.379 OA
ATOM     19  H   UNL     1      27.469 -24.415 -15.651  0.00  0.00    +0.211 HD
ENDBRANCH  12  18
BRANCH  13  20
ATOM     20  C   UNL     1      28.643 -22.718 -16.993  0.00  0.00    +0.169 C 
BRANCH  20  21
ATOM     21  O   UNL     1      27.603 -23.429 -17.638  0.00  0.00    -0.379 OA
ATOM     22  H   UNL     1      27.788 -24.381 -17.599  0.00  0.00    +0.211 HD
ENDBRANCH  20  21
ENDBRANCH  13  20
ENDBRANCH   1  11
BRANCH   4  23
ATOM     23  C   UNL     1      35.414 -22.314 -19.145  0.00  0.00    +0.059 C 
BRANCH  23  25
ATOM     24  S   UNL     1      35.618 -19.907 -20.539  0.00  0.00    -0.091 S 
ATOM     25  C   UNL     1      34.701 -21.168 -19.831  0.00  0.00    +0.012 C 
ATOM     26  C   UNL     1      33.346 -20.972 -19.986  0.00  0.00    +0.003 C 
ATOM     27  C   UNL     1      34.203 -19.093 -21.054  0.00  0.00    +0.029 C 
ATOM     28  C   UNL     1      33.058 -19.769 -20.695  0.00  0.00    +0.007 C 
BRANCH  27  30
ATOM     29  F   UNL     1      34.715 -14.287 -23.829  0.00  0.00    -0.204 F 
ATOM     30  C   UNL     1      34.335 -17.848 -21.773  0.00  0.00    +0.006 C 
ATOM     31  C   UNL     1      34.253 -17.834 -23.166  0.00  0.00    +0.003 C 
ATOM     32  C   UNL     1      34.546 -16.658 -21.075  0.00  0.00    +0.003 C 
ATOM     33  C   UNL     1      34.381 -16.632 -23.860  0.00  0.00    +0.030 C 
ATOM     34  C   UNL     1      34.674 -15.456 -21.769  0.00  0.00    +0.030 C 
ATOM     35  C   UNL     1      34.591 -15.442 -23.162  0.00  0.00    +0.140 C 
ENDBRANCH  27  30
ENDBRANCH  23  25
ENDBRANCH   4  23
TORSDOF 9
ENDMDL
MODEL 4
REMARK VINA RESULT:     -10.5      4.607      8.163
REMARK  Name = 24812758
REMARK  9 active torsions:
REMARK  status: ('A' for Active; 'I' for Inactive)
REMARK    1  A    between atoms: C_1  and  C_11
REMARK    2  A    between atoms: C_4  and  C_23
REMARK    3  A    between atoms: C_9  and  O_14
REMARK    4  A    between atoms: C_10  and  O_16
REMARK    5  A    between atoms: C_12  and  O_18
REMARK    6  A    between atoms: C_13  and  C_20
REMARK    7  A    between atoms: C_20  and  O_21
REMARK    8  A    between atoms: C_23  and  C_25
REMARK    9  A    between atoms: C_27  and  C_30
REMARK                            x       y       z     vdW  Elec       q    Type
REMARK                         _______ _______ _______ _____ _____    ______ ____
ROOT
ATOM      1  C   UNL     1      35.439 -21.954 -18.127  0.00  0.00    +0.007 C 
ATOM      2  C   UNL     1      34.736 -22.919 -17.406  0.00  0.00    -0.006 C 
ATOM      3  C   UNL     1      36.621 -21.422 -17.612  0.00  0.00    -0.002 C 
ATOM      4  C   UNL     1      35.213 -23.352 -16.169  0.00  0.00    -0.021 C 
ATOM      5  C   UNL     1      36.395 -22.819 -15.654  0.00  0.00    -0.025 C 
ATOM      6  C   UNL     1      37.098 -21.854 -16.375  0.00  0.00    -0.005 C 
ATOM      7  C   UNL     1      36.927 -23.266 -14.332  0.00  0.00    +0.031 C 
ENDROOT
BRANCH   1  11
ATOM      8  O   UNL     1      35.672 -20.326 -19.848  0.00  0.00    -0.347 OA
ATOM      9  C   UNL     1      33.417 -21.169 -19.429  0.00  0.00    +0.171 C 
ATOM     10  C   UNL     1      32.949 -20.546 -20.747  0.00  0.00    +0.169 C 
ATOM     11  C   UNL     1      34.920 -21.485 -19.472  0.00  0.00    +0.167 C 
ATOM     12  C   UNL     1      33.868 -19.404 -21.179  0.00  0.00    +0.169 C 
ATOM     13  C   UNL     1      35.333 -19.845 -21.149  0.00  0.00    +0.174 C 
BRANCH   9  14
ATOM     14  O   UNL     1      32.701 -22.384 -19.211  0.00  0.00    -0.379 OA
ATOM     15  H   UNL     1      31.780 -22.181 -18.984  0.00  0.00    +0.211 HD
ENDBRANCH   9  14
BRANCH  10  16
ATOM     16  O   UNL     1      31.633 -20.015 -20.581  0.00  0.00    -0.379 OA
ATOM     17  H   UNL     1      31.043 -20.396 -21.249  0.00  0.00    +0.211 HD
ENDBRANCH  10  16
BRANCH  12  18
ATOM     18  O   UNL     1      33.527 -19.000 -22.503  0.00  0.00    -0.379 OA
ATOM     19  H   UNL     1      32.973 -19.682 -22.916  0.00  0.00    +0.211 HD
ENDBRANCH  12  18
BRANCH  13  20
ATOM     20  C   UNL     1      36.277 -18.691 -21.470  0.00  0.00    +0.169 C 
BRANCH  20  21
ATOM     21  O   UNL     1      36.288 -18.495 -22.873  0.00  0.00    -0.379 OA
ATOM     22  H   UNL     1      37.173 -18.212 -23.153  0.00  0.00    +0.211 HD
ENDBRANCH  20  21
ENDBRANCH  13  20
ENDBRANCH   1  11
BRANCH   4  23
ATOM     23  C   UNL     1      34.444 -24.386 -15.415  0.00  0.00    +0.059 C 
BRANCH  23  25
ATOM     24  S   UNL     1      31.878 -23.755 -16.310  0.00  0.00    -0.091 S 
ATOM     25  C   UNL     1      33.033 -23.963 -15.062  0.00  0.00    +0.012 C 
ATOM     26  C   UNL     1      32.502 -23.706 -13.818  0.00  0.00    +0.003 C 
ATOM     27  C   UNL     1      30.663 -23.320 -15.185  0.00  0.00    +0.029 C 
ATOM     28  C   UNL     1      31.128 -23.333 -13.889  0.00  0.00    +0.007 C 
BRANCH  27  30
ATOM     29  F   UNL     1      25.569 -22.072 -17.072  0.00  0.00    -0.204 F 
ATOM     30  C   UNL     1      29.343 -22.997 -15.674  0.00  0.00    +0.006 C 
ATOM     31  C   UNL     1      28.489 -22.204 -14.906  0.00  0.00    +0.003 C 
ATOM     32  C   UNL     1      28.921 -23.477 -16.914  0.00  0.00    +0.003 C 
ATOM     33  C   UNL     1      27.215 -21.891 -15.378  0.00  0.00    +0.030 C 
ATOM     34  C   UNL     1      27.647 -23.164 -17.386  0.00  0.00    +0.030 C 
ATOM     35  C   UNL     1      26.793 -22.371 -16.618  0.00  0.00    +0.140 C 
ENDBRANCH  27  30
ENDBRANCH  23  25
ENDBRANCH   4  23
TORSDOF 9
ENDMDL
MODEL 5
REMARK VINA RESULT:     -10.4     11.097     15.804
REMARK  Name = 24812758
REMARK  9 active torsions:
REMARK  status: ('A' for Active; 'I' for Inactive)
REMARK    1  A    between atoms: C_1  and  C_11
REMARK    2  A    between atoms: C_4  and  C_23
REMARK    3  A    between atoms: C_9  and  O_14
REMARK    4  A    between atoms: C_10  and  O_16
REMARK    5  A    between atoms: C_12  and  O_18
REMARK    6  A    between atoms: C_13  and  C_20
REMARK    7  A    between atoms: C_20  and  O_21
REMARK    8  A    between atoms: C_23  and  C_25
REMARK    9  A    between atoms: C_27  and  C_30
REMARK                            x       y       z     vdW  Elec       q    Type
REMARK                         _______ _______ _______ _____ _____    ______ ____
ROOT
ATOM      1  C   UNL     1      32.813  -8.500 -23.224  0.00  0.00    +0.007 C 
ATOM      2  C   UNL     1      32.447  -9.625 -23.962  0.00  0.00    -0.006 C 
ATOM      3  C   UNL     1      34.114  -8.002 -23.309  0.00  0.00    -0.002 C 
ATOM      4  C   UNL     1      33.380 -10.254 -24.785  0.00  0.00    -0.021 C 
ATOM      5  C   UNL     1      34.681  -9.757 -24.870  0.00  0.00    -0.025 C 
ATOM      6  C   UNL     1      35.047  -8.632 -24.132  0.00  0.00    -0.005 C 
ATOM      7  C   UNL     1      35.699 -10.412 -25.745  0.00  0.00    +0.031 C 
ENDROOT
BRANCH   1  11
ATOM      8  O   UNL     1      31.494  -6.543 -22.910  0.00  0.00    -0.347 OA
ATOM      9  C   UNL     1      32.315  -7.652 -20.893  0.00  0.00    +0.171 C 
ATOM     10  C   UNL     1      31.344  -6.820 -20.051  0.00  0.00    +0.169 C 
ATOM     11  C   UNL     1      31.797  -7.816 -22.330  0.00  0.00    +0.167 C 
ATOM     12  C   UNL     1      30.939  -5.537 -20.775  0.00  0.00    +0.169 C 
ATOM     13  C   UNL     1      30.473  -5.841 -22.200  0.00  0.00    +0.174 C 
BRANCH   9  14
ATOM     14  O   UNL     1      32.448  -8.946 -20.304  0.00  0.00    -0.379 OA
ATOM     15  H   UNL     1      31.588  -9.395 -20.314  0.00  0.00    +0.211 HD
ENDBRANCH   9  14
BRANCH  10  16
ATOM     16  O   UNL     1      31.974  -6.454 -18.822  0.00  0.00    -0.379 OA
ATOM     17  H   UNL     1      31.898  -7.184 -18.189  0.00  0.00    +0.211 HD
ENDBRANCH  10  16
BRANCH  12  18
ATOM     18  O   UNL     1      29.881  -4.906 -20.059  0.00  0.00    -0.379 OA
ATOM     19  H   UNL     1      29.871  -5.230 -19.144  0.00  0.00    +0.211 HD
ENDBRANCH  12  18
BRANCH  13  20
ATOM     20  C   UNL     1      30.168  -4.566 -22.979  0.00  0.00    +0.169 C 
BRANCH  20  21
ATOM     21  O   UNL     1      30.794  -3.477 -22.325  0.00  0.00    -0.379 OA
ATOM     22  H   UNL     1      30.343  -3.301 -21.485  0.00  0.00    +0.211 HD
ENDBRANCH  20  21
ENDBRANCH  13  20
ENDBRANCH   1  11
BRANCH   4  23
ATOM     23  C   UNL     1      32.966 -11.457 -25.567  0.00  0.00    +0.059 C 
BRANCH  23  25
ATOM     24  S   UNL     1      33.326 -14.210 -25.829  0.00  0.00    -0.091 S 
ATOM     25  C   UNL     1      33.318 -12.771 -24.901  0.00  0.00    +0.012 C 
ATOM     26  C   UNL     1      33.657 -13.002 -23.586  0.00  0.00    +0.003 C 
ATOM     27  C   UNL     1      33.782 -15.147 -24.471  0.00  0.00    +0.029 C 
ATOM     28  C   UNL     1      33.926 -14.379 -23.337  0.00  0.00    +0.007 C 
BRANCH  27  30
ATOM     29  F   UNL     1      34.473 -20.642 -25.099  0.00  0.00    -0.204 F 
ATOM     30  C   UNL     1      33.961 -16.571 -24.633  0.00  0.00    +0.006 C 
ATOM     31  C   UNL     1      33.535 -17.199 -25.805  0.00  0.00    +0.003 C 
ATOM     32  C   UNL     1      34.560 -17.319 -23.620  0.00  0.00    +0.003 C 
ATOM     33  C   UNL     1      33.708 -18.573 -25.962  0.00  0.00    +0.030 C 
ATOM     34  C   UNL     1      34.733 -18.694 -23.777  0.00  0.00    +0.030 C 
ATOM     35  C   UNL     1      34.307 -19.321 -24.948  0.00  0.00    +0.140 C 
ENDBRANCH  27  30
ENDBRANCH  23  25
ENDBRANCH   4  23
TORSDOF 9
ENDMDL
MODEL 6
REMARK VINA RESULT:     -10.3      7.801     12.364
REMARK  Name = 24812758
REMARK  9 active torsions:
REMARK  status: ('A' for Active; 'I' for Inactive)
REMARK    1  A    between atoms: C_1  and  C_11
REMARK    2  A    between atoms: C_4  and  C_23
REMARK    3  A    between atoms: C_9  and  O_14
REMARK    4  A    between atoms: C_10  and  O_16
REMARK    5  A    between atoms: C_12  and  O_18
REMARK    6  A    between atoms: C_13  and  C_20
REMARK    7  A    between atoms: C_20  and  O_21
REMARK    8  A    between atoms: C_23  and  C_25
REMARK    9  A    between atoms: C_27  and  C_30
REMARK                            x       y       z     vdW  Elec       q    Type
REMARK                         _______ _______ _______ _____ _____    ______ ____
ROOT
ATOM      1  C   UNL     1      34.082 -15.719 -24.266  0.00  0.00    +0.007 C 
ATOM      2  C   UNL     1      34.346 -17.085 -24.164  0.00  0.00    -0.006 C 
ATOM      3  C   UNL     1      34.197 -14.900 -23.142  0.00  0.00    -0.002 C 
ATOM      4  C   UNL     1      34.725 -17.633 -22.939  0.00  0.00    -0.021 C 
ATOM      5  C   UNL     1      34.840 -16.814 -21.815  0.00  0.00    -0.025 C 
ATOM      6  C   UNL     1      34.576 -15.449 -21.917  0.00  0.00    -0.005 C 
ATOM      7  C   UNL     1      35.245 -17.377 -20.493  0.00  0.00    +0.031 C 
ENDROOT
BRANCH   1  11
ATOM      8  O   UNL     1      33.390 -13.736 -25.386  0.00  0.00    -0.347 OA
ATOM      9  C   UNL     1      32.450 -15.841 -26.196  0.00  0.00    +0.171 C 
ATOM     10  C   UNL     1      31.954 -15.125 -27.455  0.00  0.00    +0.169 C 
ATOM     11  C   UNL     1      33.670 -15.124 -25.598  0.00  0.00    +0.167 C 
ATOM     12  C   UNL     1      31.807 -13.623 -27.218  0.00  0.00    +0.169 C 
ATOM     13  C   UNL     1      33.078 -13.043 -26.595  0.00  0.00    +0.174 C 
BRANCH   9  14
ATOM     14  O   UNL     1      32.827 -17.174 -26.538  0.00  0.00    -0.379 OA
ATOM     15  H   UNL     1      33.084 -17.208 -27.473  0.00  0.00    +0.211 HD
ENDBRANCH   9  14
BRANCH  10  16
ATOM     16  O   UNL     1      30.674 -15.641 -27.823  0.00  0.00    -0.379 OA
ATOM     17  H   UNL     1      30.789 -16.396 -28.421  0.00  0.00    +0.211 HD
ENDBRANCH  10  16
BRANCH  12  18
ATOM     18  O   UNL     1      31.555 -12.972 -28.461  0.00  0.00    -0.379 OA
ATOM     19  H   UNL     1      31.728 -12.022 -28.369  0.00  0.00    +0.211 HD
ENDBRANCH  12  18
BRANCH  13  20
ATOM     20  C   UNL     1      32.916 -11.567 -26.248  0.00  0.00    +0.169 C 
BRANCH  20  21
ATOM     21  O   UNL     1      34.176 -10.932 -26.378  0.00  0.00    -0.379 OA
ATOM     22  H   UNL     1      34.834 -11.578 -26.678  0.00  0.00    +0.211 HD
ENDBRANCH  20  21
ENDBRANCH  13  20
ENDBRANCH   1  11
BRANCH   4  23
ATOM     23  C   UNL     1      35.003 -19.097 -22.854  0.00  0.00    +0.059 C 
BRANCH  23  25
ATOM     24  S   UNL     1      35.137 -20.696 -20.573  0.00  0.00    -0.091 S 
ATOM     25  C   UNL     1      34.258 -19.798 -21.736  0.00  0.00    +0.012 C 
ATOM     26  C   UNL     1      32.903 -19.823 -21.493  0.00  0.00    +0.003 C 
ATOM     27  C   UNL     1      33.703 -21.123 -19.741  0.00  0.00    +0.029 C 
ATOM     28  C   UNL     1      32.581 -20.592 -20.337  0.00  0.00    +0.007 C 
BRANCH  27  30
ATOM     29  F   UNL     1      34.078 -24.325 -15.194  0.00  0.00    -0.204 F 
ATOM     30  C   UNL     1      33.800 -21.953 -18.563  0.00  0.00    +0.006 C 
ATOM     31  C   UNL     1      35.020 -22.080 -17.897  0.00  0.00    +0.003 C 
ATOM     32  C   UNL     1      32.675 -22.628 -18.090  0.00  0.00    +0.003 C 
ATOM     33  C   UNL     1      35.114 -22.881 -16.760  0.00  0.00    +0.030 C 
ATOM     34  C   UNL     1      32.769 -23.429 -16.952  0.00  0.00    +0.030 C 
ATOM     35  C   UNL     1      33.988 -23.556 -16.287  0.00  0.00    +0.140 C 
ENDBRANCH  27  30
ENDBRANCH  23  25
ENDBRANCH   4  23
TORSDOF 9
ENDMDL
MODEL 7
REMARK VINA RESULT:     -10.3     10.676     15.573
REMARK  Name = 24812758
REMARK  9 active torsions:
REMARK  status: ('A' for Active; 'I' for Inactive)
REMARK    1  A    between atoms: C_1  and  C_11
REMARK    2  A    between atoms: C_4  and  C_23
REMARK    3  A    between atoms: C_9  and  O_14
REMARK    4  A    between atoms: C_10  and  O_16
REMARK    5  A    between atoms: C_12  and  O_18
REMARK    6  A    between atoms: C_13  and  C_20
REMARK    7  A    between atoms: C_20  and  O_21
REMARK    8  A    between atoms: C_23  and  C_25
REMARK    9  A    between atoms: C_27  and  C_30
REMARK                            x       y       z     vdW  Elec       q    Type
REMARK                         _______ _______ _______ _____ _____    ______ ____
ROOT
ATOM      1  C   UNL     1      33.661  -9.032 -25.084  0.00  0.00    +0.007 C 
ATOM      2  C   UNL     1      33.031 -10.262 -24.895  0.00  0.00    -0.006 C 
ATOM      3  C   UNL     1      34.577  -8.869 -26.123  0.00  0.00    -0.002 C 
ATOM      4  C   UNL     1      33.317 -11.330 -25.745  0.00  0.00    -0.021 C 
ATOM      5  C   UNL     1      34.233 -11.167 -26.784  0.00  0.00    -0.025 C 
ATOM      6  C   UNL     1      34.863  -9.937 -26.973  0.00  0.00    -0.005 C 
ATOM      7  C   UNL     1      34.556 -12.295 -27.708  0.00  0.00    +0.031 C 
ENDROOT
BRANCH   1  11
ATOM      8  O   UNL     1      33.115  -8.407 -22.853  0.00  0.00    -0.347 OA
ATOM      9  C   UNL     1      32.137  -7.060 -24.642  0.00  0.00    +0.171 C 
ATOM     10  C   UNL     1      31.744  -5.996 -23.614  0.00  0.00    +0.169 C 
ATOM     11  C   UNL     1      33.349  -7.871 -24.159  0.00  0.00    +0.167 C 
ATOM     12  C   UNL     1      31.644  -6.589 -22.210  0.00  0.00    +0.169 C 
ATOM     13  C   UNL     1      32.901  -7.393 -21.870  0.00  0.00    +0.174 C 
BRANCH   9  14
ATOM     14  O   UNL     1      32.479  -6.416 -25.870  0.00  0.00    -0.379 OA
ATOM     15  H   UNL     1      32.600  -7.084 -26.563  0.00  0.00    +0.211 HD
ENDBRANCH   9  14
BRANCH  10  16
ATOM     16  O   UNL     1      30.467  -5.455 -23.956  0.00  0.00    -0.379 OA
ATOM     17  H   UNL     1      30.148  -5.868 -24.774  0.00  0.00    +0.211 HD
ENDBRANCH  10  16
BRANCH  12  18
ATOM     18  O   UNL     1      31.490  -5.536 -21.263  0.00  0.00    -0.379 OA
ATOM     19  H   UNL     1      30.680  -5.680 -20.748  0.00  0.00    +0.211 HD
ENDBRANCH  12  18
BRANCH  13  20
ATOM     20  C   UNL     1      32.779  -8.086 -20.517  0.00  0.00    +0.169 C 
BRANCH  20  21
ATOM     21  O   UNL     1      33.344  -7.245 -19.526  0.00  0.00    -0.379 OA
ATOM     22  H   UNL     1      34.260  -7.034 -19.765  0.00  0.00    +0.211 HD
ENDBRANCH  20  21
ENDBRANCH  13  20
ENDBRANCH   1  11
BRANCH   4  23
ATOM     23  C   UNL     1      32.630 -12.637 -25.524  0.00  0.00    +0.059 C 
BRANCH  23  25
ATOM     24  S   UNL     1      33.380 -15.177 -24.650  0.00  0.00    -0.091 S 
ATOM     25  C   UNL     1      33.258 -13.482 -24.436  0.00  0.00    +0.012 C 
ATOM     26  C   UNL     1      33.782 -13.075 -23.229  0.00  0.00    +0.003 C 
ATOM     27  C   UNL     1      34.133 -15.370 -23.124  0.00  0.00    +0.029 C 
ATOM     28  C   UNL     1      34.288 -14.169 -22.469  0.00  0.00    +0.007 C 
BRANCH  27  30
ATOM     29  F   UNL     1      35.590 -20.488 -21.467  0.00  0.00    -0.204 F 
ATOM     30  C   UNL     1      34.511 -16.696 -22.695  0.00  0.00    +0.006 C 
ATOM     31  C   UNL     1      34.472 -17.759 -23.597  0.00  0.00    +0.003 C 
ATOM     32  C   UNL     1      34.914 -16.915 -21.377  0.00  0.00    +0.003 C 
ATOM     33  C   UNL     1      34.837 -19.040 -23.183  0.00  0.00    +0.030 C 
ATOM     34  C   UNL     1      35.278 -18.195 -20.963  0.00  0.00    +0.030 C 
ATOM     35  C   UNL     1      35.240 -19.258 -21.866  0.00  0.00    +0.140 C 
ENDBRANCH  27  30
ENDBRANCH  23  25
ENDBRANCH   4  23
TORSDOF 9
ENDMDL
MODEL 8
REMARK VINA RESULT:     -10.3      2.596      4.698
REMARK  Name = 24812758
REMARK  9 active torsions:
REMARK  status: ('A' for Active; 'I' for Inactive)
REMARK    1  A    between atoms: C_1  and  C_11
REMARK    2  A    between atoms: C_4  and  C_23
REMARK    3  A    between atoms: C_9  and  O_14
REMARK    4  A    between atoms: C_10  and  O_16
REMARK    5  A    between atoms: C_12  and  O_18
REMARK    6  A    between atoms: C_13  and  C_20
REMARK    7  A    between atoms: C_20  and  O_21
REMARK    8  A    between atoms: C_23  and  C_25
REMARK    9  A    between atoms: C_27  and  C_30
REMARK                            x       y       z     vdW  Elec       q    Type
REMARK                         _______ _______ _______ _____ _____    ______ ____
ROOT
ATOM      1  C   UNL     1      34.133 -22.467 -17.888  0.00  0.00    +0.007 C 
ATOM      2  C   UNL     1      35.044 -21.951 -18.808  0.00  0.00    -0.006 C 
ATOM      3  C   UNL     1      32.769 -22.211 -18.037  0.00  0.00    -0.002 C 
ATOM      4  C   UNL     1      34.594 -21.177 -19.878  0.00  0.00    -0.021 C 
ATOM      5  C   UNL     1      33.230 -20.921 -20.027  0.00  0.00    -0.025 C 
ATOM      6  C   UNL     1      32.319 -21.437 -19.106  0.00  0.00    -0.005 C 
ATOM      7  C   UNL     1      32.723 -20.096 -21.164  0.00  0.00    +0.031 C 
ENDROOT
BRANCH   1  11
ATOM      8  O   UNL     1      33.555 -23.403 -15.777  0.00  0.00    -0.347 OA
ATOM      9  C   UNL     1      35.880 -22.711 -16.074  0.00  0.00    +0.171 C 
ATOM     10  C   UNL     1      36.262 -23.484 -14.808  0.00  0.00    +0.169 C 
ATOM     11  C   UNL     1      34.623 -23.308 -16.725  0.00  0.00    +0.167 C 
ATOM     12  C   UNL     1      35.055 -23.683 -13.893  0.00  0.00    +0.169 C 
ATOM     13  C   UNL     1      33.869 -24.253 -14.673  0.00  0.00    +0.174 C 
BRANCH   9  14
ATOM     14  O   UNL     1      36.957 -22.787 -17.007  0.00  0.00    -0.379 OA
ATOM     15  H   UNL     1      37.194 -23.716 -17.153  0.00  0.00    +0.211 HD
ENDBRANCH   9  14
BRANCH  10  16
ATOM     16  O   UNL     1      37.249 -22.749 -14.084  0.00  0.00    -0.379 OA
ATOM     17  H   UNL     1      38.066 -23.270 -14.030  0.00  0.00    +0.211 HD
ENDBRANCH  10  16
BRANCH  12  18
ATOM     18  O   UNL     1      35.403 -24.582 -12.844  0.00  0.00    -0.379 OA
ATOM     19  H   UNL     1      36.360 -24.743 -12.860  0.00  0.00    +0.211 HD
ENDBRANCH  12  18
BRANCH  13  20
ATOM     20  C   UNL     1      32.619 -24.358 -13.806  0.00  0.00    +0.169 C 
BRANCH  20  21
ATOM     21  O   UNL     1      32.702 -23.389 -12.776  0.00  0.00    -0.379 OA
ATOM     22  H   UNL     1      33.540 -23.494 -12.300  0.00  0.00    +0.211 HD
ENDBRANCH  20  21
ENDBRANCH  13  20
ENDBRANCH   1  11
BRANCH   4  23
ATOM     23  C   UNL     1      35.588 -20.635 -20.851  0.00  0.00    +0.059 C 
BRANCH  23  25
ATOM     24  S   UNL     1      34.752 -19.038 -22.980  0.00  0.00    -0.091 S 
ATOM     25  C   UNL     1      35.256 -19.247 -21.356  0.00  0.00    +0.012 C 
ATOM     26  C   UNL     1      35.295 -18.053 -20.670  0.00  0.00    +0.003 C 
ATOM     27  C   UNL     1      34.587 -17.348 -22.768  0.00  0.00    +0.029 C 
ATOM     28  C   UNL     1      34.907 -16.952 -21.488  0.00  0.00    +0.007 C 
BRANCH  27  30
ATOM     29  F   UNL     1      32.914 -14.244 -27.084  0.00  0.00    -0.204 F 
ATOM     30  C   UNL     1      34.153 -16.543 -23.886  0.00  0.00    +0.006 C 
ATOM     31  C   UNL     1      34.083 -17.102 -25.163  0.00  0.00    +0.003 C 
ATOM     32  C   UNL     1      33.804 -15.207 -23.691  0.00  0.00    +0.003 C 
ATOM     33  C   UNL     1      33.665 -16.326 -26.243  0.00  0.00    +0.030 C 
ATOM     34  C   UNL     1      33.386 -14.430 -24.771  0.00  0.00    +0.030 C 
ATOM     35  C   UNL     1      33.316 -14.990 -26.047  0.00  0.00    +0.140 C 
ENDBRANCH  27  30
ENDBRANCH  23  25
ENDBRANCH   4  23
TORSDOF 9
ENDMDL
MODEL 9
REMARK VINA RESULT:     -10.2     10.131     15.089
REMARK  Name = 24812758
REMARK  9 active torsions:
REMARK  status: ('A' for Active; 'I' for Inactive)
REMARK    1  A    between atoms: C_1  and  C_11
REMARK    2  A    between atoms: C_4  and  C_23
REMARK    3  A    between atoms: C_9  and  O_14
REMARK    4  A    between atoms: C_10  and  O_16
REMARK    5  A    between atoms: C_12  and  O_18
REMARK    6  A    between atoms: C_13  and  C_20
REMARK    7  A    between atoms: C_20  and  O_21
REMARK    8  A    between atoms: C_23  and  C_25
REMARK    9  A    between atoms: C_27  and  C_30
REMARK                            x       y       z     vdW  Elec       q    Type
REMARK                         _______ _______ _______ _____ _____    ______ ____
ROOT
ATOM      1  C   UNL     1      33.700  -9.510 -24.373  0.00  0.00    +0.007 C 
ATOM      2  C   UNL     1      32.809 -10.445 -24.898  0.00  0.00    -0.006 C 
ATOM      3  C   UNL     1      34.965  -9.356 -24.940  0.00  0.00    -0.002 C 
ATOM      4  C   UNL     1      33.182 -11.228 -25.990  0.00  0.00    -0.021 C 
ATOM      5  C   UNL     1      34.447 -11.074 -26.558  0.00  0.00    -0.025 C 
ATOM      6  C   UNL     1      35.338 -10.138 -26.033  0.00  0.00    -0.005 C 
ATOM      7  C   UNL     1      34.870 -11.899 -27.729  0.00  0.00    +0.031 C 
ENDROOT
BRANCH   1  11
ATOM      8  O   UNL     1      32.639  -9.515 -22.242  0.00  0.00    -0.347 OA
ATOM      9  C   UNL     1      32.377  -7.498 -23.596  0.00  0.00    +0.171 C 
ATOM     10  C   UNL     1      31.851  -6.752 -22.366  0.00  0.00    +0.169 C 
ATOM     11  C   UNL     1      33.294  -8.660 -23.185  0.00  0.00    +0.167 C 
ATOM     12  C   UNL     1      31.291  -7.720 -21.327  0.00  0.00    +0.169 C 
ATOM     13  C   UNL     1      32.291  -8.840 -21.033  0.00  0.00    +0.174 C 
BRANCH   9  14
ATOM     14  O   UNL     1      33.125  -6.590 -24.405  0.00  0.00    -0.379 OA
ATOM     15  H   UNL     1      32.575  -5.820 -24.620  0.00  0.00    +0.211 HD
ENDBRANCH   9  14
BRANCH  10  16
ATOM     16  O   UNL     1      30.799  -5.870 -22.760  0.00  0.00    -0.379 OA
ATOM     17  H   UNL     1      29.949  -6.332 -22.699  0.00  0.00    +0.211 HD
ENDBRANCH  10  16
BRANCH  12  18
ATOM     18  O   UNL     1      31.014  -7.010 -20.122  0.00  0.00    -0.379 OA
ATOM     19  H   UNL     1      31.849  -6.745 -19.704  0.00  0.00    +0.211 HD
ENDBRANCH  12  18
BRANCH  13  20
ATOM     20  C   UNL     1      31.711  -9.880 -20.079  0.00  0.00    +0.169 C 
BRANCH  20  21
ATOM     21  O   UNL     1      32.141  -9.576 -18.764  0.00  0.00    -0.379 OA
ATOM     22  H   UNL     1      31.489  -8.999 -18.336  0.00  0.00    +0.211 HD
ENDBRANCH  20  21
ENDBRANCH  13  20
ENDBRANCH   1  11
BRANCH   4  23
ATOM     23  C   UNL     1      32.212 -12.223 -26.536  0.00  0.00    +0.059 C 
BRANCH  23  25
ATOM     24  S   UNL     1      33.253 -14.138 -24.796  0.00  0.00    -0.091 S 
ATOM     25  C   UNL     1      32.624 -13.664 -26.317  0.00  0.00    +0.012 C 
ATOM     26  C   UNL     1      32.565 -14.717 -27.202  0.00  0.00    +0.003 C 
ATOM     27  C   UNL     1      33.449 -15.755 -25.321  0.00  0.00    +0.029 C 
ATOM     28  C   UNL     1      33.043 -15.929 -26.626  0.00  0.00    +0.007 C 
BRANCH  27  30
ATOM     29  F   UNL     1      35.543 -19.507 -21.771  0.00  0.00    -0.204 F 
ATOM     30  C   UNL     1      33.992 -16.727 -24.401  0.00  0.00    +0.006 C 
ATOM     31  C   UNL     1      33.865 -18.090 -24.671  0.00  0.00    +0.003 C 
ATOM     32  C   UNL     1      34.642 -16.304 -23.242  0.00  0.00    +0.003 C 
ATOM     33  C   UNL     1      34.389 -19.029 -23.783  0.00  0.00    +0.030 C 
ATOM     34  C   UNL     1      35.166 -17.243 -22.354  0.00  0.00    +0.030 C 
ATOM     35  C   UNL     1      35.040 -18.606 -22.624  0.00  0.00    +0.140 C 
ENDBRANCH  27  30
ENDBRANCH  23  25
ENDBRANCH   4  23
TORSDOF 9
ENDMDL
