MODEL 1
REMARK VINA RESULT:     -13.0      0.000      0.000
REMARK  Name = 24875320
REMARK  6 active torsions:
REMARK  status: ('A' for Active; 'I' for Inactive)
REMARK    1  A    between atoms: C_1  and  N_22
REMARK    2  A    between atoms: C_3  and  C_10
REMARK    3  A    between atoms: N_9  and  C_12
REMARK    4  A    between atoms: C_14  and  C_21
REMARK    5  A    between atoms: N_22  and  C_25
REMARK    6  A    between atoms: C_28  and  C_32
REMARK                            x       y       z     vdW  Elec       q    Type
REMARK                         _______ _______ _______ _____ _____    ______ ____
ROOT
ATOM      1  C   UNL     1      31.300 -22.943 -16.635  0.00  0.00    +0.044 C 
ATOM      2  C   UNL     1      30.003 -23.021 -16.127  0.00  0.00    -0.008 C 
ATOM      3  C   UNL     1      32.173 -23.748 -14.531  0.00  0.00    +0.055 C 
ATOM      4  C   UNL     1      32.384 -23.306 -15.837  0.00  0.00    +0.019 C 
ATOM      5  C   UNL     1      29.791 -23.462 -14.821  0.00  0.00    -0.003 C 
ATOM      6  C   UNL     1      30.876 -23.825 -14.022  0.00  0.00    +0.004 C 
ATOM      7  C   UNL     1      28.823 -22.639 -16.960  0.00  0.00    +0.032 C 
ENDROOT
BRANCH   3  10
ATOM      8  O   UNL     1      33.105 -24.822 -12.690  0.00  0.00    -0.270 OA
ATOM      9  N   UNL     1      34.553 -23.638 -14.106  0.00  0.00    -0.280 N 
ATOM     10  C   UNL     1      33.304 -24.125 -13.699  0.00  0.00    +0.250 C 
ATOM     11  H   UNL     1      34.554 -23.098 -14.930  0.00  0.00    +0.155 HD
BRANCH   9  12
ATOM     12  C   UNL     1      35.815 -23.820 -13.488  0.00  0.00    +0.050 C 
ATOM     13  C   UNL     1      36.841 -24.472 -14.173  0.00  0.00    +0.019 C 
ATOM     14  C   UNL     1      38.083 -24.651 -13.565  0.00  0.00    +0.073 C 
ATOM     15  C   UNL     1      36.032 -23.347 -12.194  0.00  0.00    +0.015 C 
ATOM     16  C   UNL     1      38.299 -24.177 -12.270  0.00  0.00    +0.004 C 
ATOM     17  C   UNL     1      37.274 -23.526 -11.586  0.00  0.00    +0.001 C 
BRANCH  14  21
ATOM     18  F   UNL     1      39.363 -24.893 -15.570  0.00  0.00    -0.166 F 
ATOM     19  F   UNL     1      40.400 -25.226 -13.695  0.00  0.00    -0.166 F 
ATOM     20  F   UNL     1      38.961 -26.690 -14.414  0.00  0.00    -0.166 F 
ATOM     21  C   UNL     1      39.179 -25.347 -14.296  0.00  0.00    +0.419 C 
ENDBRANCH  14  21
ENDBRANCH   9  12
ENDBRANCH   3  10
BRANCH   1  22
ATOM     22  N   UNL     1      31.533 -22.500 -17.955  0.00  0.00    -0.312 N 
ATOM     23  H   UNL     1      30.726 -22.493 -18.520  0.00  0.00    +0.152 HD
BRANCH  22  25
ATOM     24  N   UNL     1      35.066 -22.309 -19.011  0.00  0.00    -0.241 NA
ATOM     25  C   UNL     1      32.693 -22.064 -18.623  0.00  0.00    +0.068 C 
ATOM     26  C   UNL     1      32.647 -21.006 -19.524  0.00  0.00    +0.022 C 
ATOM     27  C   UNL     1      33.916 -22.677 -18.404  0.00  0.00    +0.113 C 
ATOM     28  C   UNL     1      33.810 -20.599 -20.170  0.00  0.00    +0.073 C 
ATOM     29  C   UNL     1      34.983 -21.277 -19.881  0.00  0.00    +0.103 C 
BRANCH  28  32
ATOM     30  O   UNL     1      32.993 -19.467 -22.067  0.00  0.00    -0.270 OA
ATOM     31  N   UNL     1      34.700 -18.458 -20.915  0.00  0.00    -0.325 N 
ATOM     32  C   UNL     1      33.795 -19.498 -21.115  0.00  0.00    +0.244 C 
ATOM     33  H   UNL     1      34.718 -17.694 -21.537  0.00  0.00    +0.145 HD
ATOM     34  H   UNL     1      35.321 -18.486 -20.152  0.00  0.00    +0.145 HD
ENDBRANCH  28  32
ENDBRANCH  22  25
ENDBRANCH   1  22
TORSDOF 6
ENDMDL
MODEL 2
REMARK VINA RESULT:     -12.9      4.854      9.607
REMARK  Name = 24875320
REMARK  6 active torsions:
REMARK  status: ('A' for Active; 'I' for Inactive)
REMARK    1  A    between atoms: C_1  and  N_22
REMARK    2  A    between atoms: C_3  and  C_10
REMARK    3  A    between atoms: N_9  and  C_12
REMARK    4  A    between atoms: C_14  and  C_21
REMARK    5  A    between atoms: N_22  and  C_25
REMARK    6  A    between atoms: C_28  and  C_32
REMARK                            x       y       z     vdW  Elec       q    Type
REMARK                         _______ _______ _______ _____ _____    ______ ____
ROOT
ATOM      1  C   UNL     1      35.296 -22.625 -16.698  0.00  0.00    +0.044 C 
ATOM      2  C   UNL     1      34.021 -23.187 -16.655  0.00  0.00    -0.008 C 
ATOM      3  C   UNL     1      34.815 -21.698 -18.877  0.00  0.00    +0.055 C 
ATOM      4  C   UNL     1      35.694 -21.881 -17.809  0.00  0.00    +0.019 C 
ATOM      5  C   UNL     1      33.142 -23.005 -17.723  0.00  0.00    -0.003 C 
ATOM      6  C   UNL     1      33.539 -22.261 -18.834  0.00  0.00    +0.004 C 
ATOM      7  C   UNL     1      33.568 -23.988 -15.477  0.00  0.00    +0.032 C 
ENDROOT
BRANCH   3  10
ATOM      8  O   UNL     1      36.331 -21.160 -20.556  0.00  0.00    -0.270 OA
ATOM      9  N   UNL     1      34.333 -19.934 -20.462  0.00  0.00    -0.280 N 
ATOM     10  C   UNL     1      35.229 -20.924 -20.035  0.00  0.00    +0.250 C 
ATOM     11  H   UNL     1      33.495 -19.865 -19.949  0.00  0.00    +0.155 HD
BRANCH   9  12
ATOM     12  C   UNL     1      34.475 -19.020 -21.535  0.00  0.00    +0.050 C 
ATOM     13  C   UNL     1      34.074 -19.384 -22.821  0.00  0.00    +0.019 C 
ATOM     14  C   UNL     1      34.214 -18.484 -23.877  0.00  0.00    +0.073 C 
ATOM     15  C   UNL     1      35.015 -17.754 -21.306  0.00  0.00    +0.015 C 
ATOM     16  C   UNL     1      34.754 -17.218 -23.647  0.00  0.00    +0.004 C 
ATOM     17  C   UNL     1      35.154 -16.854 -22.361  0.00  0.00    +0.001 C 
BRANCH  14  21
ATOM     18  F   UNL     1      34.257 -18.042 -26.227  0.00  0.00    -0.166 F 
ATOM     19  F   UNL     1      34.197 -20.123 -25.617  0.00  0.00    -0.166 F 
ATOM     20  F   UNL     1      32.429 -18.876 -25.397  0.00  0.00    -0.166 F 
ATOM     21  C   UNL     1      33.786 -18.872 -25.251  0.00  0.00    +0.419 C 
ENDBRANCH  14  21
ENDBRANCH   9  12
ENDBRANCH   3  10
BRANCH   1  22
ATOM     22  N   UNL     1      36.199 -22.799 -15.625  0.00  0.00    -0.312 N 
ATOM     23  H   UNL     1      36.845 -22.062 -15.528  0.00  0.00    +0.152 HD
BRANCH  22  25
ATOM     24  N   UNL     1      37.067 -26.070 -14.148  0.00  0.00    -0.241 NA
ATOM     25  C   UNL     1      36.356 -23.819 -14.668  0.00  0.00    +0.068 C 
ATOM     26  C   UNL     1      35.980 -23.623 -13.344  0.00  0.00    +0.022 C 
ATOM     27  C   UNL     1      36.889 -25.049 -15.016  0.00  0.00    +0.113 C 
ATOM     28  C   UNL     1      36.149 -24.649 -12.421  0.00  0.00    +0.073 C 
ATOM     29  C   UNL     1      36.691 -25.843 -12.869  0.00  0.00    +0.103 C 
BRANCH  28  32
ATOM     30  O   UNL     1      34.977 -25.259 -10.471  0.00  0.00    -0.270 OA
ATOM     31  N   UNL     1      36.328 -23.412 -10.330  0.00  0.00    -0.325 N 
ATOM     32  C   UNL     1      35.766 -24.477 -11.031  0.00  0.00    +0.244 C 
ATOM     33  H   UNL     1      36.092 -23.264  -9.386  0.00  0.00    +0.145 HD
ATOM     34  H   UNL     1      36.962 -22.807 -10.779  0.00  0.00    +0.145 HD
ENDBRANCH  28  32
ENDBRANCH  22  25
ENDBRANCH   1  22
TORSDOF 6
ENDMDL
MODEL 3
REMARK VINA RESULT:     -12.7      4.952      9.362
REMARK  Name = 24875320
REMARK  6 active torsions:
REMARK  status: ('A' for Active; 'I' for Inactive)
REMARK    1  A    between atoms: C_1  and  N_22
REMARK    2  A    between atoms: C_3  and  C_10
REMARK    3  A    between atoms: N_9  and  C_12
REMARK    4  A    between atoms: C_14  and  C_21
REMARK    5  A    between atoms: N_22  and  C_25
REMARK    6  A    between atoms: C_28  and  C_32
REMARK                            x       y       z     vdW  Elec       q    Type
REMARK                         _______ _______ _______ _____ _____    ______ ____
ROOT
ATOM      1  C   UNL     1      34.669 -22.883 -16.600  0.00  0.00    +0.044 C 
ATOM      2  C   UNL     1      33.316 -23.220 -16.594  0.00  0.00    -0.008 C 
ATOM      3  C   UNL     1      34.388 -21.796 -18.741  0.00  0.00    +0.055 C 
ATOM      4  C   UNL     1      35.205 -22.172 -17.674  0.00  0.00    +0.019 C 
ATOM      5  C   UNL     1      32.499 -22.845 -17.661  0.00  0.00    -0.003 C 
ATOM      6  C   UNL     1      33.035 -22.134 -18.734  0.00  0.00    +0.004 C 
ATOM      7  C   UNL     1      32.715 -23.980 -15.457  0.00  0.00    +0.032 C 
ENDROOT
BRANCH   3  10
ATOM      8  O   UNL     1      36.092 -21.332 -20.255  0.00  0.00    -0.270 OA
ATOM      9  N   UNL     1      34.131 -20.051 -20.398  0.00  0.00    -0.280 N 
ATOM     10  C   UNL     1      34.948 -21.056 -19.860  0.00  0.00    +0.250 C 
ATOM     11  H   UNL     1      33.246 -19.949 -19.979  0.00  0.00    +0.155 HD
BRANCH   9  12
ATOM     12  C   UNL     1      34.414 -19.162 -21.464  0.00  0.00    +0.050 C 
ATOM     13  C   UNL     1      33.978 -19.458 -22.755  0.00  0.00    +0.019 C 
ATOM     14  C   UNL     1      34.256 -18.583 -23.804  0.00  0.00    +0.073 C 
ATOM     15  C   UNL     1      35.130 -17.989 -21.222  0.00  0.00    +0.015 C 
ATOM     16  C   UNL     1      34.973 -17.410 -23.562  0.00  0.00    +0.004 C 
ATOM     17  C   UNL     1      35.409 -17.114 -22.271  0.00  0.00    +0.001 C 
BRANCH  14  21
ATOM     18  F   UNL     1      32.432 -18.888 -25.321  0.00  0.00    -0.166 F 
ATOM     19  F   UNL     1      34.250 -18.026 -26.130  0.00  0.00    -0.166 F 
ATOM     20  F   UNL     1      34.190 -20.135 -25.603  0.00  0.00    -0.166 F 
ATOM     21  C   UNL     1      33.790 -18.899 -25.184  0.00  0.00    +0.419 C 
ENDBRANCH  14  21
ENDBRANCH   9  12
ENDBRANCH   3  10
BRANCH   1  22
ATOM     22  N   UNL     1      35.511 -23.253 -15.529  0.00  0.00    -0.312 N 
ATOM     23  H   UNL     1      35.642 -22.540 -14.863  0.00  0.00    +0.152 HD
BRANCH  22  25
ATOM     24  N   UNL     1      36.148 -26.840 -14.929  0.00  0.00    -0.241 NA
ATOM     25  C   UNL     1      36.201 -24.442 -15.227  0.00  0.00    +0.068 C 
ATOM     26  C   UNL     1      37.560 -24.428 -14.935  0.00  0.00    +0.022 C 
ATOM     27  C   UNL     1      35.547 -25.663 -15.211  0.00  0.00    +0.113 C 
ATOM     28  C   UNL     1      38.215 -25.619 -14.641  0.00  0.00    +0.073 C 
ATOM     29  C   UNL     1      37.471 -26.788 -14.651  0.00  0.00    +0.103 C 
BRANCH  28  32
ATOM     30  O   UNL     1      40.185 -24.688 -13.746  0.00  0.00    -0.270 OA
ATOM     31  N   UNL     1      40.363 -26.767 -14.698  0.00  0.00    -0.325 N 
ATOM     32  C   UNL     1      39.634 -25.638 -14.333  0.00  0.00    +0.244 C 
ATOM     33  H   UNL     1      41.327 -26.815 -14.504  0.00  0.00    +0.145 HD
ATOM     34  H   UNL     1      39.914 -27.518 -15.149  0.00  0.00    +0.145 HD
ENDBRANCH  28  32
ENDBRANCH  22  25
ENDBRANCH   1  22
TORSDOF 6
ENDMDL
MODEL 4
REMARK VINA RESULT:     -12.4      3.906      7.845
REMARK  Name = 24875320
REMARK  6 active torsions:
REMARK  status: ('A' for Active; 'I' for Inactive)
REMARK    1  A    between atoms: C_1  and  N_22
REMARK    2  A    between atoms: C_3  and  C_10
REMARK    3  A    between atoms: N_9  and  C_12
REMARK    4  A    between atoms: C_14  and  C_21
REMARK    5  A    between atoms: N_22  and  C_25
REMARK    6  A    between atoms: C_28  and  C_32
REMARK                            x       y       z     vdW  Elec       q    Type
REMARK                         _______ _______ _______ _____ _____    ______ ____
ROOT
ATOM      1  C   UNL     1      35.156 -24.235 -15.018  0.00  0.00    +0.044 C 
ATOM      2  C   UNL     1      36.432 -24.549 -14.552  0.00  0.00    -0.008 C 
ATOM      3  C   UNL     1      36.113 -22.659 -16.579  0.00  0.00    +0.055 C 
ATOM      4  C   UNL     1      34.996 -23.290 -16.031  0.00  0.00    +0.019 C 
ATOM      5  C   UNL     1      37.549 -23.918 -15.099  0.00  0.00    -0.003 C 
ATOM      6  C   UNL     1      37.390 -22.973 -16.112  0.00  0.00    +0.004 C 
ATOM      7  C   UNL     1      36.632 -25.558 -13.468  0.00  0.00    +0.032 C 
ENDROOT
BRANCH   3  10
ATOM      8  O   UNL     1      36.757 -20.736 -17.718  0.00  0.00    -0.270 OA
ATOM      9  N   UNL     1      34.843 -21.860 -18.477  0.00  0.00    -0.280 N 
ATOM     10  C   UNL     1      35.947 -21.673 -17.634  0.00  0.00    +0.250 C 
ATOM     11  H   UNL     1      34.289 -22.652 -18.288  0.00  0.00    +0.155 HD
BRANCH   9  12
ATOM     12  C   UNL     1      34.418 -21.057 -19.565  0.00  0.00    +0.050 C 
ATOM     13  C   UNL     1      35.349 -20.313 -20.290  0.00  0.00    +0.019 C 
ATOM     14  C   UNL     1      34.931 -19.523 -21.360  0.00  0.00    +0.073 C 
ATOM     15  C   UNL     1      33.067 -21.010 -19.911  0.00  0.00    +0.015 C 
ATOM     16  C   UNL     1      33.580 -19.477 -21.706  0.00  0.00    +0.004 C 
ATOM     17  C   UNL     1      32.649 -20.220 -20.981  0.00  0.00    +0.001 C 
BRANCH  14  21
ATOM     18  F   UNL     1      37.214 -18.902 -21.715  0.00  0.00    -0.166 F 
ATOM     19  F   UNL     1      35.943 -19.025 -23.468  0.00  0.00    -0.166 F 
ATOM     20  F   UNL     1      35.696 -17.385 -22.062  0.00  0.00    -0.166 F 
ATOM     21  C   UNL     1      35.926 -18.728 -22.135  0.00  0.00    +0.419 C 
ENDBRANCH  14  21
ENDBRANCH   9  12
ENDBRANCH   3  10
BRANCH   1  22
ATOM     22  N   UNL     1      34.014 -24.865 -14.476  0.00  0.00    -0.312 N 
ATOM     23  H   UNL     1      34.201 -25.738 -14.062  0.00  0.00    +0.152 HD
BRANCH  22  25
ATOM     24  N   UNL     1      30.592 -24.419 -13.160  0.00  0.00    -0.241 NA
ATOM     25  C   UNL     1      32.659 -24.488 -14.411  0.00  0.00    +0.068 C 
ATOM     26  C   UNL     1      32.045 -23.836 -15.475  0.00  0.00    +0.022 C 
ATOM     27  C   UNL     1      31.896 -24.754 -13.286  0.00  0.00    +0.113 C 
ATOM     28  C   UNL     1      30.705 -23.475 -15.383  0.00  0.00    +0.073 C 
ATOM     29  C   UNL     1      30.029 -23.787 -14.214  0.00  0.00    +0.103 C 
BRANCH  28  32
ATOM     30  O   UNL     1      30.675 -22.282 -17.413  0.00  0.00    -0.270 OA
ATOM     31  N   UNL     1      28.644 -22.746 -16.456  0.00  0.00    -0.325 N 
ATOM     32  C   UNL     1      30.036 -22.794 -16.476  0.00  0.00    +0.244 C 
ATOM     33  H   UNL     1      28.156 -22.292 -17.181  0.00  0.00    +0.145 HD
ATOM     34  H   UNL     1      28.147 -23.166 -15.717  0.00  0.00    +0.145 HD
ENDBRANCH  28  32
ENDBRANCH  22  25
ENDBRANCH   1  22
TORSDOF 6
ENDMDL
MODEL 5
REMARK VINA RESULT:     -12.4      4.896      9.263
REMARK  Name = 24875320
REMARK  6 active torsions:
REMARK  status: ('A' for Active; 'I' for Inactive)
REMARK    1  A    between atoms: C_1  and  N_22
REMARK    2  A    between atoms: C_3  and  C_10
REMARK    3  A    between atoms: N_9  and  C_12
REMARK    4  A    between atoms: C_14  and  C_21
REMARK    5  A    between atoms: N_22  and  C_25
REMARK    6  A    between atoms: C_28  and  C_32
REMARK                            x       y       z     vdW  Elec       q    Type
REMARK                         _______ _______ _______ _____ _____    ______ ____
ROOT
ATOM      1  C   UNL     1      34.216 -22.895 -17.317  0.00  0.00    +0.044 C 
ATOM      2  C   UNL     1      35.539 -22.754 -16.897  0.00  0.00    -0.008 C 
ATOM      3  C   UNL     1      34.615 -21.313 -19.100  0.00  0.00    +0.055 C 
ATOM      4  C   UNL     1      33.755 -22.174 -18.418  0.00  0.00    +0.019 C 
ATOM      5  C   UNL     1      36.400 -21.893 -17.577  0.00  0.00    -0.003 C 
ATOM      6  C   UNL     1      35.938 -21.172 -18.679  0.00  0.00    +0.004 C 
ATOM      7  C   UNL     1      36.061 -23.515 -15.721  0.00  0.00    +0.032 C 
ENDROOT
BRANCH   3  10
ATOM      8  O   UNL     1      33.015 -20.827 -20.717  0.00  0.00    -0.270 OA
ATOM      9  N   UNL     1      35.007 -19.588 -20.751  0.00  0.00    -0.280 N 
ATOM     10  C   UNL     1      34.134 -20.561 -20.247  0.00  0.00    +0.250 C 
ATOM     11  H   UNL     1      35.862 -19.490 -20.272  0.00  0.00    +0.155 HD
BRANCH   9  12
ATOM     12  C   UNL     1      34.823 -18.727 -21.861  0.00  0.00    +0.050 C 
ATOM     13  C   UNL     1      34.406 -19.247 -23.087  0.00  0.00    +0.019 C 
ATOM     14  C   UNL     1      34.224 -18.400 -24.180  0.00  0.00    +0.073 C 
ATOM     15  C   UNL     1      35.058 -17.358 -21.729  0.00  0.00    +0.015 C 
ATOM     16  C   UNL     1      34.460 -17.031 -24.047  0.00  0.00    +0.004 C 
ATOM     17  C   UNL     1      34.876 -16.511 -22.822  0.00  0.00    +0.001 C 
BRANCH  14  21
ATOM     18  F   UNL     1      32.422 -19.032 -25.620  0.00  0.00    -0.166 F 
ATOM     19  F   UNL     1      34.200 -18.225 -26.564  0.00  0.00    -0.166 F 
ATOM     20  F   UNL     1      34.239 -20.222 -25.706  0.00  0.00    -0.166 F 
ATOM     21  C   UNL     1      33.779 -18.955 -25.489  0.00  0.00    +0.419 C 
ENDBRANCH  14  21
ENDBRANCH   9  12
ENDBRANCH   3  10
BRANCH   1  22
ATOM     22  N   UNL     1      33.332 -23.763 -16.640  0.00  0.00    -0.312 N 
ATOM     23  H   UNL     1      33.539 -24.717 -16.766  0.00  0.00    +0.152 HD
BRANCH  22  25
ATOM     24  N   UNL     1      31.274 -23.380 -13.598  0.00  0.00    -0.241 NA
ATOM     25  C   UNL     1      32.211 -23.530 -15.821  0.00  0.00    +0.068 C 
ATOM     26  C   UNL     1      30.970 -23.230 -16.373  0.00  0.00    +0.022 C 
ATOM     27  C   UNL     1      32.309 -23.593 -14.441  0.00  0.00    +0.113 C 
ATOM     28  C   UNL     1      29.881 -23.004 -15.538  0.00  0.00    +0.073 C 
ATOM     29  C   UNL     1      30.083 -23.091 -14.170  0.00  0.00    +0.103 C 
BRANCH  28  32
ATOM     30  O   UNL     1      27.762 -21.979 -15.459  0.00  0.00    -0.270 OA
ATOM     31  N   UNL     1      28.254 -23.192 -17.342  0.00  0.00    -0.325 N 
ATOM     32  C   UNL     1      28.573 -22.689 -16.082  0.00  0.00    +0.244 C 
ATOM     33  H   UNL     1      27.376 -22.998 -17.742  0.00  0.00    +0.145 HD
ATOM     34  H   UNL     1      28.908 -23.741 -17.832  0.00  0.00    +0.145 HD
ENDBRANCH  28  32
ENDBRANCH  22  25
ENDBRANCH   1  22
TORSDOF 6
ENDMDL
MODEL 6
REMARK VINA RESULT:     -12.3      6.300     10.579
REMARK  Name = 24875320
REMARK  6 active torsions:
REMARK  status: ('A' for Active; 'I' for Inactive)
REMARK    1  A    between atoms: C_1  and  N_22
REMARK    2  A    between atoms: C_3  and  C_10
REMARK    3  A    between atoms: N_9  and  C_12
REMARK    4  A    between atoms: C_14  and  C_21
REMARK    5  A    between atoms: N_22  and  C_25
REMARK    6  A    between atoms: C_28  and  C_32
REMARK                            x       y       z     vdW  Elec       q    Type
REMARK                         _______ _______ _______ _____ _____    ______ ____
ROOT
ATOM      1  C   UNL     1      32.983 -15.664 -26.026  0.00  0.00    +0.044 C 
ATOM      2  C   UNL     1      31.951 -16.126 -26.843  0.00  0.00    -0.008 C 
ATOM      3  C   UNL     1      33.323 -17.906 -25.189  0.00  0.00    +0.055 C 
ATOM      4  C   UNL     1      33.668 -16.554 -25.198  0.00  0.00    +0.019 C 
ATOM      5  C   UNL     1      31.606 -17.477 -26.834  0.00  0.00    -0.003 C 
ATOM      6  C   UNL     1      32.291 -18.367 -26.007  0.00  0.00    +0.004 C 
ATOM      7  C   UNL     1      31.201 -15.196 -27.739  0.00  0.00    +0.032 C 
ENDROOT
BRANCH   3  10
ATOM      8  O   UNL     1      34.542 -19.853 -24.823  0.00  0.00    -0.270 OA
ATOM      9  N   UNL     1      34.078 -18.495 -22.967  0.00  0.00    -0.280 N 
ATOM     10  C   UNL     1      34.038 -18.832 -24.327  0.00  0.00    +0.250 C 
ATOM     11  H   UNL     1      33.633 -17.652 -22.721  0.00  0.00    +0.155 HD
BRANCH   9  12
ATOM     12  C   UNL     1      34.674 -19.210 -21.898  0.00  0.00    +0.050 C 
ATOM     13  C   UNL     1      33.912 -20.102 -21.144  0.00  0.00    +0.019 C 
ATOM     14  C   UNL     1      34.499 -20.805 -20.092  0.00  0.00    +0.073 C 
ATOM     15  C   UNL     1      36.023 -19.021 -21.600  0.00  0.00    +0.015 C 
ATOM     16  C   UNL     1      35.849 -20.616 -19.794  0.00  0.00    +0.004 C 
ATOM     17  C   UNL     1      36.610 -19.724 -20.548  0.00  0.00    +0.001 C 
BRANCH  14  21
ATOM     18  F   UNL     1      33.473 -22.958 -19.904  0.00  0.00    -0.166 F 
ATOM     19  F   UNL     1      34.247 -22.074 -18.081  0.00  0.00    -0.166 F 
ATOM     20  F   UNL     1      32.443 -21.273 -18.994  0.00  0.00    -0.166 F 
ATOM     21  C   UNL     1      33.685 -21.759 -19.286  0.00  0.00    +0.419 C 
ENDBRANCH  14  21
ENDBRANCH   9  12
ENDBRANCH   3  10
BRANCH   1  22
ATOM     22  N   UNL     1      33.346 -14.300 -26.022  0.00  0.00    -0.312 N 
ATOM     23  H   UNL     1      33.878 -14.030 -26.806  0.00  0.00    +0.152 HD
BRANCH  22  25
ATOM     24  N   UNL     1      33.033 -10.873 -24.681  0.00  0.00    -0.241 NA
ATOM     25  C   UNL     1      33.097 -13.250 -25.119  0.00  0.00    +0.068 C 
ATOM     26  C   UNL     1      32.684 -13.508 -23.816  0.00  0.00    +0.022 C 
ATOM     27  C   UNL     1      33.255 -11.927 -25.498  0.00  0.00    +0.113 C 
ATOM     28  C   UNL     1      32.444 -12.450 -22.946  0.00  0.00    +0.073 C 
ATOM     29  C   UNL     1      32.632 -11.163 -23.423  0.00  0.00    +0.103 C 
BRANCH  28  32
ATOM     30  O   UNL     1      32.647 -13.438 -20.818  0.00  0.00    -0.270 OA
ATOM     31  N   UNL     1      30.867 -12.029 -21.138  0.00  0.00    -0.325 N 
ATOM     32  C   UNL     1      32.012 -12.687 -21.580  0.00  0.00    +0.244 C 
ATOM     33  H   UNL     1      30.544 -12.166 -20.218  0.00  0.00    +0.145 HD
ATOM     34  H   UNL     1      30.379 -11.427 -21.746  0.00  0.00    +0.145 HD
ENDBRANCH  28  32
ENDBRANCH  22  25
ENDBRANCH   1  22
TORSDOF 6
ENDMDL
MODEL 7
REMARK VINA RESULT:     -12.2      8.264     13.169
REMARK  Name = 24875320
REMARK  6 active torsions:
REMARK  status: ('A' for Active; 'I' for Inactive)
REMARK    1  A    between atoms: C_1  and  N_22
REMARK    2  A    between atoms: C_3  and  C_10
REMARK    3  A    between atoms: N_9  and  C_12
REMARK    4  A    between atoms: C_14  and  C_21
REMARK    5  A    between atoms: N_22  and  C_25
REMARK    6  A    between atoms: C_28  and  C_32
REMARK                            x       y       z     vdW  Elec       q    Type
REMARK                         _______ _______ _______ _____ _____    ______ ____
ROOT
ATOM      1  C   UNL     1      34.622 -18.093 -23.293  0.00  0.00    +0.044 C 
ATOM      2  C   UNL     1      34.237 -18.375 -24.603  0.00  0.00    -0.008 C 
ATOM      3  C   UNL     1      34.214 -15.743 -23.680  0.00  0.00    +0.055 C 
ATOM      4  C   UNL     1      34.611 -16.777 -22.831  0.00  0.00    +0.019 C 
ATOM      5  C   UNL     1      33.840 -17.342 -25.452  0.00  0.00    -0.003 C 
ATOM      6  C   UNL     1      33.829 -16.026 -24.991  0.00  0.00    +0.004 C 
ATOM      7  C   UNL     1      34.238 -19.776 -25.124  0.00  0.00    +0.032 C 
ENDROOT
BRANCH   3  10
ATOM      8  O   UNL     1      34.732 -14.110 -22.106  0.00  0.00    -0.270 OA
ATOM      9  N   UNL     1      33.561 -13.438 -24.025  0.00  0.00    -0.280 N 
ATOM     10  C   UNL     1      34.204 -14.371 -23.199  0.00  0.00    +0.250 C 
ATOM     11  H   UNL     1      33.189 -13.794 -24.864  0.00  0.00    +0.155 HD
BRANCH   9  12
ATOM     12  C   UNL     1      33.374 -12.050 -23.809  0.00  0.00    +0.050 C 
ATOM     13  C   UNL     1      34.261 -11.131 -24.370  0.00  0.00    +0.019 C 
ATOM     14  C   UNL     1      34.078  -9.765 -24.157  0.00  0.00    +0.073 C 
ATOM     15  C   UNL     1      32.304 -11.603 -23.035  0.00  0.00    +0.015 C 
ATOM     16  C   UNL     1      33.006  -9.318 -23.382  0.00  0.00    +0.004 C 
ATOM     17  C   UNL     1      32.120 -10.237 -22.822  0.00  0.00    +0.001 C 
BRANCH  14  21
ATOM     18  F   UNL     1      35.883  -9.331 -25.665  0.00  0.00    -0.166 F 
ATOM     19  F   UNL     1      34.406  -7.762 -25.421  0.00  0.00    -0.166 F 
ATOM     20  F   UNL     1      35.818  -8.181 -23.821  0.00  0.00    -0.166 F 
ATOM     21  C   UNL     1      35.025  -8.782 -24.756  0.00  0.00    +0.419 C 
ENDBRANCH  14  21
ENDBRANCH   9  12
ENDBRANCH   3  10
BRANCH   1  22
ATOM     22  N   UNL     1      35.025 -19.127 -22.419  0.00  0.00    -0.312 N 
ATOM     23  H   UNL     1      35.968 -19.391 -22.527  0.00  0.00    +0.152 HD
BRANCH  22  25
ATOM     24  N   UNL     1      32.245 -20.552 -20.451  0.00  0.00    -0.241 NA
ATOM     25  C   UNL     1      34.344 -19.854 -21.425  0.00  0.00    +0.068 C 
ATOM     26  C   UNL     1      35.040 -20.574 -20.461  0.00  0.00    +0.022 C 
ATOM     27  C   UNL     1      32.960 -19.875 -21.377  0.00  0.00    +0.113 C 
ATOM     28  C   UNL     1      34.340 -21.284 -19.491  0.00  0.00    +0.073 C 
ATOM     29  C   UNL     1      32.955 -21.241 -19.529  0.00  0.00    +0.103 C 
BRANCH  28  32
ATOM     30  O   UNL     1      34.478 -22.970 -17.853  0.00  0.00    -0.270 OA
ATOM     31  N   UNL     1      36.366 -21.721 -18.213  0.00  0.00    -0.325 N 
ATOM     32  C   UNL     1      35.037 -22.046 -18.471  0.00  0.00    +0.244 C 
ATOM     33  H   UNL     1      36.870 -22.216 -17.527  0.00  0.00    +0.145 HD
ATOM     34  H   UNL     1      36.803 -20.996 -18.716  0.00  0.00    +0.145 HD
ENDBRANCH  28  32
ENDBRANCH  22  25
ENDBRANCH   1  22
TORSDOF 6
ENDMDL
MODEL 8
REMARK VINA RESULT:     -12.1      7.689     12.691
REMARK  Name = 24875320
REMARK  6 active torsions:
REMARK  status: ('A' for Active; 'I' for Inactive)
REMARK    1  A    between atoms: C_1  and  N_22
REMARK    2  A    between atoms: C_3  and  C_10
REMARK    3  A    between atoms: N_9  and  C_12
REMARK    4  A    between atoms: C_14  and  C_21
REMARK    5  A    between atoms: N_22  and  C_25
REMARK    6  A    between atoms: C_28  and  C_32
REMARK                            x       y       z     vdW  Elec       q    Type
REMARK                         _______ _______ _______ _____ _____    ______ ____
ROOT
ATOM      1  C   UNL     1      34.596 -18.142 -23.260  0.00  0.00    +0.044 C 
ATOM      2  C   UNL     1      34.275 -18.416 -24.589  0.00  0.00    -0.008 C 
ATOM      3  C   UNL     1      34.101 -15.804 -23.624  0.00  0.00    +0.055 C 
ATOM      4  C   UNL     1      34.510 -16.835 -22.778  0.00  0.00    +0.019 C 
ATOM      5  C   UNL     1      33.867 -17.386 -25.436  0.00  0.00    -0.003 C 
ATOM      6  C   UNL     1      33.781 -16.080 -24.954  0.00  0.00    +0.004 C 
ATOM      7  C   UNL     1      34.357 -19.806 -25.132  0.00  0.00    +0.032 C 
ENDROOT
BRANCH   3  10
ATOM      8  O   UNL     1      34.818 -14.066 -22.255  0.00  0.00    -0.270 OA
ATOM      9  N   UNL     1      32.983 -13.659 -23.659  0.00  0.00    -0.280 N 
ATOM     10  C   UNL     1      34.013 -14.443 -23.122  0.00  0.00    +0.250 C 
ATOM     11  H   UNL     1      32.423 -14.096 -24.341  0.00  0.00    +0.155 HD
BRANCH   9  12
ATOM     12  C   UNL     1      32.641 -12.319 -23.348  0.00  0.00    +0.050 C 
ATOM     13  C   UNL     1      31.951 -12.030 -22.171  0.00  0.00    +0.019 C 
ATOM     14  C   UNL     1      31.614 -10.711 -21.865  0.00  0.00    +0.073 C 
ATOM     15  C   UNL     1      32.993 -11.289 -24.221  0.00  0.00    +0.015 C 
ATOM     16  C   UNL     1      31.967  -9.681 -22.738  0.00  0.00    +0.004 C 
ATOM     17  C   UNL     1      32.657  -9.971 -23.915  0.00  0.00    +0.001 C 
BRANCH  14  21
ATOM     18  F   UNL     1      30.810  -9.067 -20.325  0.00  0.00    -0.166 F 
ATOM     19  F   UNL     1      29.579 -10.829 -20.615  0.00  0.00    -0.166 F 
ATOM     20  F   UNL     1      31.446 -10.979 -19.509  0.00  0.00    -0.166 F 
ATOM     21  C   UNL     1      30.877 -10.401 -20.607  0.00  0.00    +0.419 C 
ENDBRANCH  14  21
ENDBRANCH   9  12
ENDBRANCH   3  10
BRANCH   1  22
ATOM     22  N   UNL     1      35.010 -19.173 -22.388  0.00  0.00    -0.312 N 
ATOM     23  H   UNL     1      35.951 -19.437 -22.506  0.00  0.00    +0.152 HD
BRANCH  22  25
ATOM     24  N   UNL     1      32.253 -20.595 -20.385  0.00  0.00    -0.241 NA
ATOM     25  C   UNL     1      34.341 -19.897 -21.384  0.00  0.00    +0.068 C 
ATOM     26  C   UNL     1      35.048 -20.611 -20.423  0.00  0.00    +0.022 C 
ATOM     27  C   UNL     1      32.957 -19.921 -21.321  0.00  0.00    +0.113 C 
ATOM     28  C   UNL     1      34.360 -21.318 -19.444  0.00  0.00    +0.073 C 
ATOM     29  C   UNL     1      32.975 -21.278 -19.467  0.00  0.00    +0.103 C 
BRANCH  28  32
ATOM     30  O   UNL     1      34.515 -22.988 -17.790  0.00  0.00    -0.270 OA
ATOM     31  N   UNL     1      36.405 -21.755 -18.195  0.00  0.00    -0.325 N 
ATOM     32  C   UNL     1      35.069 -22.073 -18.427  0.00  0.00    +0.244 C 
ATOM     33  H   UNL     1      36.918 -22.246 -17.513  0.00  0.00    +0.145 HD
ATOM     34  H   UNL     1      36.838 -21.039 -18.714  0.00  0.00    +0.145 HD
ENDBRANCH  28  32
ENDBRANCH  22  25
ENDBRANCH   1  22
TORSDOF 6
ENDMDL
MODEL 9
REMARK VINA RESULT:     -12.1      8.869     13.835
REMARK  Name = 24875320
REMARK  6 active torsions:
REMARK  status: ('A' for Active; 'I' for Inactive)
REMARK    1  A    between atoms: C_1  and  N_22
REMARK    2  A    between atoms: C_3  and  C_10
REMARK    3  A    between atoms: N_9  and  C_12
REMARK    4  A    between atoms: C_14  and  C_21
REMARK    5  A    between atoms: N_22  and  C_25
REMARK    6  A    between atoms: C_28  and  C_32
REMARK                            x       y       z     vdW  Elec       q    Type
REMARK                         _______ _______ _______ _____ _____    ______ ____
ROOT
ATOM      1  C   UNL     1      34.728 -16.898 -23.908  0.00  0.00    +0.044 C 
ATOM      2  C   UNL     1      33.989 -17.276 -25.028  0.00  0.00    -0.008 C 
ATOM      3  C   UNL     1      33.744 -14.693 -24.003  0.00  0.00    +0.055 C 
ATOM      4  C   UNL     1      34.606 -15.606 -23.396  0.00  0.00    +0.019 C 
ATOM      5  C   UNL     1      33.127 -16.363 -25.636  0.00  0.00    -0.003 C 
ATOM      6  C   UNL     1      33.005 -15.071 -25.124  0.00  0.00    +0.004 C 
ATOM      7  C   UNL     1      34.099 -18.653 -25.597  0.00  0.00    +0.032 C 
ENDROOT
BRANCH   3  10
ATOM      8  O   UNL     1      33.258 -13.195 -22.291  0.00  0.00    -0.270 OA
ATOM      9  N   UNL     1      33.900 -12.305 -24.365  0.00  0.00    -0.280 N 
ATOM     10  C   UNL     1      33.618 -13.346 -23.470  0.00  0.00    +0.250 C 
ATOM     11  H   UNL     1      34.176 -12.580 -25.269  0.00  0.00    +0.155 HD
BRANCH   9  12
ATOM     12  C   UNL     1      33.841 -10.907 -24.139  0.00  0.00    +0.050 C 
ATOM     13  C   UNL     1      32.656 -10.322 -23.691  0.00  0.00    +0.019 C 
ATOM     14  C   UNL     1      32.598  -8.947 -23.468  0.00  0.00    +0.073 C 
ATOM     15  C   UNL     1      34.967 -10.116 -24.365  0.00  0.00    +0.015 C 
ATOM     16  C   UNL     1      33.725  -8.155 -23.695  0.00  0.00    +0.004 C 
ATOM     17  C   UNL     1      34.909  -8.741 -24.142  0.00  0.00    +0.001 C 
BRANCH  14  21
ATOM     18  F   UNL     1      30.366  -9.225 -22.656  0.00  0.00    -0.166 F 
ATOM     19  F   UNL     1      31.494  -7.545 -21.877  0.00  0.00    -0.166 F 
ATOM     20  F   UNL     1      30.764  -7.505 -23.925  0.00  0.00    -0.166 F 
ATOM     21  C   UNL     1      31.333  -8.321 -22.989  0.00  0.00    +0.419 C 
ENDBRANCH  14  21
ENDBRANCH   9  12
ENDBRANCH   3  10
BRANCH   1  22
ATOM     22  N   UNL     1      35.604 -17.809 -23.279  0.00  0.00    -0.312 N 
ATOM     23  H   UNL     1      36.496 -17.851 -23.694  0.00  0.00    +0.152 HD
BRANCH  22  25
ATOM     24  N   UNL     1      36.450 -19.797 -20.284  0.00  0.00    -0.241 NA
ATOM     25  C   UNL     1      35.452 -18.669 -22.175  0.00  0.00    +0.068 C 
ATOM     26  C   UNL     1      34.218 -19.233 -21.870  0.00  0.00    +0.022 C 
ATOM     27  C   UNL     1      36.527 -18.980 -21.358  0.00  0.00    +0.113 C 
ATOM     28  C   UNL     1      34.098 -20.078 -20.772  0.00  0.00    +0.073 C 
ATOM     29  C   UNL     1      35.234 -20.326 -20.018  0.00  0.00    +0.103 C 
BRANCH  28  32
ATOM     30  O   UNL     1      31.756 -20.270 -20.915  0.00  0.00    -0.270 OA
ATOM     31  N   UNL     1      32.833 -21.757 -19.542  0.00  0.00    -0.325 N 
ATOM     32  C   UNL     1      32.824 -20.682 -20.427  0.00  0.00    +0.244 C 
ATOM     33  H   UNL     1      31.988 -22.192 -19.285  0.00  0.00    +0.145 HD
ATOM     34  H   UNL     1      33.686 -22.083 -19.172  0.00  0.00    +0.145 HD
ENDBRANCH  28  32
ENDBRANCH  22  25
ENDBRANCH   1  22
TORSDOF 6
ENDMDL
