MODEL 1
REMARK VINA RESULT:     -12.1      0.000      0.000
REMARK  Name = 24779724
REMARK  3 active torsions:
REMARK  status: ('A' for Active; 'I' for Inactive)
REMARK    1  A    between atoms: C_5  and  C_12
REMARK    2  A    between atoms: C_7  and  S_16
REMARK    3  A    between atoms: S_16  and  C_19
REMARK                            x       y       z     vdW  Elec       q    Type
REMARK                         _______ _______ _______ _____ _____    ______ ____
ROOT
ATOM      1  N   UNL     1      34.340 -21.747 -18.822  0.00  0.00    -0.186 N 
ATOM      2  N   UNL     1      35.308 -22.130 -17.953  0.00  0.00    -0.162 NA
ATOM      3  N   UNL     1      32.387 -21.493 -19.795  0.00  0.00    -0.126 NA
ATOM      4  N   UNL     1      33.333 -20.804 -20.525  0.00  0.00    -0.120 NA
ATOM      5  C   UNL     1      34.872 -22.871 -16.974  0.00  0.00    +0.104 C 
ATOM      6  C   UNL     1      33.001 -22.056 -18.775  0.00  0.00    +0.187 A 
ATOM      7  C   UNL     1      34.494 -20.967 -19.932  0.00  0.00    +0.217 A 
ATOM      8  C   UNL     1      33.445 -23.301 -16.805  0.00  0.00    +0.024 C 
ATOM      9  C   UNL     1      32.561 -22.873 -17.715  0.00  0.00    +0.042 C 
ENDROOT
BRANCH   5  12
ATOM     10  N   UNL     1      36.751 -24.437 -14.290  0.00  0.00    -0.208 N 
ATOM     11  N   UNL     1      37.727 -23.605 -14.693  0.00  0.00    -0.176 NA
ATOM     12  C   UNL     1      35.836 -23.352 -15.950  0.00  0.00    +0.056 C 
ATOM     13  C   UNL     1      35.598 -24.324 -15.010  0.00  0.00    +0.087 C 
ATOM     14  C   UNL     1      37.162 -22.945 -15.708  0.00  0.00    +0.121 C 
ATOM     15  C   UNL     1      36.986 -25.335 -13.185  0.00  0.00    +0.140 C 
ENDBRANCH   5  12
BRANCH   7  16
ATOM     16  S   UNL     1      36.064 -20.292 -20.452  0.00  0.00    -0.051 S 
BRANCH  16  19
ATOM     17  N   UNL     1      34.307 -15.661 -23.746  0.00  0.00    -0.248 NA
ATOM     18  C   UNL     1      34.835 -16.581 -21.583  0.00  0.00    -0.003 C 
ATOM     19  C   UNL     1      35.538 -18.899 -21.429  0.00  0.00    +0.011 C 
ATOM     20  C   UNL     1      34.704 -16.696 -22.983  0.00  0.00    +0.060 C 
ATOM     21  C   UNL     1      35.251 -17.683 -20.817  0.00  0.00    +0.060 C 
ATOM     22  C   UNL     1      35.410 -19.019 -22.807  0.00  0.00    -0.017 C 
ATOM     23  C   UNL     1      34.997 -17.925 -23.569  0.00  0.00    +0.072 C 
ATOM     24  C   UNL     1      34.540 -15.345 -20.993  0.00  0.00    -0.001 C 
ATOM     25  C   UNL     1      34.131 -14.276 -21.777  0.00  0.00    +0.020 C 
ATOM     26  C   UNL     1      34.032 -14.485 -23.137  0.00  0.00    +0.098 C 
ENDBRANCH  16  19
ENDBRANCH   7  16
TORSDOF 3
ENDMDL
MODEL 2
REMARK VINA RESULT:     -11.9      0.994      1.923
REMARK  Name = 24779724
REMARK  3 active torsions:
REMARK  status: ('A' for Active; 'I' for Inactive)
REMARK    1  A    between atoms: C_5  and  C_12
REMARK    2  A    between atoms: C_7  and  S_16
REMARK    3  A    between atoms: S_16  and  C_19
REMARK                            x       y       z     vdW  Elec       q    Type
REMARK                         _______ _______ _______ _____ _____    ______ ____
ROOT
ATOM      1  N   UNL     1      34.263 -21.985 -18.516  0.00  0.00    -0.186 N 
ATOM      2  N   UNL     1      35.266 -22.367 -17.687  0.00  0.00    -0.162 NA
ATOM      3  N   UNL     1      32.270 -21.722 -19.401  0.00  0.00    -0.126 NA
ATOM      4  N   UNL     1      33.189 -21.058 -20.187  0.00  0.00    -0.120 NA
ATOM      5  C   UNL     1      34.867 -23.085 -16.675  0.00  0.00    +0.104 C 
ATOM      6  C   UNL     1      32.924 -22.275 -18.401  0.00  0.00    +0.187 A 
ATOM      7  C   UNL     1      34.374 -21.227 -19.646  0.00  0.00    +0.217 A 
ATOM      8  C   UNL     1      33.445 -23.492 -16.432  0.00  0.00    +0.024 C 
ATOM      9  C   UNL     1      32.524 -23.068 -17.307  0.00  0.00    +0.042 C 
ENDROOT
BRANCH   5  12
ATOM     10  N   UNL     1      36.861 -24.652 -14.076  0.00  0.00    -0.208 N 
ATOM     11  N   UNL     1      37.806 -23.793 -14.496  0.00  0.00    -0.176 NA
ATOM     12  C   UNL     1      35.872 -23.560 -15.690  0.00  0.00    +0.056 C 
ATOM     13  C   UNL     1      35.683 -24.552 -14.759  0.00  0.00    +0.087 C 
ATOM     14  C   UNL     1      37.197 -23.130 -15.482  0.00  0.00    +0.121 C 
ATOM     15  C   UNL     1      37.149 -25.562 -12.994  0.00  0.00    +0.140 C 
ENDBRANCH   5  12
BRANCH   7  16
ATOM     16  S   UNL     1      35.926 -20.582 -20.251  0.00  0.00    -0.051 S 
BRANCH  16  19
ATOM     17  N   UNL     1      34.059 -16.373 -24.018  0.00  0.00    -0.248 NA
ATOM     18  C   UNL     1      34.529 -18.695 -23.575  0.00  0.00    -0.003 C 
ATOM     19  C   UNL     1      35.365 -19.330 -21.387  0.00  0.00    +0.011 C 
ATOM     20  C   UNL     1      34.478 -17.341 -23.181  0.00  0.00    +0.060 C 
ATOM     21  C   UNL     1      34.972 -19.679 -22.675  0.00  0.00    +0.060 C 
ATOM     22  C   UNL     1      35.318 -17.999 -20.992  0.00  0.00    -0.017 C 
ATOM     23  C   UNL     1      34.878 -17.020 -21.886  0.00  0.00    +0.072 C 
ATOM     24  C   UNL     1      34.127 -19.017 -24.877  0.00  0.00    -0.001 C 
ATOM     25  C   UNL     1      33.695 -18.022 -25.742  0.00  0.00    +0.020 C 
ATOM     26  C   UNL     1      33.680 -16.727 -25.266  0.00  0.00    +0.098 C 
ENDBRANCH  16  19
ENDBRANCH   7  16
TORSDOF 3
ENDMDL
MODEL 3
REMARK VINA RESULT:     -11.8      2.986      9.779
REMARK  Name = 24779724
REMARK  3 active torsions:
REMARK  status: ('A' for Active; 'I' for Inactive)
REMARK    1  A    between atoms: C_5  and  C_12
REMARK    2  A    between atoms: C_7  and  S_16
REMARK    3  A    between atoms: S_16  and  C_19
REMARK                            x       y       z     vdW  Elec       q    Type
REMARK                         _______ _______ _______ _____ _____    ______ ____
ROOT
ATOM      1  N   UNL     1      34.130 -17.611 -24.513  0.00  0.00    -0.186 N 
ATOM      2  N   UNL     1      34.075 -16.332 -24.065  0.00  0.00    -0.162 NA
ATOM      3  N   UNL     1      33.855 -19.405 -25.750  0.00  0.00    -0.126 NA
ATOM      4  N   UNL     1      34.598 -19.749 -24.639  0.00  0.00    -0.120 NA
ATOM      5  C   UNL     1      33.418 -15.528 -24.851  0.00  0.00    +0.104 C 
ATOM      6  C   UNL     1      33.579 -18.121 -25.665  0.00  0.00    +0.187 A 
ATOM      7  C   UNL     1      34.752 -18.666 -23.910  0.00  0.00    +0.217 A 
ATOM      8  C   UNL     1      32.750 -15.946 -26.127  0.00  0.00    +0.024 C 
ATOM      9  C   UNL     1      32.859 -17.231 -26.487  0.00  0.00    +0.042 C 
ENDROOT
BRANCH   5  12
ATOM     10  N   UNL     1      33.075 -11.924 -24.561  0.00  0.00    -0.208 N 
ATOM     11  N   UNL     1      33.147 -12.177 -23.243  0.00  0.00    -0.176 NA
ATOM     12  C   UNL     1      33.290 -14.097 -24.473  0.00  0.00    +0.056 C 
ATOM     13  C   UNL     1      33.157 -13.041 -25.341  0.00  0.00    +0.087 C 
ATOM     14  C   UNL     1      33.278 -13.505 -23.195  0.00  0.00    +0.121 C 
ATOM     15  C   UNL     1      32.926 -10.565 -25.024  0.00  0.00    +0.140 C 
ENDBRANCH   5  12
BRANCH   7  16
ATOM     16  S   UNL     1      35.632 -18.539 -22.361  0.00  0.00    -0.051 S 
BRANCH  16  19
ATOM     17  N   UNL     1      32.263 -21.962 -18.853  0.00  0.00    -0.248 NA
ATOM     18  C   UNL     1      34.450 -21.220 -19.538  0.00  0.00    -0.003 C 
ATOM     19  C   UNL     1      34.633 -19.567 -21.305  0.00  0.00    +0.011 C 
ATOM     20  C   UNL     1      33.043 -21.195 -19.636  0.00  0.00    +0.060 C 
ATOM     21  C   UNL     1      35.234 -20.406 -20.372  0.00  0.00    +0.060 C 
ATOM     22  C   UNL     1      33.248 -19.538 -21.408  0.00  0.00    -0.017 C 
ATOM     23  C   UNL     1      32.468 -20.347 -20.579  0.00  0.00    +0.072 C 
ATOM     24  C   UNL     1      35.029 -22.074 -18.589  0.00  0.00    -0.001 C 
ATOM     25  C   UNL     1      34.228 -22.866 -17.780  0.00  0.00    +0.020 C 
ATOM     26  C   UNL     1      32.861 -22.772 -17.950  0.00  0.00    +0.098 C 
ENDBRANCH  16  19
ENDBRANCH   7  16
TORSDOF 3
ENDMDL
MODEL 4
REMARK VINA RESULT:     -11.7      3.295     10.569
REMARK  Name = 24779724
REMARK  3 active torsions:
REMARK  status: ('A' for Active; 'I' for Inactive)
REMARK    1  A    between atoms: C_5  and  C_12
REMARK    2  A    between atoms: C_7  and  S_16
REMARK    3  A    between atoms: S_16  and  C_19
REMARK                            x       y       z     vdW  Elec       q    Type
REMARK                         _______ _______ _______ _____ _____    ______ ____
ROOT
ATOM      1  N   UNL     1      33.374 -16.867 -25.262  0.00  0.00    -0.186 N 
ATOM      2  N   UNL     1      33.350 -15.513 -25.332  0.00  0.00    -0.162 NA
ATOM      3  N   UNL     1      33.028 -18.989 -25.713  0.00  0.00    -0.126 NA
ATOM      4  N   UNL     1      33.815 -18.904 -24.582  0.00  0.00    -0.120 NA
ATOM      5  C   UNL     1      32.668 -15.051 -26.341  0.00  0.00    +0.104 C 
ATOM      6  C   UNL     1      32.769 -17.762 -26.113  0.00  0.00    +0.187 A 
ATOM      7  C   UNL     1      34.010 -17.630 -24.325  0.00  0.00    +0.217 A 
ATOM      8  C   UNL     1      31.943 -15.905 -27.337  0.00  0.00    +0.024 C 
ATOM      9  C   UNL     1      32.024 -17.233 -27.185  0.00  0.00    +0.042 C 
ENDROOT
BRANCH   5  12
ATOM     10  N   UNL     1      32.776 -11.422 -26.262  0.00  0.00    -0.208 N 
ATOM     11  N   UNL     1      32.056 -11.528 -27.392  0.00  0.00    -0.176 NA
ATOM     12  C   UNL     1      32.571 -13.581 -26.531  0.00  0.00    +0.056 C 
ATOM     13  C   UNL     1      33.109 -12.623 -25.706  0.00  0.00    +0.087 C 
ATOM     14  C   UNL     1      31.935 -12.848 -27.552  0.00  0.00    +0.121 C 
ATOM     15  C   UNL     1      33.120 -10.117 -25.751  0.00  0.00    +0.140 C 
ENDBRANCH   5  12
BRANCH   7  16
ATOM     16  S   UNL     1      34.957 -16.947 -22.974  0.00  0.00    -0.051 S 
BRANCH  16  19
ATOM     17  N   UNL     1      35.391 -21.634 -19.337  0.00  0.00    -0.248 NA
ATOM     18  C   UNL     1      34.011 -20.093 -20.573  0.00  0.00    -0.003 C 
ATOM     19  C   UNL     1      35.076 -18.351 -21.886  0.00  0.00    +0.011 C 
ATOM     20  C   UNL     1      35.271 -20.576 -20.160  0.00  0.00    +0.060 C 
ATOM     21  C   UNL     1      33.923 -18.985 -21.432  0.00  0.00    +0.060 C 
ATOM     22  C   UNL     1      36.319 -18.821 -21.482  0.00  0.00    -0.017 C 
ATOM     23  C   UNL     1      36.408 -19.922 -20.628  0.00  0.00    +0.072 C 
ATOM     24  C   UNL     1      32.867 -20.750 -20.101  0.00  0.00    -0.001 C 
ATOM     25  C   UNL     1      32.987 -21.841 -19.253  0.00  0.00    +0.020 C 
ATOM     26  C   UNL     1      34.262 -22.240 -18.904  0.00  0.00    +0.098 C 
ENDBRANCH  16  19
ENDBRANCH   7  16
TORSDOF 3
ENDMDL
MODEL 5
REMARK VINA RESULT:     -11.4      2.428      9.950
REMARK  Name = 24779724
REMARK  3 active torsions:
REMARK  status: ('A' for Active; 'I' for Inactive)
REMARK    1  A    between atoms: C_5  and  C_12
REMARK    2  A    between atoms: C_7  and  S_16
REMARK    3  A    between atoms: S_16  and  C_19
REMARK                            x       y       z     vdW  Elec       q    Type
REMARK                         _______ _______ _______ _____ _____    ______ ____
ROOT
ATOM      1  N   UNL     1      34.507 -16.322 -22.153  0.00  0.00    -0.186 N 
ATOM      2  N   UNL     1      34.177 -16.201 -23.463  0.00  0.00    -0.162 NA
ATOM      3  N   UNL     1      34.887 -15.848 -20.042  0.00  0.00    -0.126 NA
ATOM      4  N   UNL     1      35.139 -17.190 -20.242  0.00  0.00    -0.120 NA
ATOM      5  C   UNL     1      33.820 -14.996 -23.807  0.00  0.00    +0.104 C 
ATOM      6  C   UNL     1      34.508 -15.336 -21.195  0.00  0.00    +0.187 A 
ATOM      7  C   UNL     1      34.910 -17.456 -21.508  0.00  0.00    +0.217 A 
ATOM      8  C   UNL     1      33.790 -13.822 -22.875  0.00  0.00    +0.024 C 
ATOM      9  C   UNL     1      34.135 -14.039 -21.599  0.00  0.00    +0.042 C 
ENDROOT
BRANCH   5  12
ATOM     10  N   UNL     1      32.716 -13.769 -27.041  0.00  0.00    -0.208 N 
ATOM     11  N   UNL     1      33.027 -15.012 -27.448  0.00  0.00    -0.176 NA
ATOM     12  C   UNL     1      33.428 -14.736 -25.216  0.00  0.00    +0.056 C 
ATOM     13  C   UNL     1      32.937 -13.553 -25.712  0.00  0.00    +0.087 C 
ATOM     14  C   UNL     1      33.462 -15.597 -26.329  0.00  0.00    +0.121 C 
ATOM     15  C   UNL     1      32.200 -12.812 -27.990  0.00  0.00    +0.140 C 
ENDBRANCH   5  12
BRANCH   7  16
ATOM     16  S   UNL     1      35.079 -19.041 -22.314  0.00  0.00    -0.051 S 
BRANCH  16  19
ATOM     17  N   UNL     1      34.867 -22.742 -17.662  0.00  0.00    -0.248 NA
ATOM     18  C   UNL     1      33.710 -21.455 -19.338  0.00  0.00    -0.003 C 
ATOM     19  C   UNL     1      35.005 -20.149 -20.922  0.00  0.00    +0.011 C 
ATOM     20  C   UNL     1      34.893 -21.905 -18.716  0.00  0.00    +0.060 C 
ATOM     21  C   UNL     1      33.774 -20.581 -20.436  0.00  0.00    +0.060 C 
ATOM     22  C   UNL     1      36.174 -20.588 -20.314  0.00  0.00    -0.017 C 
ATOM     23  C   UNL     1      36.110 -21.457 -19.222  0.00  0.00    +0.072 C 
ATOM     24  C   UNL     1      32.485 -21.906 -18.829  0.00  0.00    -0.001 C 
ATOM     25  C   UNL     1      32.455 -22.769 -17.743  0.00  0.00    +0.020 C 
ATOM     26  C   UNL     1      33.665 -23.153 -17.201  0.00  0.00    +0.098 C 
ENDBRANCH  16  19
ENDBRANCH   7  16
TORSDOF 3
ENDMDL
MODEL 6
REMARK VINA RESULT:     -10.9      1.440      1.811
REMARK  Name = 24779724
REMARK  3 active torsions:
REMARK  status: ('A' for Active; 'I' for Inactive)
REMARK    1  A    between atoms: C_5  and  C_12
REMARK    2  A    between atoms: C_7  and  S_16
REMARK    3  A    between atoms: S_16  and  C_19
REMARK                            x       y       z     vdW  Elec       q    Type
REMARK                         _______ _______ _______ _____ _____    ______ ____
ROOT
ATOM      1  N   UNL     1      34.158 -21.015 -19.528  0.00  0.00    -0.186 N 
ATOM      2  N   UNL     1      35.204 -21.333 -18.727  0.00  0.00    -0.162 NA
ATOM      3  N   UNL     1      32.144 -20.934 -20.401  0.00  0.00    -0.126 NA
ATOM      4  N   UNL     1      32.969 -20.097 -21.125  0.00  0.00    -0.120 NA
ATOM      5  C   UNL     1      34.904 -22.176 -17.779  0.00  0.00    +0.104 C 
ATOM      6  C   UNL     1      32.866 -21.479 -19.445  0.00  0.00    +0.187 A 
ATOM      7  C   UNL     1      34.168 -20.159 -20.592  0.00  0.00    +0.217 A 
ATOM      8  C   UNL     1      33.545 -22.778 -17.579  0.00  0.00    +0.024 C 
ATOM      9  C   UNL     1      32.575 -22.403 -18.422  0.00  0.00    +0.042 C 
ENDROOT
BRANCH   5  12
ATOM     10  N   UNL     1      37.033 -23.563 -15.186  0.00  0.00    -0.208 N 
ATOM     11  N   UNL     1      37.981 -22.816 -15.777  0.00  0.00    -0.176 NA
ATOM     12  C   UNL     1      35.965 -22.599 -16.830  0.00  0.00    +0.056 C 
ATOM     13  C   UNL     1      35.808 -23.468 -15.778  0.00  0.00    +0.087 C 
ATOM     14  C   UNL     1      37.323 -22.230 -16.780  0.00  0.00    +0.121 C 
ATOM     15  C   UNL     1      37.367 -24.364 -14.032  0.00  0.00    +0.140 C 
ENDBRANCH   5  12
BRANCH   7  16
ATOM     16  S   UNL     1      35.624 -19.277 -21.134  0.00  0.00    -0.051 S 
BRANCH  16  19
ATOM     17  N   UNL     1      33.731 -16.979 -26.284  0.00  0.00    -0.248 NA
ATOM     18  C   UNL     1      34.253 -16.680 -23.951  0.00  0.00    -0.003 C 
ATOM     19  C   UNL     1      35.057 -18.579 -22.671  0.00  0.00    +0.011 C 
ATOM     20  C   UNL     1      34.157 -17.479 -25.109  0.00  0.00    +0.060 C 
ATOM     21  C   UNL     1      34.702 -17.235 -22.741  0.00  0.00    +0.060 C 
ATOM     22  C   UNL     1      34.964 -19.372 -23.807  0.00  0.00    -0.017 C 
ATOM     23  C   UNL     1      34.518 -18.821 -25.010  0.00  0.00    +0.072 C 
ATOM     24  C   UNL     1      33.890 -15.330 -24.050  0.00  0.00    -0.001 C 
ATOM     25  C   UNL     1      33.451 -14.812 -25.259  0.00  0.00    +0.020 C 
ATOM     26  C   UNL     1      33.390 -15.672 -26.337  0.00  0.00    +0.098 C 
ENDBRANCH  16  19
ENDBRANCH   7  16
TORSDOF 3
ENDMDL
MODEL 7
REMARK VINA RESULT:     -10.8      2.491      3.775
REMARK  Name = 24779724
REMARK  3 active torsions:
REMARK  status: ('A' for Active; 'I' for Inactive)
REMARK    1  A    between atoms: C_5  and  C_12
REMARK    2  A    between atoms: C_7  and  S_16
REMARK    3  A    between atoms: S_16  and  C_19
REMARK                            x       y       z     vdW  Elec       q    Type
REMARK                         _______ _______ _______ _____ _____    ______ ____
ROOT
ATOM      1  N   UNL     1      32.535 -23.355 -16.083  0.00  0.00    -0.186 N 
ATOM      2  N   UNL     1      33.593 -23.834 -15.383  0.00  0.00    -0.162 NA
ATOM      3  N   UNL     1      30.548 -22.568 -16.588  0.00  0.00    -0.126 NA
ATOM      4  N   UNL     1      31.289 -22.665 -17.749  0.00  0.00    -0.120 NA
ATOM      5  C   UNL     1      33.374 -23.933 -14.102  0.00  0.00    +0.104 C 
ATOM      6  C   UNL     1      31.305 -22.985 -15.595  0.00  0.00    +0.187 A 
ATOM      7  C   UNL     1      32.472 -23.138 -17.430  0.00  0.00    +0.217 A 
ATOM      8  C   UNL     1      32.079 -23.583 -13.433  0.00  0.00    +0.024 C 
ATOM      9  C   UNL     1      31.091 -23.119 -14.209  0.00  0.00    +0.042 C 
ENDROOT
BRANCH   5  12
ATOM     10  N   UNL     1      36.334 -25.304 -12.506  0.00  0.00    -0.208 N 
ATOM     11  N   UNL     1      35.668 -25.020 -11.374  0.00  0.00    -0.176 NA
ATOM     12  C   UNL     1      34.460 -24.440 -13.224  0.00  0.00    +0.056 C 
ATOM     13  C   UNL     1      35.653 -24.976 -13.642  0.00  0.00    +0.087 C 
ATOM     14  C   UNL     1      34.525 -24.492 -11.818  0.00  0.00    +0.121 C 
ATOM     15  C   UNL     1      37.646 -25.902 -12.437  0.00  0.00    +0.140 C 
ENDBRANCH   5  12
BRANCH   7  16
ATOM     16  S   UNL     1      33.828 -23.464 -18.546  0.00  0.00    -0.051 S 
BRANCH  16  19
ATOM     17  N   UNL     1      33.935 -18.423 -21.703  0.00  0.00    -0.248 NA
ATOM     18  C   UNL     1      35.130 -20.205 -20.606  0.00  0.00    -0.003 C 
ATOM     19  C   UNL     1      33.871 -21.956 -19.492  0.00  0.00    +0.011 C 
ATOM     20  C   UNL     1      33.933 -19.565 -20.989  0.00  0.00    +0.060 C 
ATOM     21  C   UNL     1      35.091 -21.395 -19.861  0.00  0.00    +0.060 C 
ATOM     22  C   UNL     1      32.689 -21.330 -19.865  0.00  0.00    -0.017 C 
ATOM     23  C   UNL     1      32.728 -20.146 -20.606  0.00  0.00    +0.072 C 
ATOM     24  C   UNL     1      36.343 -19.620 -20.992  0.00  0.00    -0.001 C 
ATOM     25  C   UNL     1      36.349 -18.444 -21.727  0.00  0.00    +0.020 C 
ATOM     26  C   UNL     1      35.128 -17.891 -22.055  0.00  0.00    +0.098 C 
ENDBRANCH  16  19
ENDBRANCH   7  16
TORSDOF 3
ENDMDL
MODEL 8
REMARK VINA RESULT:     -10.8      2.616      3.994
REMARK  Name = 24779724
REMARK  3 active torsions:
REMARK  status: ('A' for Active; 'I' for Inactive)
REMARK    1  A    between atoms: C_5  and  C_12
REMARK    2  A    between atoms: C_7  and  S_16
REMARK    3  A    between atoms: S_16  and  C_19
REMARK                            x       y       z     vdW  Elec       q    Type
REMARK                         _______ _______ _______ _____ _____    ______ ____
ROOT
ATOM      1  N   UNL     1      33.475 -23.774 -16.088  0.00  0.00    -0.186 N 
ATOM      2  N   UNL     1      34.655 -24.441 -16.109  0.00  0.00    -0.162 NA
ATOM      3  N   UNL     1      31.693 -22.703 -15.380  0.00  0.00    -0.126 NA
ATOM      4  N   UNL     1      31.633 -22.792 -16.756  0.00  0.00    -0.120 NA
ATOM      5  C   UNL     1      35.178 -24.621 -14.928  0.00  0.00    +0.104 C 
ATOM      6  C   UNL     1      32.801 -23.295 -14.989  0.00  0.00    +0.187 A 
ATOM      7  C   UNL     1      32.704 -23.436 -17.162  0.00  0.00    +0.217 A 
ATOM      8  C   UNL     1      34.549 -24.170 -13.644  0.00  0.00    +0.024 C 
ATOM      9  C   UNL     1      33.381 -23.520 -13.725  0.00  0.00    +0.042 C 
ENDROOT
BRANCH   5  12
ATOM     10  N   UNL     1      38.607 -25.775 -14.612  0.00  0.00    -0.208 N 
ATOM     11  N   UNL     1      38.045 -26.992 -14.714  0.00  0.00    -0.176 NA
ATOM     12  C   UNL     1      36.477 -25.335 -14.818  0.00  0.00    +0.056 C 
ATOM     13  C   UNL     1      37.710 -24.748 -14.670  0.00  0.00    +0.087 C 
ATOM     14  C   UNL     1      36.745 -26.717 -14.839  0.00  0.00    +0.121 C 
ATOM     15  C   UNL     1      40.037 -25.656 -14.460  0.00  0.00    +0.140 C 
ENDBRANCH   5  12
BRANCH   7  16
ATOM     16  S   UNL     1      33.135 -23.832 -18.850  0.00  0.00    -0.051 S 
BRANCH  16  19
ATOM     17  N   UNL     1      36.182 -18.975 -20.436  0.00  0.00    -0.248 NA
ATOM     18  C   UNL     1      34.177 -20.303 -20.588  0.00  0.00    -0.003 C 
ATOM     19  C   UNL     1      34.038 -22.374 -19.330  0.00  0.00    +0.011 C 
ATOM     20  C   UNL     1      35.475 -20.067 -20.089  0.00  0.00    +0.060 C 
ATOM     21  C   UNL     1      33.468 -21.454 -20.205  0.00  0.00    +0.060 C 
ATOM     22  C   UNL     1      35.317 -22.149 -18.836  0.00  0.00    -0.017 C 
ATOM     23  C   UNL     1      36.022 -21.005 -19.216  0.00  0.00    +0.072 C 
ATOM     24  C   UNL     1      33.628 -19.360 -21.466  0.00  0.00    -0.001 C 
ATOM     25  C   UNL     1      34.353 -18.233 -21.825  0.00  0.00    +0.020 C 
ATOM     26  C   UNL     1      35.616 -18.090 -21.286  0.00  0.00    +0.098 C 
ENDBRANCH  16  19
ENDBRANCH   7  16
TORSDOF 3
ENDMDL
MODEL 9
REMARK VINA RESULT:     -10.4      1.780      9.144
REMARK  Name = 24779724
REMARK  3 active torsions:
REMARK  status: ('A' for Active; 'I' for Inactive)
REMARK    1  A    between atoms: C_5  and  C_12
REMARK    2  A    between atoms: C_7  and  S_16
REMARK    3  A    between atoms: S_16  and  C_19
REMARK                            x       y       z     vdW  Elec       q    Type
REMARK                         _______ _______ _______ _____ _____    ______ ____
ROOT
ATOM      1  N   UNL     1      34.180 -21.207 -19.345  0.00  0.00    -0.186 N 
ATOM      2  N   UNL     1      34.707 -20.180 -20.057  0.00  0.00    -0.162 NA
ATOM      3  N   UNL     1      32.784 -22.724 -18.588  0.00  0.00    -0.126 NA
ATOM      4  N   UNL     1      33.980 -22.852 -17.911  0.00  0.00    -0.120 NA
ATOM      5  C   UNL     1      33.885 -19.668 -20.929  0.00  0.00    +0.104 C 
ATOM      6  C   UNL     1      32.914 -21.734 -19.446  0.00  0.00    +0.187 A 
ATOM      7  C   UNL     1      34.802 -21.938 -18.375  0.00  0.00    +0.217 A 
ATOM      8  C   UNL     1      32.473 -20.128 -21.136  0.00  0.00    +0.024 C 
ATOM      9  C   UNL     1      32.041 -21.149 -20.384  0.00  0.00    +0.042 C 
ENDROOT
BRANCH   5  12
ATOM     10  N   UNL     1      34.730 -17.228 -23.482  0.00  0.00    -0.208 N 
ATOM     11  N   UNL     1      35.314 -16.584 -22.457  0.00  0.00    -0.176 NA
ATOM     12  C   UNL     1      34.346 -18.539 -21.776  0.00  0.00    +0.056 C 
ATOM     13  C   UNL     1      34.136 -18.404 -23.127  0.00  0.00    +0.087 C 
ATOM     14  C   UNL     1      35.077 -17.389 -21.418  0.00  0.00    +0.121 C 
ATOM     15  C   UNL     1      34.773 -16.656 -24.806  0.00  0.00    +0.140 C 
ENDBRANCH   5  12
BRANCH   7  16
ATOM     16  S   UNL     1      36.486 -21.653 -17.852  0.00  0.00    -0.051 S 
BRANCH  16  19
ATOM     17  N   UNL     1      36.662 -24.804 -12.810  0.00  0.00    -0.248 NA
ATOM     18  C   UNL     1      37.676 -24.200 -14.910  0.00  0.00    -0.003 C 
ATOM     19  C   UNL     1      36.549 -22.600 -16.345  0.00  0.00    +0.011 C 
ATOM     20  C   UNL     1      36.642 -24.100 -13.956  0.00  0.00    +0.060 C 
ATOM     21  C   UNL     1      37.622 -23.450 -16.097  0.00  0.00    +0.060 C 
ATOM     22  C   UNL     1      35.527 -22.497 -15.411  0.00  0.00    -0.017 C 
ATOM     23  C   UNL     1      35.580 -23.242 -14.231  0.00  0.00    +0.072 C 
ATOM     24  C   UNL     1      38.745 -25.063 -14.635  0.00  0.00    -0.001 C 
ATOM     25  C   UNL     1      38.769 -25.791 -13.454  0.00  0.00    +0.020 C 
ATOM     26  C   UNL     1      37.712 -25.626 -12.582  0.00  0.00    +0.098 C 
ENDBRANCH  16  19
ENDBRANCH   7  16
TORSDOF 3
ENDMDL
