MODEL 1
REMARK VINA RESULT:     -12.6      0.000      0.000
REMARK  Name = 5327153
REMARK  6 active torsions:
REMARK  status: ('A' for Active; 'I' for Inactive)
REMARK    1  A    between atoms: C_3  and  C_15
REMARK    2  A    between atoms: C_10  and  O_24
REMARK    3  A    between atoms: C_11  and  N_18
REMARK    4  A    between atoms: N_18  and  S_20
REMARK    5  A    between atoms: O_24  and  C_25
REMARK    6  A    between atoms: C_25  and  C_26
REMARK                            x       y       z     vdW  Elec       q    Type
REMARK                         _______ _______ _______ _____ _____    ______ ____
ROOT
ATOM      1  O   UNL     1      36.838 -22.197 -16.604  0.00  0.00    -0.226 OA
ATOM      2  N   UNL     1      34.725 -23.070 -16.146  0.00  0.00    -0.235 N 
ATOM      3  C   UNL     1      35.094 -23.542 -14.812  0.00  0.00    +0.159 C 
ATOM      4  C   UNL     1      34.021 -23.248 -13.768  0.00  0.00    +0.055 C 
ATOM      5  C   UNL     1      33.385 -23.399 -16.656  0.00  0.00    +0.124 C 
ATOM      6  C   UNL     1      32.632 -23.593 -14.236  0.00  0.00    -0.022 C 
ATOM      7  C   UNL     1      32.333 -23.645 -15.606  0.00  0.00    -0.005 C 
ATOM      8  C   UNL     1      31.025 -23.945 -16.012  0.00  0.00    +0.013 C 
ATOM      9  C   UNL     1      31.616 -23.815 -13.295  0.00  0.00    -0.003 C 
ATOM     10  C   UNL     1      35.703 -22.494 -16.973  0.00  0.00    +0.406 C 
ATOM     11  C   UNL     1      30.023 -24.177 -15.070  0.00  0.00    +0.065 C 
ATOM     12  C   UNL     1      30.319 -24.109 -13.711  0.00  0.00    +0.016 C 
ENDROOT
BRANCH   3  15
ATOM     13  O   UNL     1      34.877 -25.706 -15.804  0.00  0.00    -0.273 OA
ATOM     14  N   UNL     1      36.283 -25.445 -13.966  0.00  0.00    -0.301 N 
ATOM     15  C   UNL     1      35.396 -25.009 -14.937  0.00  0.00    +0.241 C 
ATOM     16  C   UNL     1      36.717 -26.818 -13.854  0.00  0.00    +0.111 C 
ATOM     17  H   UNL     1      36.633 -24.788 -13.322  0.00  0.00    +0.150 HD
ENDBRANCH   3  15
BRANCH  11  18
ATOM     18  N   UNL     1      28.696 -24.479 -15.500  0.00  0.00    -0.213 N 
ATOM     19  H   UNL     1      28.220 -25.281 -15.183  0.00  0.00    +0.174 HD
BRANCH  18  20
ATOM     20  S   UNL     1      27.963 -23.364 -16.605  0.00  0.00    +0.091 S 
ATOM     21  O   UNL     1      26.736 -22.700 -15.760  0.00  0.00    -0.050 OA
ATOM     22  O   UNL     1      28.915 -22.310 -16.905  0.00  0.00    -0.050 OA
ATOM     23  O   UNL     1      27.372 -24.133 -17.685  0.00  0.00    -0.050 OA
ENDBRANCH  18  20
ENDBRANCH  11  18
BRANCH  10  24
ATOM     24  O   UNL     1      35.258 -22.300 -18.255  0.00  0.00    -0.430 OA
BRANCH  24  25
ATOM     25  C   UNL     1      36.037 -21.413 -19.065  0.00  0.00    +0.237 C 
BRANCH  25  26
ATOM     26  C   UNL     1      35.129 -20.702 -20.025  0.00  0.00    +0.021 C 
ATOM     27  C   UNL     1      33.755 -20.898 -19.946  0.00  0.00    -0.001 C 
ATOM     28  C   UNL     1      35.670 -19.853 -20.985  0.00  0.00    -0.001 C 
ATOM     29  C   UNL     1      32.911 -20.237 -20.838  0.00  0.00    -0.000 C 
ATOM     30  C   UNL     1      34.825 -19.192 -21.877  0.00  0.00    -0.000 C 
ATOM     31  C   UNL     1      33.446 -19.384 -21.804  0.00  0.00    -0.000 C 
ENDBRANCH  25  26
ENDBRANCH  24  25
ENDBRANCH  10  24
TORSDOF 6
ENDMDL
