MODEL 1
REMARK VINA RESULT:     -12.7      0.000      0.000
REMARK  Name = 448942
REMARK  8 active torsions:
REMARK  status: ('A' for Active; 'I' for Inactive)
REMARK    1  A    between atoms: C_2  and  C_20
REMARK    2  A    between atoms: C_3  and  C_6
REMARK    3  A    between atoms: C_7  and  C_13
REMARK    4  A    between atoms: N_19  and  C_22
REMARK    5  A    between atoms: C_22  and  C_23
REMARK    6  A    between atoms: C_22  and  C_29
REMARK    7  A    between atoms: C_29  and  C_31
REMARK    8  A    between atoms: C_31  and  O_32
REMARK                            x       y       z     vdW  Elec       q    Type
REMARK                         _______ _______ _______ _____ _____    ______ ____
ROOT
ATOM      1  S   UNL     1      32.261 -23.533 -16.543  0.00  0.00    -0.082 S 
ATOM      2  C   UNL     1      33.952 -23.550 -16.600  0.00  0.00    +0.083 C 
ATOM      3  C   UNL     1      33.472 -22.141 -18.332  0.00  0.00    +0.007 C 
ATOM      4  C   UNL     1      34.493 -22.787 -17.575  0.00  0.00    +0.012 C 
ATOM      5  C   UNL     1      32.212 -22.460 -17.877  0.00  0.00    +0.036 C 
ENDROOT
BRANCH   3   6
ATOM      6  C   UNL     1      33.651 -21.252 -19.447  0.00  0.00    +0.001 C 
ATOM      7  C   UNL     1      33.997 -19.526 -21.610  0.00  0.00    +0.000 C 
ATOM      8  C   UNL     1      34.935 -20.943 -19.892  0.00  0.00    +0.000 C 
ATOM      9  C   UNL     1      32.539 -20.700 -20.081  0.00  0.00    +0.000 C 
ATOM     10  C   UNL     1      35.109 -20.079 -20.974  0.00  0.00    +0.000 C 
ATOM     11  C   UNL     1      32.712 -19.836 -21.163  0.00  0.00    +0.000 C 
BRANCH   7  13
ATOM     12  N   UNL     1      34.526 -16.899 -24.897  0.00  0.00    -0.242 NA
ATOM     13  C   UNL     1      34.176 -18.630 -22.730  0.00  0.00    +0.003 C 
ATOM     14  C   UNL     1      33.841 -19.043 -24.015  0.00  0.00    +0.021 C 
ATOM     15  C   UNL     1      34.687 -17.352 -22.529  0.00  0.00    +0.021 C 
ATOM     16  C   UNL     1      34.033 -18.149 -25.055  0.00  0.00    +0.099 C 
ATOM     17  C   UNL     1      34.841 -16.533 -23.635  0.00  0.00    +0.099 C 
ENDBRANCH   7  13
ENDBRANCH   3   6
BRANCH   2  20
ATOM     18  O   UNL     1      34.701 -25.601 -15.680  0.00  0.00    -0.270 OA
ATOM     19  N   UNL     1      35.269 -23.671 -14.571  0.00  0.00    -0.298 N 
ATOM     20  C   UNL     1      34.664 -24.371 -15.611  0.00  0.00    +0.252 C 
ATOM     21  H   UNL     1      35.211 -22.689 -14.560  0.00  0.00    +0.150 HD
BRANCH  19  22
ATOM     22  C   UNL     1      35.980 -24.343 -13.504  0.00  0.00    +0.105 C 
BRANCH  22  23
ATOM     23  C   UNL     1      37.368 -24.736 -13.969  0.00  0.00    -0.004 C 
ATOM     24  C   UNL     1      37.951 -24.036 -15.010  0.00  0.00    -0.003 C 
ATOM     25  C   UNL     1      38.017 -25.783 -13.342  0.00  0.00    -0.003 C 
ATOM     26  C   UNL     1      39.229 -24.398 -15.438  0.00  0.00    -0.000 C 
ATOM     27  C   UNL     1      39.293 -26.145 -13.770  0.00  0.00    -0.000 C 
ATOM     28  C   UNL     1      39.899 -25.453 -14.819  0.00  0.00    -0.000 C 
ENDBRANCH  22  23
BRANCH  22  29
ATOM     29  C   UNL     1      35.978 -23.473 -12.235  0.00  0.00    +0.133 C 
BRANCH  29  31
ATOM     30  O   UNL     1      36.109 -24.016  -9.861  0.00  0.00    -0.250 OA
ATOM     31  C   UNL     1      35.662 -24.251 -10.975  0.00  0.00    +0.316 C 
BRANCH  31  32
ATOM     32  O   UNL     1      34.821 -25.289 -11.229  0.00  0.00    -0.480 OA
ATOM     33  H   UNL     1      34.374 -25.338 -12.051  0.00  0.00    +0.295 HD
ENDBRANCH  31  32
ENDBRANCH  29  31
ENDBRANCH  22  29
ENDBRANCH  19  22
ENDBRANCH   2  20
TORSDOF 8
ENDMDL
MODEL 2
REMARK VINA RESULT:     -11.8      2.755      4.263
REMARK  Name = 448942
REMARK  8 active torsions:
REMARK  status: ('A' for Active; 'I' for Inactive)
REMARK    1  A    between atoms: C_2  and  C_20
REMARK    2  A    between atoms: C_3  and  C_6
REMARK    3  A    between atoms: C_7  and  C_13
REMARK    4  A    between atoms: N_19  and  C_22
REMARK    5  A    between atoms: C_22  and  C_23
REMARK    6  A    between atoms: C_22  and  C_29
REMARK    7  A    between atoms: C_29  and  C_31
REMARK    8  A    between atoms: C_31  and  O_32
REMARK                            x       y       z     vdW  Elec       q    Type
REMARK                         _______ _______ _______ _____ _____    ______ ____
ROOT
ATOM      1  S   UNL     1      36.360 -21.285 -19.210  0.00  0.00    -0.082 S 
ATOM      2  C   UNL     1      34.698 -21.575 -19.345  0.00  0.00    +0.083 C 
ATOM      3  C   UNL     1      34.958 -19.837 -20.803  0.00  0.00    +0.007 C 
ATOM      4  C   UNL     1      34.051 -20.761 -20.207  0.00  0.00    +0.012 C 
ATOM      5  C   UNL     1      36.246 -20.012 -20.349  0.00  0.00    +0.036 C 
ENDROOT
BRANCH   3   6
ATOM      6  C   UNL     1      34.647 -18.816 -21.767  0.00  0.00    +0.001 C 
ATOM      7  C   UNL     1      34.043 -16.838 -23.637  0.00  0.00    +0.000 C 
ATOM      8  C   UNL     1      34.929 -17.482 -21.483  0.00  0.00    +0.000 C 
ATOM      9  C   UNL     1      34.063 -19.165 -22.985  0.00  0.00    +0.000 C 
ATOM     10  C   UNL     1      34.627 -16.491 -22.417  0.00  0.00    +0.000 C 
ATOM     11  C   UNL     1      33.761 -18.175 -23.920  0.00  0.00    +0.000 C 
BRANCH   7  13
ATOM     12  N   UNL     1      33.118 -13.827 -26.477  0.00  0.00    -0.242 NA
ATOM     13  C   UNL     1      33.729 -15.812 -24.605  0.00  0.00    +0.003 C 
ATOM     14  C   UNL     1      33.504 -14.505 -24.188  0.00  0.00    +0.021 C 
ATOM     15  C   UNL     1      33.648 -16.128 -25.958  0.00  0.00    +0.021 C 
ATOM     16  C   UNL     1      33.205 -13.558 -25.155  0.00  0.00    +0.099 C 
ATOM     17  C   UNL     1      33.343 -15.109 -26.844  0.00  0.00    +0.099 C 
ENDBRANCH   7  13
ENDBRANCH   3   6
BRANCH   2  20
ATOM     18  O   UNL     1      33.408 -23.536 -19.022  0.00  0.00    -0.270 OA
ATOM     19  N   UNL     1      34.409 -22.610 -17.174  0.00  0.00    -0.298 N 
ATOM     20  C   UNL     1      34.122 -22.657 -18.535  0.00  0.00    +0.252 C 
ATOM     21  H   UNL     1      34.984 -21.888 -16.833  0.00  0.00    +0.150 HD
BRANCH  19  22
ATOM     22  C   UNL     1      33.888 -23.589 -16.244  0.00  0.00    +0.105 C 
BRANCH  22  23
ATOM     23  C   UNL     1      34.992 -24.074 -15.325  0.00  0.00    -0.004 C 
ATOM     24  C   UNL     1      35.698 -23.150 -14.577  0.00  0.00    -0.003 C 
ATOM     25  C   UNL     1      35.265 -25.427 -15.257  0.00  0.00    -0.003 C 
ATOM     26  C   UNL     1      36.714 -23.596 -13.731  0.00  0.00    -0.000 C 
ATOM     27  C   UNL     1      36.280 -25.873 -14.412  0.00  0.00    -0.000 C 
ATOM     28  C   UNL     1      37.006 -24.957 -13.649  0.00  0.00    -0.000 C 
ENDBRANCH  22  23
BRANCH  22  29
ATOM     29  C   UNL     1      32.671 -23.017 -15.497  0.00  0.00    +0.133 C 
BRANCH  29  31
ATOM     30  O   UNL     1      30.574 -24.244 -15.712  0.00  0.00    -0.250 OA
ATOM     31  C   UNL     1      31.347 -23.393 -16.129  0.00  0.00    +0.316 C 
BRANCH  31  32
ATOM     32  O   UNL     1      31.116 -22.676 -17.261  0.00  0.00    -0.480 OA
ATOM     33  H   UNL     1      30.471 -22.967 -17.875  0.00  0.00    +0.295 HD
ENDBRANCH  31  32
ENDBRANCH  29  31
ENDBRANCH  22  29
ENDBRANCH  19  22
ENDBRANCH   2  20
TORSDOF 8
ENDMDL
MODEL 3
REMARK VINA RESULT:     -11.6      2.421      4.407
REMARK  Name = 448942
REMARK  8 active torsions:
REMARK  status: ('A' for Active; 'I' for Inactive)
REMARK    1  A    between atoms: C_2  and  C_20
REMARK    2  A    between atoms: C_3  and  C_6
REMARK    3  A    between atoms: C_7  and  C_13
REMARK    4  A    between atoms: N_19  and  C_22
REMARK    5  A    between atoms: C_22  and  C_23
REMARK    6  A    between atoms: C_22  and  C_29
REMARK    7  A    between atoms: C_29  and  C_31
REMARK    8  A    between atoms: C_31  and  O_32
REMARK                            x       y       z     vdW  Elec       q    Type
REMARK                         _______ _______ _______ _____ _____    ______ ____
ROOT
ATOM      1  S   UNL     1      36.512 -22.252 -16.815  0.00  0.00    -0.082 S 
ATOM      2  C   UNL     1      34.872 -22.614 -17.028  0.00  0.00    +0.083 C 
ATOM      3  C   UNL     1      35.275 -21.318 -18.864  0.00  0.00    +0.007 C 
ATOM      4  C   UNL     1      34.314 -22.076 -18.135  0.00  0.00    +0.012 C 
ATOM      5  C   UNL     1      36.511 -21.329 -18.258  0.00  0.00    +0.036 C 
ENDROOT
BRANCH   3   6
ATOM      6  C   UNL     1      35.061 -20.598 -20.091  0.00  0.00    +0.001 C 
ATOM      7  C   UNL     1      34.649 -19.203 -22.469  0.00  0.00    +0.000 C 
ATOM      8  C   UNL     1      33.770 -20.443 -20.591  0.00  0.00    +0.000 C 
ATOM      9  C   UNL     1      36.148 -20.056 -20.777  0.00  0.00    +0.000 C 
ATOM     10  C   UNL     1      33.563 -19.746 -21.781  0.00  0.00    +0.000 C 
ATOM     11  C   UNL     1      35.941 -19.359 -21.967  0.00  0.00    +0.000 C 
BRANCH   7  13
ATOM     12  N   UNL     1      34.023 -17.086 -26.091  0.00  0.00    -0.242 NA
ATOM     13  C   UNL     1      34.435 -18.481 -23.703  0.00  0.00    +0.003 C 
ATOM     14  C   UNL     1      33.952 -19.145 -24.825  0.00  0.00    +0.021 C 
ATOM     15  C   UNL     1      34.713 -17.120 -23.775  0.00  0.00    +0.021 C 
ATOM     16  C   UNL     1      33.765 -18.409 -25.984  0.00  0.00    +0.099 C 
ATOM     17  C   UNL     1      34.492 -16.475 -24.980  0.00  0.00    +0.099 C 
ENDBRANCH   7  13
ENDBRANCH   3   6
BRANCH   2  20
ATOM     18  O   UNL     1      34.202 -24.689 -16.102  0.00  0.00    -0.270 OA
ATOM     19  N   UNL     1      33.594 -22.780 -14.978  0.00  0.00    -0.298 N 
ATOM     20  C   UNL     1      34.220 -23.459 -16.019  0.00  0.00    +0.252 C 
ATOM     21  H   UNL     1      33.636 -21.797 -14.956  0.00  0.00    +0.150 HD
BRANCH  19  22
ATOM     22  C   UNL     1      32.883 -23.474 -13.925  0.00  0.00    +0.105 C 
BRANCH  22  23
ATOM     23  C   UNL     1      31.479 -23.817 -14.383  0.00  0.00    -0.004 C 
ATOM     24  C   UNL     1      31.000 -25.098 -14.177  0.00  0.00    -0.003 C 
ATOM     25  C   UNL     1      30.713 -22.843 -14.995  0.00  0.00    -0.003 C 
ATOM     26  C   UNL     1      29.708 -25.414 -14.598  0.00  0.00    -0.000 C 
ATOM     27  C   UNL     1      29.422 -23.159 -15.416  0.00  0.00    -0.000 C 
ATOM     28  C   UNL     1      28.920 -24.446 -15.218  0.00  0.00    -0.000 C 
ENDBRANCH  22  23
BRANCH  22  29
ATOM     29  C   UNL     1      33.693 -24.694 -13.452  0.00  0.00    +0.133 C 
BRANCH  29  31
ATOM     30  O   UNL     1      34.856 -24.973 -11.326  0.00  0.00    -0.250 OA
ATOM     31  C   UNL     1      34.704 -24.362 -12.375  0.00  0.00    +0.316 C 
BRANCH  31  32
ATOM     32  O   UNL     1      35.432 -23.260 -12.700  0.00  0.00    -0.480 OA
ATOM     33  H   UNL     1      36.343 -23.344 -12.899  0.00  0.00    +0.295 HD
ENDBRANCH  31  32
ENDBRANCH  29  31
ENDBRANCH  22  29
ENDBRANCH  19  22
ENDBRANCH   2  20
TORSDOF 8
ENDMDL
MODEL 4
REMARK VINA RESULT:     -11.4      8.160     14.212
REMARK  Name = 448942
REMARK  8 active torsions:
REMARK  status: ('A' for Active; 'I' for Inactive)
REMARK    1  A    between atoms: C_2  and  C_20
REMARK    2  A    between atoms: C_3  and  C_6
REMARK    3  A    between atoms: C_7  and  C_13
REMARK    4  A    between atoms: N_19  and  C_22
REMARK    5  A    between atoms: C_22  and  C_23
REMARK    6  A    between atoms: C_22  and  C_29
REMARK    7  A    between atoms: C_29  and  C_31
REMARK    8  A    between atoms: C_31  and  O_32
REMARK                            x       y       z     vdW  Elec       q    Type
REMARK                         _______ _______ _______ _____ _____    ______ ____
ROOT
ATOM      1  S   UNL     1      33.066 -14.403 -27.427  0.00  0.00    -0.082 S 
ATOM      2  C   UNL     1      33.000 -13.416 -26.054  0.00  0.00    +0.083 C 
ATOM      3  C   UNL     1      33.565 -15.422 -25.121  0.00  0.00    +0.007 C 
ATOM      4  C   UNL     1      33.278 -14.045 -24.891  0.00  0.00    +0.012 C 
ATOM      5  C   UNL     1      33.485 -15.750 -26.456  0.00  0.00    +0.036 C 
ENDROOT
BRANCH   3   6
ATOM      6  C   UNL     1      33.905 -16.413 -24.136  0.00  0.00    +0.001 C 
ATOM      7  C   UNL     1      34.563 -18.334 -22.225  0.00  0.00    +0.000 C 
ATOM      8  C   UNL     1      33.626 -17.757 -24.377  0.00  0.00    +0.000 C 
ATOM      9  C   UNL     1      34.512 -16.027 -22.942  0.00  0.00    +0.000 C 
ATOM     10  C   UNL     1      33.955 -18.719 -23.421  0.00  0.00    +0.000 C 
ATOM     11  C   UNL     1      34.840 -16.988 -21.986  0.00  0.00    +0.000 C 
BRANCH   7  13
ATOM     12  N   UNL     1      35.559 -21.258 -19.319  0.00  0.00    -0.242 NA
ATOM     13  C   UNL     1      34.902 -19.330 -21.234  0.00  0.00    +0.003 C 
ATOM     14  C   UNL     1      36.214 -19.454 -20.790  0.00  0.00    +0.021 C 
ATOM     15  C   UNL     1      33.919 -20.169 -20.721  0.00  0.00    +0.021 C 
ATOM     16  C   UNL     1      36.488 -20.424 -19.840  0.00  0.00    +0.099 C 
ATOM     17  C   UNL     1      34.295 -21.108 -19.775  0.00  0.00    +0.099 C 
ENDBRANCH   7  13
ENDBRANCH   3   6
BRANCH   2  20
ATOM     18  O   UNL     1      32.103 -11.587 -27.264  0.00  0.00    -0.270 OA
ATOM     19  N   UNL     1      33.024 -11.147 -25.206  0.00  0.00    -0.298 N 
ATOM     20  C   UNL     1      32.657 -12.000 -26.243  0.00  0.00    +0.252 C 
ATOM     21  H   UNL     1      33.464 -11.525 -24.411  0.00  0.00    +0.150 HD
BRANCH  19  22
ATOM     22  C   UNL     1      32.781  -9.721 -25.261  0.00  0.00    +0.105 C 
BRANCH  22  23
ATOM     23  C   UNL     1      32.227  -9.235 -23.936  0.00  0.00    -0.004 C 
ATOM     24  C   UNL     1      31.772  -7.933 -23.835  0.00  0.00    -0.003 C 
ATOM     25  C   UNL     1      32.190 -10.105 -22.862  0.00  0.00    -0.003 C 
ATOM     26  C   UNL     1      31.262  -7.486 -22.616  0.00  0.00    -0.000 C 
ATOM     27  C   UNL     1      31.682  -9.658 -21.643  0.00  0.00    -0.000 C 
ATOM     28  C   UNL     1      31.218  -8.347 -21.520  0.00  0.00    -0.000 C 
ENDBRANCH  22  23
BRANCH  22  29
ATOM     29  C   UNL     1      34.055  -8.981 -25.705  0.00  0.00    +0.133 C 
BRANCH  29  31
ATOM     30  O   UNL     1      35.549  -8.519 -23.834  0.00  0.00    -0.250 OA
ATOM     31  C   UNL     1      35.236  -9.217 -24.788  0.00  0.00    +0.316 C 
BRANCH  31  32
ATOM     32  O   UNL     1      35.949 -10.311 -25.168  0.00  0.00    -0.480 OA
ATOM     33  H   UNL     1      35.543 -10.977 -25.685  0.00  0.00    +0.295 HD
ENDBRANCH  31  32
ENDBRANCH  29  31
ENDBRANCH  22  29
ENDBRANCH  19  22
ENDBRANCH   2  20
TORSDOF 8
ENDMDL
MODEL 5
REMARK VINA RESULT:     -11.4      4.237     11.276
REMARK  Name = 448942
REMARK  8 active torsions:
REMARK  status: ('A' for Active; 'I' for Inactive)
REMARK    1  A    between atoms: C_2  and  C_20
REMARK    2  A    between atoms: C_3  and  C_6
REMARK    3  A    between atoms: C_7  and  C_13
REMARK    4  A    between atoms: N_19  and  C_22
REMARK    5  A    between atoms: C_22  and  C_23
REMARK    6  A    between atoms: C_22  and  C_29
REMARK    7  A    between atoms: C_29  and  C_31
REMARK    8  A    between atoms: C_31  and  O_32
REMARK                            x       y       z     vdW  Elec       q    Type
REMARK                         _______ _______ _______ _____ _____    ______ ____
ROOT
ATOM      1  S   UNL     1      32.907 -20.022 -21.129  0.00  0.00    -0.082 S 
ATOM      2  C   UNL     1      34.594 -19.910 -21.219  0.00  0.00    +0.083 C 
ATOM      3  C   UNL     1      34.341 -21.192 -19.346  0.00  0.00    +0.007 C 
ATOM      4  C   UNL     1      35.256 -20.558 -20.236  0.00  0.00    +0.012 C 
ATOM      5  C   UNL     1      33.031 -20.980 -19.715  0.00  0.00    +0.036 C 
ENDROOT
BRANCH   3   6
ATOM      6  C   UNL     1      34.662 -21.973 -18.183  0.00  0.00    +0.001 C 
ATOM      7  C   UNL     1      35.287 -23.487 -15.926  0.00  0.00    +0.000 C 
ATOM      8  C   UNL     1      33.704 -22.816 -17.623  0.00  0.00    +0.000 C 
ATOM      9  C   UNL     1      35.934 -21.885 -17.616  0.00  0.00    +0.000 C 
ATOM     10  C   UNL     1      34.015 -23.573 -16.494  0.00  0.00    +0.000 C 
ATOM     11  C   UNL     1      36.245 -22.643 -16.487  0.00  0.00    +0.000 C 
BRANCH   7  13
ATOM     12  N   UNL     1      36.236 -25.784 -12.490  0.00  0.00    -0.242 NA
ATOM     13  C   UNL     1      35.610 -24.271 -14.755  0.00  0.00    +0.003 C 
ATOM     14  C   UNL     1      35.129 -23.891 -13.507  0.00  0.00    +0.021 C 
ATOM     15  C   UNL     1      36.404 -25.407 -14.871  0.00  0.00    +0.021 C 
ATOM     16  C   UNL     1      35.467 -24.674 -12.415  0.00  0.00    +0.099 C 
ATOM     17  C   UNL     1      36.685 -26.122 -13.719  0.00  0.00    +0.099 C 
ENDBRANCH   7  13
ENDBRANCH   3   6
BRANCH   2  20
ATOM     18  O   UNL     1      36.379 -19.150 -22.578  0.00  0.00    -0.270 OA
ATOM     19  N   UNL     1      34.273 -18.369 -23.060  0.00  0.00    -0.298 N 
ATOM     20  C   UNL     1      35.172 -19.139 -22.327  0.00  0.00    +0.252 C 
ATOM     21  H   UNL     1      33.319 -18.394 -22.820  0.00  0.00    +0.150 HD
BRANCH  19  22
ATOM     22  C   UNL     1      34.697 -17.533 -24.162  0.00  0.00    +0.105 C 
BRANCH  22  23
ATOM     23  C   UNL     1      33.580 -17.404 -25.179  0.00  0.00    -0.004 C 
ATOM     24  C   UNL     1      32.714 -18.465 -25.364  0.00  0.00    -0.003 C 
ATOM     25  C   UNL     1      33.456 -16.229 -25.897  0.00  0.00    -0.003 C 
ATOM     26  C   UNL     1      31.686 -18.348 -26.300  0.00  0.00    -0.000 C 
ATOM     27  C   UNL     1      32.429 -16.111 -26.832  0.00  0.00    -0.000 C 
ATOM     28  C   UNL     1      31.544 -17.171 -27.035  0.00  0.00    -0.000 C 
ENDBRANCH  22  23
BRANCH  22  29
ATOM     29  C   UNL     1      35.211 -16.181 -23.636  0.00  0.00    +0.133 C 
BRANCH  29  31
ATOM     30  O   UNL     1      34.642 -16.188 -21.265  0.00  0.00    -0.250 OA
ATOM     31  C   UNL     1      34.499 -15.714 -22.384  0.00  0.00    +0.316 C 
BRANCH  31  32
ATOM     32  O   UNL     1      33.638 -14.697 -22.651  0.00  0.00    -0.480 OA
ATOM     33  H   UNL     1      33.590 -14.340 -23.515  0.00  0.00    +0.295 HD
ENDBRANCH  31  32
ENDBRANCH  29  31
ENDBRANCH  22  29
ENDBRANCH  19  22
ENDBRANCH   2  20
TORSDOF 8
ENDMDL
MODEL 6
REMARK VINA RESULT:     -11.3      1.716      2.808
REMARK  Name = 448942
REMARK  8 active torsions:
REMARK  status: ('A' for Active; 'I' for Inactive)
REMARK    1  A    between atoms: C_2  and  C_20
REMARK    2  A    between atoms: C_3  and  C_6
REMARK    3  A    between atoms: C_7  and  C_13
REMARK    4  A    between atoms: N_19  and  C_22
REMARK    5  A    between atoms: C_22  and  C_23
REMARK    6  A    between atoms: C_22  and  C_29
REMARK    7  A    between atoms: C_29  and  C_31
REMARK    8  A    between atoms: C_31  and  O_32
REMARK                            x       y       z     vdW  Elec       q    Type
REMARK                         _______ _______ _______ _____ _____    ______ ____
ROOT
ATOM      1  S   UNL     1      33.118 -23.599 -16.772  0.00  0.00    -0.082 S 
ATOM      2  C   UNL     1      34.780 -23.279 -16.745  0.00  0.00    +0.083 C 
ATOM      3  C   UNL     1      34.118 -21.998 -18.516  0.00  0.00    +0.007 C 
ATOM      4  C   UNL     1      35.207 -22.426 -17.702  0.00  0.00    +0.012 C 
ATOM      5  C   UNL     1      32.925 -22.560 -18.121  0.00  0.00    +0.036 C 
ENDROOT
BRANCH   3   6
ATOM      6  C   UNL     1      34.173 -21.094 -19.633  0.00  0.00    +0.001 C 
ATOM      7  C   UNL     1      34.278 -19.340 -21.798  0.00  0.00    +0.000 C 
ATOM      8  C   UNL     1      35.406 -20.670 -20.125  0.00  0.00    +0.000 C 
ATOM      9  C   UNL     1      32.992 -20.642 -20.221  0.00  0.00    +0.000 C 
ATOM     10  C   UNL     1      35.459 -19.792 -21.208  0.00  0.00    +0.000 C 
ATOM     11  C   UNL     1      33.045 -19.764 -21.303  0.00  0.00    +0.000 C 
BRANCH   7  13
ATOM     12  N   UNL     1      34.442 -16.669 -25.088  0.00  0.00    -0.242 NA
ATOM     13  C   UNL     1      34.333 -18.429 -22.919  0.00  0.00    +0.003 C 
ATOM     14  C   UNL     1      34.029 -18.879 -24.199  0.00  0.00    +0.021 C 
ATOM     15  C   UNL     1      34.692 -17.100 -22.723  0.00  0.00    +0.021 C 
ATOM     16  C   UNL     1      34.097 -17.968 -25.241  0.00  0.00    +0.099 C 
ATOM     17  C   UNL     1      34.732 -16.268 -23.830  0.00  0.00    +0.099 C 
ENDBRANCH   7  13
ENDBRANCH   3   6
BRANCH   2  20
ATOM     18  O   UNL     1      35.116 -24.774 -14.939  0.00  0.00    -0.270 OA
ATOM     19  N   UNL     1      36.919 -23.536 -15.639  0.00  0.00    -0.298 N 
ATOM     20  C   UNL     1      35.589 -23.938 -15.712  0.00  0.00    +0.252 C 
ATOM     21  H   UNL     1      37.250 -22.864 -16.279  0.00  0.00    +0.150 HD
BRANCH  19  22
ATOM     22  C   UNL     1      37.832 -24.072 -14.653  0.00  0.00    +0.105 C 
BRANCH  22  23
ATOM     23  C   UNL     1      37.162 -24.121 -13.294  0.00  0.00    -0.004 C 
ATOM     24  C   UNL     1      37.004 -22.947 -12.580  0.00  0.00    -0.003 C 
ATOM     25  C   UNL     1      36.726 -25.337 -12.801  0.00  0.00    -0.003 C 
ATOM     26  C   UNL     1      36.388 -22.991 -11.330  0.00  0.00    -0.000 C 
ATOM     27  C   UNL     1      36.111 -25.381 -11.551  0.00  0.00    -0.000 C 
ATOM     28  C   UNL     1      35.942 -24.208 -10.814  0.00  0.00    -0.000 C 
ENDBRANCH  22  23
BRANCH  22  29
ATOM     29  C   UNL     1      38.379 -25.433 -15.119  0.00  0.00    +0.133 C 
BRANCH  29  31
ATOM     30  O   UNL     1      40.655 -24.717 -14.615  0.00  0.00    -0.250 OA
ATOM     31  C   UNL     1      39.855 -25.616 -14.835  0.00  0.00    +0.316 C 
BRANCH  31  32
ATOM     32  O   UNL     1      40.210 -26.928 -14.876  0.00  0.00    -0.480 OA
ATOM     33  H   UNL     1      39.593 -27.587 -14.631  0.00  0.00    +0.295 HD
ENDBRANCH  31  32
ENDBRANCH  29  31
ENDBRANCH  22  29
ENDBRANCH  19  22
ENDBRANCH   2  20
TORSDOF 8
ENDMDL
MODEL 7
REMARK VINA RESULT:     -11.3      2.094      2.991
REMARK  Name = 448942
REMARK  8 active torsions:
REMARK  status: ('A' for Active; 'I' for Inactive)
REMARK    1  A    between atoms: C_2  and  C_20
REMARK    2  A    between atoms: C_3  and  C_6
REMARK    3  A    between atoms: C_7  and  C_13
REMARK    4  A    between atoms: N_19  and  C_22
REMARK    5  A    between atoms: C_22  and  C_23
REMARK    6  A    between atoms: C_22  and  C_29
REMARK    7  A    between atoms: C_29  and  C_31
REMARK    8  A    between atoms: C_31  and  O_32
REMARK                            x       y       z     vdW  Elec       q    Type
REMARK                         _______ _______ _______ _____ _____    ______ ____
ROOT
ATOM      1  S   UNL     1      36.170 -21.909 -17.786  0.00  0.00    -0.082 S 
ATOM      2  C   UNL     1      34.545 -22.329 -18.012  0.00  0.00    +0.083 C 
ATOM      3  C   UNL     1      34.883 -20.924 -19.779  0.00  0.00    +0.007 C 
ATOM      4  C   UNL     1      33.959 -21.759 -19.087  0.00  0.00    +0.012 C 
ATOM      5  C   UNL     1      36.121 -20.914 -19.178  0.00  0.00    +0.036 C 
ENDROOT
BRANCH   3   6
ATOM      6  C   UNL     1      34.632 -20.151 -20.966  0.00  0.00    +0.001 C 
ATOM      7  C   UNL     1      34.144 -18.652 -23.265  0.00  0.00    +0.000 C 
ATOM      8  C   UNL     1      35.689 -19.528 -21.627  0.00  0.00    +0.000 C 
ATOM      9  C   UNL     1      33.331 -20.025 -21.452  0.00  0.00    +0.000 C 
ATOM     10  C   UNL     1      35.446 -18.778 -22.778  0.00  0.00    +0.000 C 
ATOM     11  C   UNL     1      33.088 -19.275 -22.602  0.00  0.00    +0.000 C 
BRANCH   7  13
ATOM     12  N   UNL     1      33.405 -16.369 -26.763  0.00  0.00    -0.242 NA
ATOM     13  C   UNL     1      33.892 -17.873 -24.457  0.00  0.00    +0.003 C 
ATOM     14  C   UNL     1      32.948 -18.301 -25.384  0.00  0.00    +0.021 C 
ATOM     15  C   UNL     1      34.593 -16.693 -24.683  0.00  0.00    +0.021 C 
ATOM     16  C   UNL     1      32.743 -17.521 -26.510  0.00  0.00    +0.099 C 
ATOM     17  C   UNL     1      34.315 -15.984 -25.840  0.00  0.00    +0.099 C 
ENDBRANCH   7  13
ENDBRANCH   3   6
BRANCH   2  20
ATOM     18  O   UNL     1      32.830 -23.766 -17.234  0.00  0.00    -0.270 OA
ATOM     19  N   UNL     1      34.670 -23.487 -15.888  0.00  0.00    -0.298 N 
ATOM     20  C   UNL     1      33.935 -23.252 -17.046  0.00  0.00    +0.252 C 
ATOM     21  H   UNL     1      35.548 -23.053 -15.785  0.00  0.00    +0.150 HD
BRANCH  19  22
ATOM     22  C   UNL     1      34.186 -24.348 -14.831  0.00  0.00    +0.105 C 
BRANCH  22  23
ATOM     23  C   UNL     1      35.351 -24.899 -14.032  0.00  0.00    -0.004 C 
ATOM     24  C   UNL     1      35.453 -24.585 -12.689  0.00  0.00    -0.003 C 
ATOM     25  C   UNL     1      36.282 -25.700 -14.665  0.00  0.00    -0.003 C 
ATOM     26  C   UNL     1      36.525 -25.092 -11.953  0.00  0.00    -0.000 C 
ATOM     27  C   UNL     1      37.354 -26.206 -13.930  0.00  0.00    -0.000 C 
ATOM     28  C   UNL     1      37.476 -25.901 -12.574  0.00  0.00    -0.000 C 
ENDBRANCH  22  23
BRANCH  22  29
ATOM     29  C   UNL     1      33.148 -23.604 -13.973  0.00  0.00    +0.133 C 
BRANCH  29  31
ATOM     30  O   UNL     1      31.429 -25.098 -13.100  0.00  0.00    -0.250 OA
ATOM     31  C   UNL     1      31.797 -24.288 -13.939  0.00  0.00    +0.316 C 
BRANCH  31  32
ATOM     32  O   UNL     1      31.022 -23.910 -14.991  0.00  0.00    -0.480 OA
ATOM     33  H   UNL     1      31.420 -23.690 -15.809  0.00  0.00    +0.295 HD
ENDBRANCH  31  32
ENDBRANCH  29  31
ENDBRANCH  22  29
ENDBRANCH  19  22
ENDBRANCH   2  20
TORSDOF 8
ENDMDL
MODEL 8
REMARK VINA RESULT:     -11.2      6.602     12.672
REMARK  Name = 448942
REMARK  8 active torsions:
REMARK  status: ('A' for Active; 'I' for Inactive)
REMARK    1  A    between atoms: C_2  and  C_20
REMARK    2  A    between atoms: C_3  and  C_6
REMARK    3  A    between atoms: C_7  and  C_13
REMARK    4  A    between atoms: N_19  and  C_22
REMARK    5  A    between atoms: C_22  and  C_23
REMARK    6  A    between atoms: C_22  and  C_29
REMARK    7  A    between atoms: C_29  and  C_31
REMARK    8  A    between atoms: C_31  and  O_32
REMARK                            x       y       z     vdW  Elec       q    Type
REMARK                         _______ _______ _______ _____ _____    ______ ____
ROOT
ATOM      1  S   UNL     1      34.149 -17.534 -25.553  0.00  0.00    -0.082 S 
ATOM      2  C   UNL     1      33.802 -16.408 -24.337  0.00  0.00    +0.083 C 
ATOM      3  C   UNL     1      34.295 -18.258 -23.092  0.00  0.00    +0.007 C 
ATOM      4  C   UNL     1      33.906 -16.887 -23.078  0.00  0.00    +0.012 C 
ATOM      5  C   UNL     1      34.460 -18.735 -24.373  0.00  0.00    +0.036 C 
ENDROOT
BRANCH   3   6
ATOM      6  C   UNL     1      34.508 -19.110 -21.953  0.00  0.00    +0.001 C 
ATOM      7  C   UNL     1      34.922 -20.762 -19.746  0.00  0.00    +0.000 C 
ATOM      8  C   UNL     1      33.433 -19.787 -21.380  0.00  0.00    +0.000 C 
ATOM      9  C   UNL     1      35.790 -19.257 -21.425  0.00  0.00    +0.000 C 
ATOM     10  C   UNL     1      33.640 -20.613 -20.275  0.00  0.00    +0.000 C 
ATOM     11  C   UNL     1      35.997 -20.083 -20.321  0.00  0.00    +0.000 C 
BRANCH   7  13
ATOM     12  N   UNL     1      35.552 -23.272 -16.386  0.00  0.00    -0.242 NA
ATOM     13  C   UNL     1      35.137 -21.617 -18.600  0.00  0.00    +0.003 C 
ATOM     14  C   UNL     1      36.364 -21.614 -17.947  0.00  0.00    +0.021 C 
ATOM     15  C   UNL     1      34.117 -22.447 -18.146  0.00  0.00    +0.021 C 
ATOM     16  C   UNL     1      36.520 -22.452 -16.855  0.00  0.00    +0.099 C 
ATOM     17  C   UNL     1      34.373 -23.247 -17.046  0.00  0.00    +0.099 C 
ENDBRANCH   7  13
ENDBRANCH   3   6
BRANCH   2  20
ATOM     18  O   UNL     1      33.308 -14.727 -25.932  0.00  0.00    -0.270 OA
ATOM     19  N   UNL     1      33.248 -14.134 -23.713  0.00  0.00    -0.298 N 
ATOM     20  C   UNL     1      33.428 -15.048 -24.748  0.00  0.00    +0.252 C 
ATOM     21  H   UNL     1      33.356 -14.439 -22.784  0.00  0.00    +0.150 HD
BRANCH  19  22
ATOM     22  C   UNL     1      32.909 -12.750 -23.961  0.00  0.00    +0.105 C 
BRANCH  22  23
ATOM     23  C   UNL     1      32.311 -12.128 -22.714  0.00  0.00    -0.004 C 
ATOM     24  C   UNL     1      32.134 -12.913 -21.591  0.00  0.00    -0.003 C 
ATOM     25  C   UNL     1      31.956 -10.792 -22.732  0.00  0.00    -0.003 C 
ATOM     26  C   UNL     1      31.583 -12.342 -20.443  0.00  0.00    -0.000 C 
ATOM     27  C   UNL     1      31.405 -10.220 -21.586  0.00  0.00    -0.000 C 
ATOM     28  C   UNL     1      31.218 -10.996 -20.442  0.00  0.00    -0.000 C 
ENDBRANCH  22  23
BRANCH  22  29
ATOM     29  C   UNL     1      34.134 -11.991 -24.501  0.00  0.00    +0.133 C 
BRANCH  29  31
ATOM     30  O   UNL     1      34.685 -10.645 -26.459  0.00  0.00    -0.250 OA
ATOM     31  C   UNL     1      33.908 -11.385 -25.871  0.00  0.00    +0.316 C 
BRANCH  31  32
ATOM     32  O   UNL     1      32.700 -11.744 -26.380  0.00  0.00    -0.480 OA
ATOM     33  H   UNL     1      31.919 -11.580 -25.891  0.00  0.00    +0.295 HD
ENDBRANCH  31  32
ENDBRANCH  29  31
ENDBRANCH  22  29
ENDBRANCH  19  22
ENDBRANCH   2  20
TORSDOF 8
ENDMDL
MODEL 9
REMARK VINA RESULT:     -11.1      8.284     14.154
REMARK  Name = 448942
REMARK  8 active torsions:
REMARK  status: ('A' for Active; 'I' for Inactive)
REMARK    1  A    between atoms: C_2  and  C_20
REMARK    2  A    between atoms: C_3  and  C_6
REMARK    3  A    between atoms: C_7  and  C_13
REMARK    4  A    between atoms: N_19  and  C_22
REMARK    5  A    between atoms: C_22  and  C_23
REMARK    6  A    between atoms: C_22  and  C_29
REMARK    7  A    between atoms: C_29  and  C_31
REMARK    8  A    between atoms: C_31  and  O_32
REMARK                            x       y       z     vdW  Elec       q    Type
REMARK                         _______ _______ _______ _____ _____    ______ ____
ROOT
ATOM      1  S   UNL     1      33.080 -14.081 -26.648  0.00  0.00    -0.082 S 
ATOM      2  C   UNL     1      33.297 -13.180 -25.231  0.00  0.00    +0.083 C 
ATOM      3  C   UNL     1      33.703 -15.293 -24.469  0.00  0.00    +0.007 C 
ATOM      4  C   UNL     1      33.622 -13.909 -24.142  0.00  0.00    +0.012 C 
ATOM      5  C   UNL     1      33.430 -15.527 -25.798  0.00  0.00    +0.036 C 
ENDROOT
BRANCH   3   6
ATOM      6  C   UNL     1      34.022 -16.378 -23.580  0.00  0.00    +0.001 C 
ATOM      7  C   UNL     1      34.640 -18.481 -21.857  0.00  0.00    +0.000 C 
ATOM      8  C   UNL     1      34.559 -16.111 -22.322  0.00  0.00    +0.000 C 
ATOM      9  C   UNL     1      33.793 -17.694 -23.979  0.00  0.00    +0.000 C 
ATOM     10  C   UNL     1      34.869 -17.163 -21.460  0.00  0.00    +0.000 C 
ATOM     11  C   UNL     1      34.103 -18.746 -23.117  0.00  0.00    +0.000 C 
BRANCH   7  13
ATOM     12  N   UNL     1      35.586 -21.678 -19.236  0.00  0.00    -0.242 NA
ATOM     13  C   UNL     1      34.963 -19.571 -20.964  0.00  0.00    +0.003 C 
ATOM     14  C   UNL     1      33.957 -20.401 -20.484  0.00  0.00    +0.021 C 
ATOM     15  C   UNL     1      36.282 -19.793 -20.580  0.00  0.00    +0.021 C 
ATOM     16  C   UNL     1      34.316 -21.431 -19.630  0.00  0.00    +0.099 C 
ATOM     17  C   UNL     1      36.538 -20.850 -19.722  0.00  0.00    +0.099 C 
ENDBRANCH   7  13
ENDBRANCH   3   6
BRANCH   2  20
ATOM     18  O   UNL     1      32.780 -11.158 -26.352  0.00  0.00    -0.270 OA
ATOM     19  N   UNL     1      33.387 -11.018 -24.142  0.00  0.00    -0.298 N 
ATOM     20  C   UNL     1      33.119 -11.724 -25.311  0.00  0.00    +0.252 C 
ATOM     21  H   UNL     1      33.655 -11.516 -23.336  0.00  0.00    +0.150 HD
BRANCH  19  22
ATOM     22  C   UNL     1      33.286  -9.577 -24.073  0.00  0.00    +0.105 C 
BRANCH  22  23
ATOM     23  C   UNL     1      32.707  -9.157 -22.736  0.00  0.00    -0.004 C 
ATOM     24  C   UNL     1      33.152  -7.987 -22.149  0.00  0.00    -0.003 C 
ATOM     25  C   UNL     1      31.751  -9.955 -22.136  0.00  0.00    -0.003 C 
ATOM     26  C   UNL     1      32.620  -7.601 -20.918  0.00  0.00    -0.000 C 
ATOM     27  C   UNL     1      31.219  -9.569 -20.906  0.00  0.00    -0.000 C 
ATOM     28  C   UNL     1      31.655  -8.392 -20.297  0.00  0.00    -0.000 C 
ENDBRANCH  22  23
BRANCH  22  29
ATOM     29  C   UNL     1      34.648  -8.932 -24.384  0.00  0.00    +0.133 C 
BRANCH  29  31
ATOM     30  O   UNL     1      34.483  -7.028 -25.898  0.00  0.00    -0.250 OA
ATOM     31  C   UNL     1      34.685  -8.221 -25.720  0.00  0.00    +0.316 C 
BRANCH  31  32
ATOM     32  O   UNL     1      34.948  -9.085 -26.736  0.00  0.00    -0.480 OA
ATOM     33  H   UNL     1      34.661  -8.887 -27.605  0.00  0.00    +0.295 HD
ENDBRANCH  31  32
ENDBRANCH  29  31
ENDBRANCH  22  29
ENDBRANCH  19  22
ENDBRANCH   2  20
TORSDOF 8
ENDMDL
