MODEL 1
REMARK VINA RESULT:     -13.4      0.000      0.000
REMARK  Name = 5288710
REMARK  3 active torsions:
REMARK  status: ('A' for Active; 'I' for Inactive)
REMARK    1  A    between atoms: C_6  and  N_18
REMARK    2  A    between atoms: C_9  and  C_15
REMARK    3  A    between atoms: N_18  and  C_29
REMARK                            x       y       z     vdW  Elec       q    Type
REMARK                         _______ _______ _______ _____ _____    ______ ____
ROOT
ATOM      1  O   UNL     1      34.896 -23.874 -16.215  0.00  0.00    -0.270 OA
ATOM      2  N   UNL     1      32.914 -24.196 -14.972  0.00  0.00    -0.280 N 
ATOM      3  C   UNL     1      31.391 -23.182 -16.365  0.00  0.00    +0.019 C 
ATOM      4  C   UNL     1      32.718 -23.091 -16.965  0.00  0.00    +0.069 C 
ATOM      5  C   UNL     1      31.567 -23.863 -15.157  0.00  0.00    +0.051 C 
ATOM      6  C   UNL     1      33.071 -22.528 -18.124  0.00  0.00    +0.066 C 
ATOM      7  C   UNL     1      33.697 -23.756 -16.043  0.00  0.00    +0.251 C 
ATOM      8  C   UNL     1      30.137 -22.754 -16.758  0.00  0.00    +0.005 C 
ATOM      9  C   UNL     1      29.059 -23.023 -15.909  0.00  0.00    +0.036 C 
ATOM     10  C   UNL     1      30.517 -24.139 -14.304  0.00  0.00    +0.015 C 
ATOM     11  C   UNL     1      29.246 -23.709 -14.693  0.00  0.00    +0.004 C 
ATOM     12  H   UNL     1      33.263 -24.678 -14.188  0.00  0.00    +0.155 HD
ENDROOT
BRANCH   9  15
ATOM     13  O   UNL     1      27.521 -22.401 -17.609  0.00  0.00    -0.431 OA
ATOM     14  N   UNL     1      25.604 -21.936 -16.501  0.00  0.00    -0.203 NA
ATOM     15  C   UNL     1      27.733 -22.591 -16.282  0.00  0.00    +0.166 C 
ATOM     16  C   UNL     1      26.578 -22.311 -15.611  0.00  0.00    +0.140 C 
ATOM     17  C   UNL     1      26.218 -22.009 -17.660  0.00  0.00    +0.285 C 
ENDBRANCH   9  15
BRANCH   6  18
ATOM     18  N   UNL     1      34.305 -22.451 -18.667  0.00  0.00    -0.311 N 
ATOM     19  H   UNL     1      34.915 -23.190 -18.445  0.00  0.00    +0.152 HD
BRANCH  18  29
ATOM     20  S   UNL     1      34.908 -17.979 -23.005  0.00  0.00    -0.002 S 
ATOM     21  O   UNL     1      35.030 -18.560 -24.328  0.00  0.00    -0.172 OA
ATOM     22  O   UNL     1      34.636 -16.569 -22.816  0.00  0.00    -0.172 OA
ATOM     23  C   UNL     1      33.686 -18.916 -22.099  0.00  0.00    +0.177 C 
ATOM     24  C   UNL     1      36.376 -18.400 -22.079  0.00  0.00    +0.177 C 
ATOM     25  C   UNL     1      34.519 -19.744 -21.181  0.00  0.00    +0.000 C 
ATOM     26  C   UNL     1      35.894 -19.480 -21.170  0.00  0.00    -0.001 C 
ATOM     27  C   UNL     1      33.987 -20.727 -20.350  0.00  0.00    +0.012 C 
ATOM     28  C   UNL     1      36.740 -20.200 -20.329  0.00  0.00    -0.002 C 
ATOM     29  C   UNL     1      34.835 -21.451 -19.510  0.00  0.00    +0.048 C 
ATOM     30  C   UNL     1      36.207 -21.188 -19.499  0.00  0.00    +0.014 C 
ENDBRANCH  18  29
ENDBRANCH   6  18
TORSDOF 3
ENDMDL
MODEL 2
REMARK VINA RESULT:     -12.1      1.978      2.933
REMARK  Name = 5288710
REMARK  3 active torsions:
REMARK  status: ('A' for Active; 'I' for Inactive)
REMARK    1  A    between atoms: C_6  and  N_18
REMARK    2  A    between atoms: C_9  and  C_15
REMARK    3  A    between atoms: N_18  and  C_29
REMARK                            x       y       z     vdW  Elec       q    Type
REMARK                         _______ _______ _______ _____ _____    ______ ____
ROOT
ATOM      1  O   UNL     1      36.713 -21.685 -18.643  0.00  0.00    -0.270 OA
ATOM      2  N   UNL     1      35.526 -22.674 -16.857  0.00  0.00    -0.280 N 
ATOM      3  C   UNL     1      33.371 -22.459 -17.631  0.00  0.00    +0.019 C 
ATOM      4  C   UNL     1      34.288 -21.893 -18.615  0.00  0.00    +0.069 C 
ATOM      5  C   UNL     1      34.175 -22.919 -16.584  0.00  0.00    +0.051 C 
ATOM      6  C   UNL     1      34.002 -21.326 -19.790  0.00  0.00    +0.066 C 
ATOM      7  C   UNL     1      35.687 -22.041 -18.093  0.00  0.00    +0.251 C 
ATOM      8  C   UNL     1      31.997 -22.597 -17.579  0.00  0.00    +0.005 C 
ATOM      9  C   UNL     1      31.444 -23.207 -16.449  0.00  0.00    +0.036 C 
ATOM     10  C   UNL     1      33.650 -23.525 -15.460  0.00  0.00    +0.015 C 
ATOM     11  C   UNL     1      32.262 -23.667 -15.399  0.00  0.00    +0.004 C 
ATOM     12  H   UNL     1      36.266 -22.915 -16.255  0.00  0.00    +0.155 HD
ENDROOT
BRANCH   9  15
ATOM     13  O   UNL     1      29.268 -22.524 -17.114  0.00  0.00    -0.431 OA
ATOM     14  N   UNL     1      27.870 -23.889 -15.974  0.00  0.00    -0.203 NA
ATOM     15  C   UNL     1      30.013 -23.368 -16.355  0.00  0.00    +0.166 C 
ATOM     16  C   UNL     1      29.171 -24.193 -15.666  0.00  0.00    +0.140 C 
ATOM     17  C   UNL     1      27.990 -22.900 -16.831  0.00  0.00    +0.285 C 
ENDBRANCH   9  15
BRANCH   6  18
ATOM     18  N   UNL     1      34.862 -20.805 -20.691  0.00  0.00    -0.311 N 
ATOM     19  H   UNL     1      35.687 -21.321 -20.841  0.00  0.00    +0.152 HD
BRANCH  18  29
ATOM     20  S   UNL     1      33.756 -16.755 -25.333  0.00  0.00    -0.002 S 
ATOM     21  O   UNL     1      34.867 -16.725 -26.265  0.00  0.00    -0.172 OA
ATOM     22  O   UNL     1      32.473 -16.168 -25.661  0.00  0.00    -0.172 OA
ATOM     23  C   UNL     1      33.490 -18.452 -24.843  0.00  0.00    +0.177 C 
ATOM     24  C   UNL     1      34.313 -16.064 -23.783  0.00  0.00    +0.177 C 
ATOM     25  C   UNL     1      34.072 -18.494 -23.471  0.00  0.00    +0.000 C 
ATOM     26  C   UNL     1      34.492 -17.274 -22.929  0.00  0.00    -0.001 C 
ATOM     27  C   UNL     1      34.191 -19.668 -22.731  0.00  0.00    +0.012 C 
ATOM     28  C   UNL     1      35.033 -17.225 -21.646  0.00  0.00    -0.002 C 
ATOM     29  C   UNL     1      34.736 -19.620 -21.447  0.00  0.00    +0.048 C 
ATOM     30  C   UNL     1      35.155 -18.402 -20.906  0.00  0.00    +0.014 C 
ENDBRANCH  18  29
ENDBRANCH   6  18
TORSDOF 3
ENDMDL
MODEL 3
REMARK VINA RESULT:     -11.9      2.409      5.186
REMARK  Name = 5288710
REMARK  3 active torsions:
REMARK  status: ('A' for Active; 'I' for Inactive)
REMARK    1  A    between atoms: C_6  and  N_18
REMARK    2  A    between atoms: C_9  and  C_15
REMARK    3  A    between atoms: N_18  and  C_29
REMARK                            x       y       z     vdW  Elec       q    Type
REMARK                         _______ _______ _______ _____ _____    ______ ____
ROOT
ATOM      1  O   UNL     1      31.015 -22.383 -17.908  0.00  0.00    -0.270 OA
ATOM      2  N   UNL     1      31.071 -23.106 -15.660  0.00  0.00    -0.280 N 
ATOM      3  C   UNL     1      33.322 -23.507 -15.417  0.00  0.00    +0.019 C 
ATOM      4  C   UNL     1      33.067 -23.039 -16.775  0.00  0.00    +0.069 C 
ATOM      5  C   UNL     1      32.077 -23.528 -14.783  0.00  0.00    +0.051 C 
ATOM      6  C   UNL     1      33.940 -22.851 -17.769  0.00  0.00    +0.066 C 
ATOM      7  C   UNL     1      31.595 -22.783 -16.915  0.00  0.00    +0.251 C 
ATOM      8  C   UNL     1      34.466 -23.886 -14.740  0.00  0.00    +0.005 C 
ATOM      9  C   UNL     1      34.332 -24.290 -13.408  0.00  0.00    +0.036 C 
ATOM     10  C   UNL     1      31.922 -23.923 -13.469  0.00  0.00    +0.015 C 
ATOM     11  C   UNL     1      33.073 -24.308 -12.777  0.00  0.00    +0.004 C 
ATOM     12  H   UNL     1      30.118 -23.043 -15.422  0.00  0.00    +0.155 HD
ENDROOT
BRANCH   9  15
ATOM     13  O   UNL     1      36.307 -25.605 -13.273  0.00  0.00    -0.431 OA
ATOM     14  N   UNL     1      37.197 -25.090 -11.259  0.00  0.00    -0.203 NA
ATOM     15  C   UNL     1      35.502 -24.695 -12.666  0.00  0.00    +0.166 C 
ATOM     16  C   UNL     1      36.038 -24.383 -11.450  0.00  0.00    +0.140 C 
ATOM     17  C   UNL     1      37.303 -25.790 -12.365  0.00  0.00    +0.285 C 
ENDBRANCH   9  15
BRANCH   6  18
ATOM     18  N   UNL     1      33.688 -22.417 -19.023  0.00  0.00    -0.311 N 
ATOM     19  H   UNL     1      32.943 -22.862 -19.487  0.00  0.00    +0.152 HD
BRANCH  18  29
ATOM     20  S   UNL     1      34.945 -17.755 -23.005  0.00  0.00    -0.002 S 
ATOM     21  O   UNL     1      35.141 -18.265 -24.349  0.00  0.00    -0.172 OA
ATOM     22  O   UNL     1      34.749 -16.343 -22.750  0.00  0.00    -0.172 OA
ATOM     23  C   UNL     1      33.593 -18.655 -22.263  0.00  0.00    +0.177 C 
ATOM     24  C   UNL     1      36.299 -18.329 -21.992  0.00  0.00    +0.177 C 
ATOM     25  C   UNL     1      34.290 -19.591 -21.335  0.00  0.00    +0.000 C 
ATOM     26  C   UNL     1      35.673 -19.424 -21.196  0.00  0.00    -0.001 C 
ATOM     27  C   UNL     1      33.627 -20.581 -20.613  0.00  0.00    +0.012 C 
ATOM     28  C   UNL     1      36.396 -20.248 -20.336  0.00  0.00    -0.002 C 
ATOM     29  C   UNL     1      34.352 -21.409 -19.755  0.00  0.00    +0.048 C 
ATOM     30  C   UNL     1      35.732 -21.243 -19.617  0.00  0.00    +0.014 C 
ENDBRANCH  18  29
ENDBRANCH   6  18
TORSDOF 3
ENDMDL
MODEL 4
REMARK VINA RESULT:     -11.6      3.162      6.491
REMARK  Name = 5288710
REMARK  3 active torsions:
REMARK  status: ('A' for Active; 'I' for Inactive)
REMARK    1  A    between atoms: C_6  and  N_18
REMARK    2  A    between atoms: C_9  and  C_15
REMARK    3  A    between atoms: N_18  and  C_29
REMARK                            x       y       z     vdW  Elec       q    Type
REMARK                         _______ _______ _______ _____ _____    ______ ____
ROOT
ATOM      1  O   UNL     1      31.442 -22.677 -15.720  0.00  0.00    -0.270 OA
ATOM      2  N   UNL     1      32.750 -23.575 -13.970  0.00  0.00    -0.280 N 
ATOM      3  C   UNL     1      34.686 -24.057 -15.115  0.00  0.00    +0.019 C 
ATOM      4  C   UNL     1      33.718 -23.477 -16.041  0.00  0.00    +0.069 C 
ATOM      5  C   UNL     1      34.046 -24.093 -13.873  0.00  0.00    +0.051 C 
ATOM      6  C   UNL     1      33.857 -23.236 -17.348  0.00  0.00    +0.066 C 
ATOM      7  C   UNL     1      32.463 -23.170 -15.277  0.00  0.00    +0.251 C 
ATOM      8  C   UNL     1      35.980 -24.520 -15.257  0.00  0.00    +0.005 C 
ATOM      9  C   UNL     1      36.622 -25.023 -14.121  0.00  0.00    +0.036 C 
ATOM     10  C   UNL     1      34.662 -24.585 -12.738  0.00  0.00    +0.015 C 
ATOM     11  C   UNL     1      35.971 -25.055 -12.874  0.00  0.00    +0.004 C 
ATOM     12  H   UNL     1      32.122 -23.505 -13.216  0.00  0.00    +0.155 HD
ENDROOT
BRANCH   9  15
ATOM     13  O   UNL     1      38.958 -24.629 -13.932  0.00  0.00    -0.431 OA
ATOM     14  N   UNL     1      39.914 -26.602 -14.490  0.00  0.00    -0.203 NA
ATOM     15  C   UNL     1      37.974 -25.517 -14.228  0.00  0.00    +0.166 C 
ATOM     16  C   UNL     1      38.549 -26.709 -14.564  0.00  0.00    +0.140 C 
ATOM     17  C   UNL     1      40.094 -25.356 -14.113  0.00  0.00    +0.285 C 
ENDBRANCH   9  15
BRANCH   6  18
ATOM     18  N   UNL     1      32.951 -22.698 -18.192  0.00  0.00    -0.311 N 
ATOM     19  H   UNL     1      32.031 -23.035 -18.102  0.00  0.00    +0.152 HD
BRANCH  18  29
ATOM     20  S   UNL     1      35.571 -18.478 -22.001  0.00  0.00    -0.002 S 
ATOM     21  O   UNL     1      35.756 -17.213 -21.317  0.00  0.00    -0.172 OA
ATOM     22  O   UNL     1      36.221 -18.760 -23.264  0.00  0.00    -0.172 OA
ATOM     23  C   UNL     1      35.969 -19.790 -20.856  0.00  0.00    +0.177 C 
ATOM     24  C   UNL     1      33.817 -18.752 -22.195  0.00  0.00    +0.177 C 
ATOM     25  C   UNL     1      34.626 -20.305 -20.465  0.00  0.00    +0.000 C 
ATOM     26  C   UNL     1      33.526 -19.775 -21.149  0.00  0.00    -0.001 C 
ATOM     27  C   UNL     1      34.440 -21.277 -19.484  0.00  0.00    +0.012 C 
ATOM     28  C   UNL     1      32.237 -20.215 -20.854  0.00  0.00    -0.002 C 
ATOM     29  C   UNL     1      33.149 -21.715 -19.186  0.00  0.00    +0.048 C 
ATOM     30  C   UNL     1      32.051 -21.186 -19.869  0.00  0.00    +0.014 C 
ENDBRANCH  18  29
ENDBRANCH   6  18
TORSDOF 3
ENDMDL
MODEL 5
REMARK VINA RESULT:     -11.6      3.855      6.478
REMARK  Name = 5288710
REMARK  3 active torsions:
REMARK  status: ('A' for Active; 'I' for Inactive)
REMARK    1  A    between atoms: C_6  and  N_18
REMARK    2  A    between atoms: C_9  and  C_15
REMARK    3  A    between atoms: N_18  and  C_29
REMARK                            x       y       z     vdW  Elec       q    Type
REMARK                         _______ _______ _______ _____ _____    ______ ____
ROOT
ATOM      1  O   UNL     1      32.670 -19.631 -21.890  0.00  0.00    -0.270 OA
ATOM      2  N   UNL     1      32.308 -21.183 -20.146  0.00  0.00    -0.280 N 
ATOM      3  C   UNL     1      34.418 -21.271 -19.234  0.00  0.00    +0.019 C 
ATOM      4  C   UNL     1      34.425 -20.341 -20.359  0.00  0.00    +0.069 C 
ATOM      5  C   UNL     1      33.108 -21.752 -19.149  0.00  0.00    +0.051 C 
ATOM      6  C   UNL     1      35.445 -19.625 -20.842  0.00  0.00    +0.066 C 
ATOM      7  C   UNL     1      33.042 -20.298 -20.941  0.00  0.00    +0.251 C 
ATOM      8  C   UNL     1      35.387 -21.697 -18.345  0.00  0.00    +0.005 C 
ATOM      9  C   UNL     1      35.012 -22.622 -17.366  0.00  0.00    +0.036 C 
ATOM     10  C   UNL     1      32.717 -22.665 -18.189  0.00  0.00    +0.015 C 
ATOM     11  C   UNL     1      33.691 -23.101 -17.287  0.00  0.00    +0.004 C 
ATOM     12  H   UNL     1      31.352 -21.381 -20.271  0.00  0.00    +0.155 HD
ENDROOT
BRANCH   9  15
ATOM     13  O   UNL     1      35.692 -24.249 -15.774  0.00  0.00    -0.431 OA
ATOM     14  N   UNL     1      37.711 -23.529 -15.051  0.00  0.00    -0.203 NA
ATOM     15  C   UNL     1      35.995 -23.094 -16.419  0.00  0.00    +0.166 C 
ATOM     16  C   UNL     1      37.213 -22.658 -15.986  0.00  0.00    +0.140 C 
ATOM     17  C   UNL     1      36.773 -24.445 -14.969  0.00  0.00    +0.285 C 
ENDBRANCH   9  15
BRANCH   6  18
ATOM     18  N   UNL     1      35.436 -18.769 -21.885  0.00  0.00    -0.311 N 
ATOM     19  H   UNL     1      35.791 -19.124 -22.732  0.00  0.00    +0.152 HD
BRANCH  18  29
ATOM     20  S   UNL     1      33.370 -13.203 -23.866  0.00  0.00    -0.002 S 
ATOM     21  O   UNL     1      34.465 -12.398 -24.371  0.00  0.00    -0.172 OA
ATOM     22  O   UNL     1      31.988 -12.849 -24.118  0.00  0.00    -0.172 OA
ATOM     23  C   UNL     1      33.628 -14.887 -24.400  0.00  0.00    +0.177 C 
ATOM     24  C   UNL     1      33.590 -13.394 -22.104  0.00  0.00    +0.177 C 
ATOM     25  C   UNL     1      34.114 -15.555 -23.159  0.00  0.00    +0.000 C 
ATOM     26  C   UNL     1      34.095 -14.793 -21.985  0.00  0.00    -0.001 C 
ATOM     27  C   UNL     1      34.556 -16.876 -23.130  0.00  0.00    +0.012 C 
ATOM     28  C   UNL     1      34.518 -15.349 -20.780  0.00  0.00    -0.002 C 
ATOM     29  C   UNL     1      34.984 -17.433 -21.923  0.00  0.00    +0.048 C 
ATOM     30  C   UNL     1      34.964 -16.671 -20.752  0.00  0.00    +0.014 C 
ENDBRANCH  18  29
ENDBRANCH   6  18
TORSDOF 3
ENDMDL
MODEL 6
REMARK VINA RESULT:     -11.5      8.264     12.710
REMARK  Name = 5288710
REMARK  3 active torsions:
REMARK  status: ('A' for Active; 'I' for Inactive)
REMARK    1  A    between atoms: C_6  and  N_18
REMARK    2  A    between atoms: C_9  and  C_15
REMARK    3  A    between atoms: N_18  and  C_29
REMARK                            x       y       z     vdW  Elec       q    Type
REMARK                         _______ _______ _______ _____ _____    ______ ____
ROOT
ATOM      1  O   UNL     1      33.944 -12.432 -27.364  0.00  0.00    -0.270 OA
ATOM      2  N   UNL     1      33.945 -10.204 -26.581  0.00  0.00    -0.280 N 
ATOM      3  C   UNL     1      33.216 -10.530 -24.424  0.00  0.00    +0.019 C 
ATOM      4  C   UNL     1      33.287 -11.821 -25.102  0.00  0.00    +0.069 C 
ATOM      5  C   UNL     1      33.626  -9.584 -25.368  0.00  0.00    +0.051 C 
ATOM      6  C   UNL     1      32.994 -13.031 -24.620  0.00  0.00    +0.066 C 
ATOM      7  C   UNL     1      33.763 -11.588 -26.506  0.00  0.00    +0.251 C 
ATOM      8  C   UNL     1      32.851 -10.143 -23.148  0.00  0.00    +0.005 C 
ATOM      9  C   UNL     1      32.906  -8.781 -22.838  0.00  0.00    +0.036 C 
ATOM     10  C   UNL     1      33.689  -8.234 -25.082  0.00  0.00    +0.015 C 
ATOM     11  C   UNL     1      33.321  -7.835 -23.795  0.00  0.00    +0.004 C 
ATOM     12  H   UNL     1      34.256  -9.726 -27.384  0.00  0.00    +0.155 HD
ENDROOT
BRANCH   9  15
ATOM     13  O   UNL     1      31.444  -8.939 -20.972  0.00  0.00    -0.431 OA
ATOM     14  N   UNL     1      32.241  -7.422 -19.495  0.00  0.00    -0.203 NA
ATOM     15  C   UNL     1      32.532  -8.336 -21.517  0.00  0.00    +0.166 C 
ATOM     16  C   UNL     1      33.015  -7.421 -20.628  0.00  0.00    +0.140 C 
ATOM     17  C   UNL     1      31.334  -8.335 -19.757  0.00  0.00    +0.285 C 
ENDBRANCH   9  15
BRANCH   6  18
ATOM     18  N   UNL     1      33.064 -14.218 -25.260  0.00  0.00    -0.311 N 
ATOM     19  H   UNL     1      32.765 -14.216 -26.198  0.00  0.00    +0.152 HD
BRANCH  18  29
ATOM     20  S   UNL     1      35.587 -18.664 -21.649  0.00  0.00    -0.002 S 
ATOM     21  O   UNL     1      37.030 -18.685 -21.791  0.00  0.00    -0.172 OA
ATOM     22  O   UNL     1      34.920 -19.363 -20.569  0.00  0.00    -0.172 OA
ATOM     23  C   UNL     1      35.057 -16.959 -21.630  0.00  0.00    +0.177 C 
ATOM     24  C   UNL     1      34.870 -19.199 -23.194  0.00  0.00    +0.177 C 
ATOM     25  C   UNL     1      34.486 -16.776 -22.995  0.00  0.00    +0.000 C 
ATOM     26  C   UNL     1      34.390 -17.921 -23.795  0.00  0.00    -0.001 C 
ATOM     27  C   UNL     1      34.045 -15.545 -23.477  0.00  0.00    +0.012 C 
ATOM     28  C   UNL     1      33.853 -17.838 -25.078  0.00  0.00    -0.002 C 
ATOM     29  C   UNL     1      33.511 -15.461 -24.763  0.00  0.00    +0.048 C 
ATOM     30  C   UNL     1      33.415 -16.604 -25.561  0.00  0.00    +0.014 C 
ENDBRANCH  18  29
ENDBRANCH   6  18
TORSDOF 3
ENDMDL
MODEL 7
REMARK VINA RESULT:     -11.5      7.438     11.662
REMARK  Name = 5288710
REMARK  3 active torsions:
REMARK  status: ('A' for Active; 'I' for Inactive)
REMARK    1  A    between atoms: C_6  and  N_18
REMARK    2  A    between atoms: C_9  and  C_15
REMARK    3  A    between atoms: N_18  and  C_29
REMARK                            x       y       z     vdW  Elec       q    Type
REMARK                         _______ _______ _______ _____ _____    ______ ____
ROOT
ATOM      1  O   UNL     1      32.355 -13.798 -27.336  0.00  0.00    -0.270 OA
ATOM      2  N   UNL     1      32.756 -16.097 -26.971  0.00  0.00    -0.280 N 
ATOM      3  C   UNL     1      33.636 -16.024 -24.847  0.00  0.00    +0.019 C 
ATOM      4  C   UNL     1      33.311 -14.667 -25.273  0.00  0.00    +0.069 C 
ATOM      5  C   UNL     1      33.278 -16.852 -25.915  0.00  0.00    +0.051 C 
ATOM      6  C   UNL     1      33.470 -13.523 -24.602  0.00  0.00    +0.066 C 
ATOM      7  C   UNL     1      32.740 -14.734 -26.660  0.00  0.00    +0.251 C 
ATOM      8  C   UNL     1      34.175 -16.555 -23.691  0.00  0.00    +0.005 C 
ATOM      9  C   UNL     1      34.350 -17.941 -23.629  0.00  0.00    +0.036 C 
ATOM     10  C   UNL     1      33.442 -18.223 -25.875  0.00  0.00    +0.015 C 
ATOM     11  C   UNL     1      33.987 -18.768 -24.710  0.00  0.00    +0.004 C 
ATOM     12  H   UNL     1      32.441 -16.476 -27.823  0.00  0.00    +0.155 HD
ENDROOT
BRANCH   9  15
ATOM     13  O   UNL     1      34.179 -19.525 -21.866  0.00  0.00    -0.431 OA
ATOM     14  N   UNL     1      36.061 -19.224 -20.647  0.00  0.00    -0.203 NA
ATOM     15  C   UNL     1      34.912 -18.536 -22.440  0.00  0.00    +0.166 C 
ATOM     16  C   UNL     1      36.048 -18.353 -21.707  0.00  0.00    +0.140 C 
ATOM     17  C   UNL     1      34.937 -19.887 -20.795  0.00  0.00    +0.285 C 
ENDBRANCH   9  15
BRANCH   6  18
ATOM     18  N   UNL     1      33.164 -12.272 -25.011  0.00  0.00    -0.311 N 
ATOM     19  H   UNL     1      32.877 -12.188 -25.948  0.00  0.00    +0.152 HD
BRANCH  18  29
ATOM     20  S   UNL     1      31.794  -7.665 -21.003  0.00  0.00    -0.002 S 
ATOM     21  O   UNL     1      30.766  -6.799 -21.547  0.00  0.00    -0.172 OA
ATOM     22  O   UNL     1      32.165  -7.617 -19.603  0.00  0.00    -0.172 OA
ATOM     23  C   UNL     1      31.374  -9.351 -21.417  0.00  0.00    +0.177 C 
ATOM     24  C   UNL     1      33.270  -7.458 -21.986  0.00  0.00    +0.177 C 
ATOM     25  C   UNL     1      32.317  -9.661 -22.529  0.00  0.00    +0.000 C 
ATOM     26  C   UNL     1      33.286  -8.694 -22.820  0.00  0.00    -0.001 C 
ATOM     27  C   UNL     1      32.274 -10.851 -23.252  0.00  0.00    +0.012 C 
ATOM     28  C   UNL     1      34.215  -8.915 -23.835  0.00  0.00    -0.002 C 
ATOM     29  C   UNL     1      33.202 -11.071 -24.271  0.00  0.00    +0.048 C 
ATOM     30  C   UNL     1      34.169 -10.105 -24.562  0.00  0.00    +0.014 C 
ENDBRANCH  18  29
ENDBRANCH   6  18
TORSDOF 3
ENDMDL
MODEL 8
REMARK VINA RESULT:     -11.4      7.517     11.683
REMARK  Name = 5288710
REMARK  3 active torsions:
REMARK  status: ('A' for Active; 'I' for Inactive)
REMARK    1  A    between atoms: C_6  and  N_18
REMARK    2  A    between atoms: C_9  and  C_15
REMARK    3  A    between atoms: N_18  and  C_29
REMARK                            x       y       z     vdW  Elec       q    Type
REMARK                         _______ _______ _______ _____ _____    ______ ____
ROOT
ATOM      1  O   UNL     1      32.662 -13.112 -26.449  0.00  0.00    -0.270 OA
ATOM      2  N   UNL     1      33.349 -15.370 -26.519  0.00  0.00    -0.280 N 
ATOM      3  C   UNL     1      33.794 -15.730 -24.292  0.00  0.00    +0.019 C 
ATOM      4  C   UNL     1      33.342 -14.354 -24.470  0.00  0.00    +0.069 C 
ATOM      5  C   UNL     1      33.779 -16.302 -25.567  0.00  0.00    +0.051 C 
ATOM      6  C   UNL     1      33.189 -13.401 -23.546  0.00  0.00    +0.066 C 
ATOM      7  C   UNL     1      33.058 -14.138 -25.928  0.00  0.00    +0.251 C 
ATOM      8  C   UNL     1      34.186 -16.468 -23.191  0.00  0.00    +0.005 C 
ATOM      9  C   UNL     1      34.565 -17.798 -23.399  0.00  0.00    +0.036 C 
ATOM     10  C   UNL     1      34.149 -17.613 -25.794  0.00  0.00    +0.015 C 
ATOM     11  C   UNL     1      34.547 -18.366 -24.687  0.00  0.00    +0.004 C 
ATOM     12  H   UNL     1      33.264 -15.560 -27.482  0.00  0.00    +0.155 HD
ENDROOT
BRANCH   9  15
ATOM     13  O   UNL     1      34.086 -19.523 -21.837  0.00  0.00    -0.431 OA
ATOM     14  N   UNL     1      35.942 -19.660 -20.552  0.00  0.00    -0.203 NA
ATOM     15  C   UNL     1      34.983 -18.603 -22.275  0.00  0.00    +0.166 C 
ATOM     16  C   UNL     1      36.104 -18.683 -21.502  0.00  0.00    +0.140 C 
ATOM     17  C   UNL     1      34.737 -20.118 -20.799  0.00  0.00    +0.285 C 
ENDBRANCH   9  15
BRANCH   6  18
ATOM     18  N   UNL     1      32.770 -12.131 -23.726  0.00  0.00    -0.311 N 
ATOM     19  H   UNL     1      32.760 -11.813 -24.658  0.00  0.00    +0.152 HD
BRANCH  18  29
ATOM     20  S   UNL     1      31.988  -6.888 -20.397  0.00  0.00    -0.002 S 
ATOM     21  O   UNL     1      33.094  -6.692 -19.480  0.00  0.00    -0.172 OA
ATOM     22  O   UNL     1      31.048  -5.827 -20.691  0.00  0.00    -0.172 OA
ATOM     23  C   UNL     1      32.650  -7.499 -21.940  0.00  0.00    +0.177 C 
ATOM     24  C   UNL     1      31.070  -8.323 -19.860  0.00  0.00    +0.177 C 
ATOM     25  C   UNL     1      32.300  -8.947 -21.898  0.00  0.00    +0.000 C 
ATOM     26  C   UNL     1      31.492  -9.369 -20.835  0.00  0.00    -0.001 C 
ATOM     27  C   UNL     1      32.724  -9.861 -22.861  0.00  0.00    +0.012 C 
ATOM     28  C   UNL     1      31.108 -10.704 -20.733  0.00  0.00    -0.002 C 
ATOM     29  C   UNL     1      32.342 -11.199 -22.757  0.00  0.00    +0.048 C 
ATOM     30  C   UNL     1      31.536 -11.619 -21.696  0.00  0.00    +0.014 C 
ENDBRANCH  18  29
ENDBRANCH   6  18
TORSDOF 3
ENDMDL
MODEL 9
REMARK VINA RESULT:     -11.3      1.642      2.247
REMARK  Name = 5288710
REMARK  3 active torsions:
REMARK  status: ('A' for Active; 'I' for Inactive)
REMARK    1  A    between atoms: C_6  and  N_18
REMARK    2  A    between atoms: C_9  and  C_15
REMARK    3  A    between atoms: N_18  and  C_29
REMARK                            x       y       z     vdW  Elec       q    Type
REMARK                         _______ _______ _______ _____ _____    ______ ____
ROOT
ATOM      1  O   UNL     1      37.185 -22.553 -16.326  0.00  0.00    -0.270 OA
ATOM      2  N   UNL     1      35.631 -23.423 -14.774  0.00  0.00    -0.280 N 
ATOM      3  C   UNL     1      33.686 -23.209 -15.983  0.00  0.00    +0.019 C 
ATOM      4  C   UNL     1      34.800 -22.713 -16.785  0.00  0.00    +0.069 C 
ATOM      5  C   UNL     1      34.246 -23.628 -14.773  0.00  0.00    +0.051 C 
ATOM      6  C   UNL     1      34.776 -22.204 -18.019  0.00  0.00    +0.066 C 
ATOM      7  C   UNL     1      36.059 -22.860 -15.980  0.00  0.00    +0.251 C 
ATOM      8  C   UNL     1      32.326 -23.317 -16.206  0.00  0.00    +0.005 C 
ATOM      9  C   UNL     1      31.537 -23.856 -15.185  0.00  0.00    +0.036 C 
ATOM     10  C   UNL     1      33.486 -24.163 -13.751  0.00  0.00    +0.015 C 
ATOM     11  C   UNL     1      32.111 -24.275 -13.970  0.00  0.00    +0.004 C 
ATOM     12  H   UNL     1      36.226 -23.647 -14.023  0.00  0.00    +0.155 HD
ENDROOT
BRANCH   9  15
ATOM     13  O   UNL     1      29.478 -22.890 -15.873  0.00  0.00    -0.431 OA
ATOM     14  N   UNL     1      27.948 -24.525 -15.553  0.00  0.00    -0.203 NA
ATOM     15  C   UNL     1      30.113 -23.984 -15.379  0.00  0.00    +0.166 C 
ATOM     16  C   UNL     1      29.192 -24.972 -15.185  0.00  0.00    +0.140 C 
ATOM     17  C   UNL     1      28.181 -23.294 -15.949  0.00  0.00    +0.285 C 
ENDBRANCH   9  15
BRANCH   6  18
ATOM     18  N   UNL     1      35.817 -21.749 -18.749  0.00  0.00    -0.311 N 
ATOM     19  H   UNL     1      36.702 -22.092 -18.490  0.00  0.00    +0.152 HD
BRANCH  18  29
ATOM     20  S   UNL     1      34.041 -18.408 -23.735  0.00  0.00    -0.002 S 
ATOM     21  O   UNL     1      34.143 -19.198 -24.946  0.00  0.00    -0.172 OA
ATOM     22  O   UNL     1      33.315 -17.155 -23.704  0.00  0.00    -0.172 OA
ATOM     23  C   UNL     1      33.407 -19.460 -22.438  0.00  0.00    +0.177 C 
ATOM     24  C   UNL     1      35.694 -18.117 -23.123  0.00  0.00    +0.177 C 
ATOM     25  C   UNL     1      34.622 -19.750 -21.625  0.00  0.00    +0.000 C 
ATOM     26  C   UNL     1      35.791 -19.064 -21.975  0.00  0.00    -0.001 C 
ATOM     27  C   UNL     1      34.626 -20.640 -20.553  0.00  0.00    +0.012 C 
ATOM     28  C   UNL     1      36.966 -19.267 -21.254  0.00  0.00    -0.002 C 
ATOM     29  C   UNL     1      35.804 -20.847 -19.834  0.00  0.00    +0.048 C 
ATOM     30  C   UNL     1      36.970 -20.162 -20.183  0.00  0.00    +0.014 C 
ENDBRANCH  18  29
ENDBRANCH   6  18
TORSDOF 3
ENDMDL
