MODEL 1
REMARK VINA RESULT:     -13.4      0.000      0.000
REMARK  Name = 10157080
REMARK  5 active torsions:
REMARK  status: ('A' for Active; 'I' for Inactive)
REMARK    1  A    between atoms: C_3  and  O_8
REMARK    2  A    between atoms: C_6  and  O_18
REMARK    3  A    between atoms: O_8  and  C_13
REMARK    4  A    between atoms: O_18  and  C_20
REMARK    5  A    between atoms: C_19  and  N_25
REMARK                            x       y       z     vdW  Elec       q    Type
REMARK                         _______ _______ _______ _____ _____    ______ ____
ROOT
ATOM      1  N   UNL     1      34.273 -23.274 -16.739  0.00  0.00    -0.277 NA
ATOM      2  N   UNL     1      31.935 -23.287 -17.329  0.00  0.00    -0.319 NA
ATOM      3  C   UNL     1      33.896 -23.226 -15.451  0.00  0.00    +0.278 C 
ATOM      4  C   UNL     1      32.594 -23.205 -15.015  0.00  0.00    +0.156 C 
ATOM      5  C   UNL     1      31.641 -23.238 -16.013  0.00  0.00    +0.113 C 
ATOM      6  C   UNL     1      33.252 -23.302 -17.616  0.00  0.00    +0.317 C 
ATOM      7  C   UNL     1      30.194 -23.220 -15.650  0.00  0.00    +0.063 C 
ENDROOT
BRANCH   3   8
ATOM      8  O   UNL     1      34.911 -23.198 -14.511  0.00  0.00    -0.429 OA
BRANCH   8  13
ATOM      9  O   UNL     1      39.509 -24.650 -14.623  0.00  0.00    -0.435 OA
ATOM     10  O   UNL     1      38.862 -26.963 -14.820  0.00  0.00    -0.435 OA
ATOM     11  C   UNL     1      38.157 -24.810 -14.640  0.00  0.00    +0.179 C 
ATOM     12  C   UNL     1      37.788 -26.131 -14.751  0.00  0.00    +0.177 C 
ATOM     13  C   UNL     1      35.873 -24.160 -14.591  0.00  0.00    +0.151 C 
ATOM     14  C   UNL     1      37.221 -23.800 -14.557  0.00  0.00    +0.078 C 
ATOM     15  C   UNL     1      36.463 -26.514 -14.788  0.00  0.00    +0.043 C 
ATOM     16  C   UNL     1      35.496 -25.511 -14.705  0.00  0.00    +0.041 C 
ATOM     17  C   UNL     1      39.949 -26.019 -14.737  0.00  0.00    +0.429 C 
ENDBRANCH   8  13
ENDBRANCH   3   8
BRANCH   6  18
ATOM     18  O   UNL     1      33.589 -23.348 -18.949  0.00  0.00    -0.375 OA
BRANCH  18  20
ATOM     19  C   UNL     1      34.231 -19.725 -20.868  0.00  0.00    +0.057 C 
ATOM     20  C   UNL     1      33.802 -22.145 -19.586  0.00  0.00    +0.161 C 
ATOM     21  C   UNL     1      32.930 -20.159 -20.616  0.00  0.00    +0.018 C 
ATOM     22  C   UNL     1      35.316 -20.508 -20.475  0.00  0.00    +0.018 C 
ATOM     23  C   UNL     1      32.714 -21.377 -19.971  0.00  0.00    +0.040 C 
ATOM     24  C   UNL     1      35.101 -21.725 -19.830  0.00  0.00    +0.040 C 
BRANCH  19  25
ATOM     25  N   UNL     1      34.445 -18.518 -21.509  0.00  0.00    -0.246 N 
ATOM     26  N   UNL     1      34.531 -17.006 -23.145  0.00  0.00    -0.224 NA
ATOM     27  C   UNL     1      34.905 -17.358 -20.937  0.00  0.00    +0.092 C 
ATOM     28  C   UNL     1      34.236 -18.250 -22.839  0.00  0.00    +0.172 C 
ATOM     29  C   UNL     1      34.949 -16.446 -21.965  0.00  0.00    +0.117 C 
ENDBRANCH  19  25
ENDBRANCH  18  20
ENDBRANCH   6  18
TORSDOF 5
ENDMDL
MODEL 2
REMARK VINA RESULT:     -12.6      2.568      5.529
REMARK  Name = 10157080
REMARK  5 active torsions:
REMARK  status: ('A' for Active; 'I' for Inactive)
REMARK    1  A    between atoms: C_3  and  O_8
REMARK    2  A    between atoms: C_6  and  O_18
REMARK    3  A    between atoms: O_8  and  C_13
REMARK    4  A    between atoms: O_18  and  C_20
REMARK    5  A    between atoms: C_19  and  N_25
REMARK                            x       y       z     vdW  Elec       q    Type
REMARK                         _______ _______ _______ _____ _____    ______ ____
ROOT
ATOM      1  N   UNL     1      32.897 -23.494 -16.603  0.00  0.00    -0.277 NA
ATOM      2  N   UNL     1      35.180 -22.921 -17.123  0.00  0.00    -0.319 NA
ATOM      3  C   UNL     1      33.239 -23.471 -15.305  0.00  0.00    +0.278 C 
ATOM      4  C   UNL     1      34.497 -23.191 -14.830  0.00  0.00    +0.156 C 
ATOM      5  C   UNL     1      35.442 -22.919 -15.799  0.00  0.00    +0.113 C 
ATOM      6  C   UNL     1      33.906 -23.213 -17.450  0.00  0.00    +0.317 C 
ATOM      7  C   UNL     1      36.841 -22.601 -15.392  0.00  0.00    +0.063 C 
ENDROOT
BRANCH   3   8
ATOM      8  O   UNL     1      32.234 -23.751 -14.397  0.00  0.00    -0.429 OA
BRANCH   8  13
ATOM      9  O   UNL     1      28.517 -22.077 -16.973  0.00  0.00    -0.435 OA
ATOM     10  O   UNL     1      27.137 -23.958 -16.364  0.00  0.00    -0.435 OA
ATOM     11  C   UNL     1      29.166 -22.953 -16.158  0.00  0.00    +0.179 C 
ATOM     12  C   UNL     1      28.379 -24.026 -15.811  0.00  0.00    +0.177 C 
ATOM     13  C   UNL     1      30.959 -23.831 -14.870  0.00  0.00    +0.151 C 
ATOM     14  C   UNL     1      30.463 -22.826 -15.704  0.00  0.00    +0.078 C 
ATOM     15  C   UNL     1      28.844 -25.032 -14.988  0.00  0.00    +0.043 C 
ATOM     16  C   UNL     1      30.154 -24.929 -14.515  0.00  0.00    +0.041 C 
ATOM     17  C   UNL     1      27.232 -22.721 -17.100  0.00  0.00    +0.429 C 
ENDBRANCH   8  13
ENDBRANCH   3   8
BRANCH   6  18
ATOM     18  O   UNL     1      33.604 -23.228 -18.792  0.00  0.00    -0.375 OA
BRANCH  18  20
ATOM     19  C   UNL     1      34.211 -19.711 -20.910  0.00  0.00    +0.057 C 
ATOM     20  C   UNL     1      33.806 -22.060 -19.495  0.00  0.00    +0.161 C 
ATOM     21  C   UNL     1      32.918 -20.100 -20.561  0.00  0.00    +0.018 C 
ATOM     22  C   UNL     1      35.300 -20.503 -20.547  0.00  0.00    +0.018 C 
ATOM     23  C   UNL     1      32.714 -21.282 -19.849  0.00  0.00    +0.040 C 
ATOM     24  C   UNL     1      35.097 -21.685 -19.834  0.00  0.00    +0.040 C 
BRANCH  19  25
ATOM     25  N   UNL     1      34.413 -18.540 -21.617  0.00  0.00    -0.246 N 
ATOM     26  N   UNL     1      34.460 -17.114 -23.331  0.00  0.00    -0.224 NA
ATOM     27  C   UNL     1      34.897 -17.356 -21.120  0.00  0.00    +0.092 C 
ATOM     28  C   UNL     1      34.167 -18.339 -22.953  0.00  0.00    +0.172 C 
ATOM     29  C   UNL     1      34.916 -16.497 -22.193  0.00  0.00    +0.117 C 
ENDBRANCH  19  25
ENDBRANCH  18  20
ENDBRANCH   6  18
TORSDOF 5
ENDMDL
MODEL 3
REMARK VINA RESULT:     -11.7      4.367      8.426
REMARK  Name = 10157080
REMARK  5 active torsions:
REMARK  status: ('A' for Active; 'I' for Inactive)
REMARK    1  A    between atoms: C_3  and  O_8
REMARK    2  A    between atoms: C_6  and  O_18
REMARK    3  A    between atoms: O_8  and  C_13
REMARK    4  A    between atoms: O_18  and  C_20
REMARK    5  A    between atoms: C_19  and  N_25
REMARK                            x       y       z     vdW  Elec       q    Type
REMARK                         _______ _______ _______ _____ _____    ______ ____
ROOT
ATOM      1  N   UNL     1      35.308 -17.278 -22.733  0.00  0.00    -0.277 NA
ATOM      2  N   UNL     1      33.917 -16.994 -24.681  0.00  0.00    -0.319 NA
ATOM      3  C   UNL     1      34.976 -18.579 -22.747  0.00  0.00    +0.278 C 
ATOM      4  C   UNL     1      34.140 -19.165 -23.666  0.00  0.00    +0.156 C 
ATOM      5  C   UNL     1      33.633 -18.312 -24.625  0.00  0.00    +0.113 C 
ATOM      6  C   UNL     1      34.749 -16.551 -23.719  0.00  0.00    +0.317 C 
ATOM      7  C   UNL     1      32.715 -18.846 -25.672  0.00  0.00    +0.063 C 
ENDROOT
BRANCH   3   8
ATOM      8  O   UNL     1      35.529 -19.368 -21.754  0.00  0.00    -0.429 OA
BRANCH   8  13
ATOM      9  O   UNL     1      34.568 -22.735 -18.438  0.00  0.00    -0.435 OA
ATOM     10  O   UNL     1      32.211 -22.234 -18.488  0.00  0.00    -0.435 OA
ATOM     11  C   UNL     1      34.270 -21.739 -19.316  0.00  0.00    +0.179 C 
ATOM     12  C   UNL     1      32.924 -21.452 -19.344  0.00  0.00    +0.177 C 
ATOM     13  C   UNL     1      34.676 -20.065 -20.952  0.00  0.00    +0.151 C 
ATOM     14  C   UNL     1      35.173 -21.062 -20.109  0.00  0.00    +0.078 C 
ATOM     15  C   UNL     1      32.407 -20.474 -20.168  0.00  0.00    +0.043 C 
ATOM     16  C   UNL     1      33.300 -19.773 -20.981  0.00  0.00    +0.041 C 
ATOM     17  C   UNL     1      33.259 -23.043 -17.916  0.00  0.00    +0.429 C 
ENDBRANCH   8  13
ENDBRANCH   3   8
BRANCH   6  18
ATOM     18  O   UNL     1      35.057 -15.210 -23.743  0.00  0.00    -0.375 OA
BRANCH  18  20
ATOM     19  C   UNL     1      32.483 -12.635 -21.752  0.00  0.00    +0.057 C 
ATOM     20  C   UNL     1      34.203 -14.356 -23.082  0.00  0.00    +0.161 C 
ATOM     21  C   UNL     1      32.610 -12.559 -23.139  0.00  0.00    +0.018 C 
ATOM     22  C   UNL     1      33.220 -13.577 -21.034  0.00  0.00    +0.018 C 
ATOM     23  C   UNL     1      33.475 -13.425 -23.809  0.00  0.00    +0.040 C 
ATOM     24  C   UNL     1      34.085 -14.443 -21.703  0.00  0.00    +0.040 C 
BRANCH  19  25
ATOM     25  N   UNL     1      31.626 -11.776 -21.089  0.00  0.00    -0.246 N 
ATOM     26  N   UNL     1      30.712 -10.608 -19.424  0.00  0.00    -0.224 NA
ATOM     27  C   UNL     1      30.577 -11.081 -21.636  0.00  0.00    +0.092 C 
ATOM     28  C   UNL     1      31.662 -11.455 -19.754  0.00  0.00    +0.172 C 
ATOM     29  C   UNL     1      30.033 -10.372 -20.592  0.00  0.00    +0.117 C 
ENDBRANCH  19  25
ENDBRANCH  18  20
ENDBRANCH   6  18
TORSDOF 5
ENDMDL
MODEL 4
REMARK VINA RESULT:     -11.0      4.114     10.632
REMARK  Name = 10157080
REMARK  5 active torsions:
REMARK  status: ('A' for Active; 'I' for Inactive)
REMARK    1  A    between atoms: C_3  and  O_8
REMARK    2  A    between atoms: C_6  and  O_18
REMARK    3  A    between atoms: O_8  and  C_13
REMARK    4  A    between atoms: O_18  and  C_20
REMARK    5  A    between atoms: C_19  and  N_25
REMARK                            x       y       z     vdW  Elec       q    Type
REMARK                         _______ _______ _______ _____ _____    ______ ____
ROOT
ATOM      1  N   UNL     1      35.416 -19.856 -22.547  0.00  0.00    -0.277 NA
ATOM      2  N   UNL     1      35.522 -18.257 -20.746  0.00  0.00    -0.319 NA
ATOM      3  C   UNL     1      34.790 -18.918 -23.276  0.00  0.00    +0.278 C 
ATOM      4  C   UNL     1      34.493 -17.652 -22.836  0.00  0.00    +0.156 C 
ATOM      5  C   UNL     1      34.889 -17.372 -21.544  0.00  0.00    +0.113 C 
ATOM      6  C   UNL     1      35.750 -19.462 -21.303  0.00  0.00    +0.317 C 
ATOM      7  C   UNL     1      34.615 -16.024 -20.966  0.00  0.00    +0.063 C 
ENDROOT
BRANCH   3   8
ATOM      8  O   UNL     1      34.429 -19.276 -24.563  0.00  0.00    -0.429 OA
BRANCH   8  13
ATOM      9  O   UNL     1      33.772 -15.189 -27.036  0.00  0.00    -0.435 OA
ATOM     10  O   UNL     1      31.444 -15.690 -27.413  0.00  0.00    -0.435 OA
ATOM     11  C   UNL     1      33.401 -16.373 -26.478  0.00  0.00    +0.179 C 
ATOM     12  C   UNL     1      32.072 -16.659 -26.693  0.00  0.00    +0.177 C 
ATOM     13  C   UNL     1      33.658 -18.402 -25.269  0.00  0.00    +0.151 C 
ATOM     14  C   UNL     1      34.221 -17.226 -25.769  0.00  0.00    +0.078 C 
ATOM     15  C   UNL     1      31.491 -17.814 -26.210  0.00  0.00    +0.043 C 
ATOM     16  C   UNL     1      32.300 -18.695 -25.489  0.00  0.00    +0.041 C 
ATOM     17  C   UNL     1      32.527 -14.762 -27.628  0.00  0.00    +0.429 C 
ENDBRANCH   8  13
ENDBRANCH   3   8
BRANCH   6  18
ATOM     18  O   UNL     1      36.391 -20.391 -20.517  0.00  0.00    -0.375 OA
BRANCH  18  20
ATOM     19  C   UNL     1      34.092 -22.404 -17.709  0.00  0.00    +0.057 C 
ATOM     20  C   UNL     1      35.628 -21.060 -19.585  0.00  0.00    +0.161 C 
ATOM     21  C   UNL     1      33.512 -21.964 -18.898  0.00  0.00    +0.018 C 
ATOM     22  C   UNL     1      35.445 -22.168 -17.463  0.00  0.00    +0.018 C 
ATOM     23  C   UNL     1      34.285 -21.288 -19.843  0.00  0.00    +0.040 C 
ATOM     24  C   UNL     1      36.218 -21.492 -18.406  0.00  0.00    +0.040 C 
BRANCH  19  25
ATOM     25  N   UNL     1      33.325 -23.074 -16.772  0.00  0.00    -0.246 N 
ATOM     26  N   UNL     1      32.810 -24.282 -14.971  0.00  0.00    -0.224 NA
ATOM     27  C   UNL     1      31.958 -23.191 -16.766  0.00  0.00    +0.092 C 
ATOM     28  C   UNL     1      33.788 -23.749 -15.670  0.00  0.00    +0.172 C 
ATOM     29  C   UNL     1      31.668 -23.938 -15.649  0.00  0.00    +0.117 C 
ENDBRANCH  19  25
ENDBRANCH  18  20
ENDBRANCH   6  18
TORSDOF 5
ENDMDL
MODEL 5
REMARK VINA RESULT:     -11.0      8.478     12.170
REMARK  Name = 10157080
REMARK  5 active torsions:
REMARK  status: ('A' for Active; 'I' for Inactive)
REMARK    1  A    between atoms: C_3  and  O_8
REMARK    2  A    between atoms: C_6  and  O_18
REMARK    3  A    between atoms: O_8  and  C_13
REMARK    4  A    between atoms: O_18  and  C_20
REMARK    5  A    between atoms: C_19  and  N_25
REMARK                            x       y       z     vdW  Elec       q    Type
REMARK                         _______ _______ _______ _____ _____    ______ ____
ROOT
ATOM      1  N   UNL     1      33.700 -14.825 -26.947  0.00  0.00    -0.277 NA
ATOM      2  N   UNL     1      31.640 -13.753 -27.592  0.00  0.00    -0.319 NA
ATOM      3  C   UNL     1      33.048 -15.998 -26.997  0.00  0.00    +0.278 C 
ATOM      4  C   UNL     1      31.722 -16.144 -27.325  0.00  0.00    +0.156 C 
ATOM      5  C   UNL     1      31.058 -14.970 -27.618  0.00  0.00    +0.113 C 
ATOM      6  C   UNL     1      32.944 -13.754 -27.253  0.00  0.00    +0.317 C 
ATOM      7  C   UNL     1      29.613 -15.016 -27.987  0.00  0.00    +0.063 C 
ENDROOT
BRANCH   3   8
ATOM      8  O   UNL     1      33.786 -17.128 -26.692  0.00  0.00    -0.429 OA
BRANCH   8  13
ATOM      9  O   UNL     1      34.804 -15.903 -22.141  0.00  0.00    -0.435 OA
ATOM     10  O   UNL     1      34.573 -18.180 -21.386  0.00  0.00    -0.435 OA
ATOM     11  C   UNL     1      34.484 -16.753 -23.154  0.00  0.00    +0.179 C 
ATOM     12  C   UNL     1      34.352 -18.053 -22.723  0.00  0.00    +0.177 C 
ATOM     13  C   UNL     1      33.976 -17.423 -25.376  0.00  0.00    +0.151 C 
ATOM     14  C   UNL     1      34.302 -16.405 -24.476  0.00  0.00    +0.078 C 
ATOM     15  C   UNL     1      34.031 -19.077 -23.590  0.00  0.00    +0.043 C 
ATOM     16  C   UNL     1      33.841 -18.752 -24.935  0.00  0.00    +0.041 C 
ATOM     17  C   UNL     1      34.857 -16.813 -21.024  0.00  0.00    +0.429 C 
ENDBRANCH   8  13
ENDBRANCH   3   8
BRANCH   6  18
ATOM     18  O   UNL     1      33.569 -12.529 -27.213  0.00  0.00    -0.375 OA
BRANCH  18  20
ATOM     19  C   UNL     1      32.833 -10.136 -23.903  0.00  0.00    +0.057 C 
ATOM     20  C   UNL     1      33.325 -11.734 -26.114  0.00  0.00    +0.161 C 
ATOM     21  C   UNL     1      33.164 -11.480 -23.732  0.00  0.00    +0.018 C 
ATOM     22  C   UNL     1      32.750  -9.596 -25.186  0.00  0.00    +0.018 C 
ATOM     23  C   UNL     1      33.412 -12.285 -24.845  0.00  0.00    +0.040 C 
ATOM     24  C   UNL     1      32.998 -10.400 -26.299  0.00  0.00    +0.040 C 
BRANCH  19  25
ATOM     25  N   UNL     1      32.587  -9.339 -22.800  0.00  0.00    -0.246 N 
ATOM     26  N   UNL     1      32.739  -7.621 -21.387  0.00  0.00    -0.224 NA
ATOM     27  C   UNL     1      31.697  -9.594 -21.787  0.00  0.00    +0.092 C 
ATOM     28  C   UNL     1      33.188  -8.139 -22.509  0.00  0.00    +0.172 C 
ATOM     29  C   UNL     1      31.811  -8.524 -20.932  0.00  0.00    +0.117 C 
ENDBRANCH  19  25
ENDBRANCH  18  20
ENDBRANCH   6  18
TORSDOF 5
ENDMDL
MODEL 6
REMARK VINA RESULT:     -10.5      3.775     10.058
REMARK  Name = 10157080
REMARK  5 active torsions:
REMARK  status: ('A' for Active; 'I' for Inactive)
REMARK    1  A    between atoms: C_3  and  O_8
REMARK    2  A    between atoms: C_6  and  O_18
REMARK    3  A    between atoms: O_8  and  C_13
REMARK    4  A    between atoms: O_18  and  C_20
REMARK    5  A    between atoms: C_19  and  N_25
REMARK                            x       y       z     vdW  Elec       q    Type
REMARK                         _______ _______ _______ _____ _____    ______ ____
ROOT
ATOM      1  N   UNL     1      36.106 -19.525 -20.755  0.00  0.00    -0.277 NA
ATOM      2  N   UNL     1      34.327 -20.904 -19.894  0.00  0.00    -0.319 NA
ATOM      3  C   UNL     1      35.174 -18.823 -21.419  0.00  0.00    +0.278 C 
ATOM      4  C   UNL     1      33.826 -19.081 -21.385  0.00  0.00    +0.156 C 
ATOM      5  C   UNL     1      33.454 -20.149 -20.594  0.00  0.00    +0.113 C 
ATOM      6  C   UNL     1      35.618 -20.541 -20.019  0.00  0.00    +0.317 C 
ATOM      7  C   UNL     1      32.012 -20.516 -20.485  0.00  0.00    +0.063 C 
ENDROOT
BRANCH   3   8
ATOM      8  O   UNL     1      35.629 -17.766 -22.188  0.00  0.00    -0.429 OA
BRANCH   8  13
ATOM      9  O   UNL     1      33.430 -14.895 -25.379  0.00  0.00    -0.435 OA
ATOM     10  O   UNL     1      33.119 -16.714 -26.929  0.00  0.00    -0.435 OA
ATOM     11  C   UNL     1      33.932 -16.069 -24.906  0.00  0.00    +0.179 C 
ATOM     12  C   UNL     1      33.754 -17.107 -25.792  0.00  0.00    +0.177 C 
ATOM     13  C   UNL     1      35.006 -17.536 -23.378  0.00  0.00    +0.151 C 
ATOM     14  C   UNL     1      34.555 -16.251 -23.689  0.00  0.00    +0.078 C 
ATOM     15  C   UNL     1      34.190 -18.386 -25.509  0.00  0.00    +0.043 C 
ATOM     16  C   UNL     1      34.825 -18.597 -24.283  0.00  0.00    +0.041 C 
ATOM     17  C   UNL     1      32.917 -15.312 -26.661  0.00  0.00    +0.429 C 
ENDBRANCH   8  13
ENDBRANCH   3   8
BRANCH   6  18
ATOM     18  O   UNL     1      36.537 -21.291 -19.322  0.00  0.00    -0.375 OA
BRANCH  18  20
ATOM     19  C   UNL     1      35.320 -22.878 -15.685  0.00  0.00    +0.057 C 
ATOM     20  C   UNL     1      36.132 -21.818 -18.114  0.00  0.00    +0.161 C 
ATOM     21  C   UNL     1      36.581 -22.293 -15.803  0.00  0.00    +0.018 C 
ATOM     22  C   UNL     1      34.469 -22.929 -16.788  0.00  0.00    +0.018 C 
ATOM     23  C   UNL     1      36.990 -21.759 -17.026  0.00  0.00    +0.040 C 
ATOM     24  C   UNL     1      34.876 -22.395 -18.010  0.00  0.00    +0.040 C 
BRANCH  19  25
ATOM     25  N   UNL     1      34.916 -23.407 -14.473  0.00  0.00    -0.246 N 
ATOM     26  N   UNL     1      33.583 -24.286 -12.917  0.00  0.00    -0.224 NA
ATOM     27  C   UNL     1      35.700 -23.611 -13.365  0.00  0.00    +0.092 C 
ATOM     28  C   UNL     1      33.651 -23.830 -14.148  0.00  0.00    +0.172 C 
ATOM     29  C   UNL     1      34.856 -24.151 -12.424  0.00  0.00    +0.117 C 
ENDBRANCH  19  25
ENDBRANCH  18  20
ENDBRANCH   6  18
TORSDOF 5
ENDMDL
MODEL 7
REMARK VINA RESULT:     -10.4      7.179     13.618
REMARK  Name = 10157080
REMARK  5 active torsions:
REMARK  status: ('A' for Active; 'I' for Inactive)
REMARK    1  A    between atoms: C_3  and  O_8
REMARK    2  A    between atoms: C_6  and  O_18
REMARK    3  A    between atoms: O_8  and  C_13
REMARK    4  A    between atoms: O_18  and  C_20
REMARK    5  A    between atoms: C_19  and  N_25
REMARK                            x       y       z     vdW  Elec       q    Type
REMARK                         _______ _______ _______ _____ _____    ______ ____
ROOT
ATOM      1  N   UNL     1      33.988 -13.924 -24.535  0.00  0.00    -0.277 NA
ATOM      2  N   UNL     1      33.705 -14.347 -22.178  0.00  0.00    -0.319 NA
ATOM      3  C   UNL     1      33.115 -12.912 -24.407  0.00  0.00    +0.278 C 
ATOM      4  C   UNL     1      32.499 -12.551 -23.234  0.00  0.00    +0.156 C 
ATOM      5  C   UNL     1      32.837 -13.315 -22.135  0.00  0.00    +0.113 C 
ATOM      6  C   UNL     1      34.236 -14.593 -23.392  0.00  0.00    +0.317 C 
ATOM      7  C   UNL     1      32.225 -13.008 -20.810  0.00  0.00    +0.063 C 
ENDROOT
BRANCH   3   8
ATOM      8  O   UNL     1      32.831 -12.193 -25.555  0.00  0.00    -0.429 OA
BRANCH   8  13
ATOM      9  O   UNL     1      32.626  -7.471 -26.511  0.00  0.00    -0.435 OA
ATOM     10  O   UNL     1      34.987  -7.200 -26.109  0.00  0.00    -0.435 OA
ATOM     11  C   UNL     1      33.230  -8.641 -26.167  0.00  0.00    +0.179 C 
ATOM     12  C   UNL     1      34.578  -8.486 -25.938  0.00  0.00    +0.177 C 
ATOM     13  C   UNL     1      33.399 -10.961 -25.685  0.00  0.00    +0.151 C 
ATOM     14  C   UNL     1      32.610  -9.868 -26.049  0.00  0.00    +0.078 C 
ATOM     15  C   UNL     1      35.380  -9.550 -25.578  0.00  0.00    +0.043 C 
ATOM     16  C   UNL     1      34.777 -10.803 -25.451  0.00  0.00    +0.041 C 
ATOM     17  C   UNL     1      33.746  -6.562 -26.471  0.00  0.00    +0.429 C 
ENDBRANCH   8  13
ENDBRANCH   3   8
BRANCH   6  18
ATOM     18  O   UNL     1      35.123 -15.641 -23.474  0.00  0.00    -0.375 OA
BRANCH  18  20
ATOM     19  C   UNL     1      34.210 -19.067 -21.317  0.00  0.00    +0.057 C 
ATOM     20  C   UNL     1      34.820 -16.778 -22.758  0.00  0.00    +0.161 C 
ATOM     21  C   UNL     1      33.898 -18.994 -22.674  0.00  0.00    +0.018 C 
ATOM     22  C   UNL     1      34.829 -17.989 -20.684  0.00  0.00    +0.018 C 
ATOM     23  C   UNL     1      34.205 -17.843 -23.400  0.00  0.00    +0.040 C 
ATOM     24  C   UNL     1      35.137 -16.838 -21.409  0.00  0.00    +0.040 C 
BRANCH  19  25
ATOM     25  N   UNL     1      33.905 -20.208 -20.598  0.00  0.00    -0.246 N 
ATOM     26  N   UNL     1      32.688 -21.810 -19.636  0.00  0.00    -0.224 NA
ATOM     27  C   UNL     1      34.797 -21.061 -19.998  0.00  0.00    +0.092 C 
ATOM     28  C   UNL     1      32.650 -20.706 -20.348  0.00  0.00    +0.172 C 
ATOM     29  C   UNL     1      34.023 -22.036 -19.414  0.00  0.00    +0.117 C 
ENDBRANCH  19  25
ENDBRANCH  18  20
ENDBRANCH   6  18
TORSDOF 5
ENDMDL
