MODEL 1
REMARK VINA RESULT:     -13.2      0.000      0.000
REMARK  Name = 1712
REMARK  5 active torsions:
REMARK  status: ('A' for Active; 'I' for Inactive)
REMARK    1  A    between atoms: C_1  and  N_18
REMARK    2  A    between atoms: C_2  and  S_7
REMARK    3  A    between atoms: S_7  and  N_10
REMARK    4  A    between atoms: N_18  and  C_20
REMARK    5  A    between atoms: C_20  and  C_26
REMARK                            x       y       z     vdW  Elec       q    Type
REMARK                         _______ _______ _______ _____ _____    ______ ____
ROOT
ATOM      1  C   UNL     1      34.018 -19.764 -20.966  0.00  0.00    +0.045 C 
ATOM      2  C   UNL     1      33.577 -21.827 -19.105  0.00  0.00    +0.125 C 
ATOM      3  C   UNL     1      32.713 -20.122 -20.583  0.00  0.00    +0.016 C 
ATOM      4  C   UNL     1      35.097 -20.464 -20.396  0.00  0.00    +0.016 C 
ATOM      5  C   UNL     1      32.494 -21.145 -19.660  0.00  0.00    +0.021 C 
ATOM      6  C   UNL     1      34.878 -21.486 -19.473  0.00  0.00    +0.021 C 
ENDROOT
BRANCH   2   7
ATOM      7  S   UNL     1      33.303 -23.108 -17.951  0.00  0.00    +0.075 S 
ATOM      8  O   UNL     1      34.310 -22.986 -16.903  0.00  0.00    -0.150 OA
ATOM      9  O   UNL     1      33.189 -24.369 -18.672  0.00  0.00    -0.150 OA
BRANCH   7  10
ATOM     10  N   UNL     1      31.774 -22.691 -17.273  0.00  0.00    -0.199 N 
ATOM     11  H   UNL     1      31.193 -22.025 -17.706  0.00  0.00    +0.175 HD
ATOM     12  N   UNL     1      32.094 -23.037 -14.962  0.00  0.00    -0.228 NA
ATOM     13  C   UNL     1      31.372 -23.345 -16.057  0.00  0.00    +0.147 C 
ATOM     14  C   UNL     1      30.306 -24.223 -16.077  0.00  0.00    +0.036 C 
ATOM     15  C   UNL     1      29.952 -24.832 -14.879  0.00  0.00    +0.005 C 
ATOM     16  C   UNL     1      31.721 -23.649 -13.815  0.00  0.00    +0.100 C 
ATOM     17  C   UNL     1      30.668 -24.544 -13.722  0.00  0.00    +0.021 C 
ENDBRANCH   7  10
ENDBRANCH   2   7
BRANCH   1  18
ATOM     18  N   UNL     1      34.236 -18.747 -21.883  0.00  0.00    -0.328 N 
ATOM     19  H   UNL     1      33.739 -17.904 -21.769  0.00  0.00    +0.147 HD
BRANCH  18  20
ATOM     20  C   UNL     1      35.146 -18.851 -22.996  0.00  0.00    +0.127 C 
BRANCH  20  26
ATOM     21  S   UNL     1      34.557 -15.328 -22.490  0.00  0.00    -0.104 S 
ATOM     22  O   UNL     1      34.467 -20.442 -25.374  0.00  0.00    -0.210 OA
ATOM     23  N   UNL     1      33.591 -18.531 -26.378  0.00  0.00    -0.333 NA
ATOM     24  N   UNL     1      33.471 -13.560 -24.048  0.00  0.00    -0.262 NA
ATOM     25  C   UNL     1      34.053 -17.132 -24.590  0.00  0.00    +0.033 C 
ATOM     26  C   UNL     1      34.490 -18.334 -24.221  0.00  0.00    +0.092 C 
ATOM     27  C   UNL     1      33.504 -17.318 -25.942  0.00  0.00    +0.142 C 
ATOM     28  C   UNL     1      34.012 -15.853 -24.014  0.00  0.00    +0.114 C 
ATOM     29  C   UNL     1      34.198 -19.249 -25.367  0.00  0.00    +0.202 C 
ATOM     30  C   UNL     1      33.469 -14.772 -24.689  0.00  0.00    +0.069 C 
ATOM     31  C   UNL     1      32.930 -16.132 -26.634  0.00  0.00    +0.034 C 
ATOM     32  C   UNL     1      32.930 -14.940 -26.005  0.00  0.00    +0.018 C 
ATOM     33  C   UNL     1      34.026 -13.734 -22.867  0.00  0.00    +0.183 C 
ENDBRANCH  20  26
ENDBRANCH  18  20
ENDBRANCH   1  18
TORSDOF 5
ENDMDL
MODEL 2
REMARK VINA RESULT:     -12.8      1.897      2.866
REMARK  Name = 1712
REMARK  5 active torsions:
REMARK  status: ('A' for Active; 'I' for Inactive)
REMARK    1  A    between atoms: C_1  and  N_18
REMARK    2  A    between atoms: C_2  and  S_7
REMARK    3  A    between atoms: S_7  and  N_10
REMARK    4  A    between atoms: N_18  and  C_20
REMARK    5  A    between atoms: C_20  and  C_26
REMARK                            x       y       z     vdW  Elec       q    Type
REMARK                         _______ _______ _______ _____ _____    ______ ____
ROOT
ATOM      1  C   UNL     1      33.802 -19.700 -21.333  0.00  0.00    +0.045 C 
ATOM      2  C   UNL     1      33.582 -21.680 -19.346  0.00  0.00    +0.125 C 
ATOM      3  C   UNL     1      34.949 -20.313 -20.795  0.00  0.00    +0.016 C 
ATOM      4  C   UNL     1      32.543 -20.101 -20.852  0.00  0.00    +0.016 C 
ATOM      5  C   UNL     1      34.840 -21.294 -19.811  0.00  0.00    +0.021 C 
ATOM      6  C   UNL     1      32.434 -21.083 -19.867  0.00  0.00    +0.021 C 
ENDROOT
BRANCH   2   7
ATOM      7  S   UNL     1      33.445 -22.908 -18.113  0.00  0.00    +0.075 S 
ATOM      8  O   UNL     1      34.602 -22.786 -17.234  0.00  0.00    -0.150 OA
ATOM      9  O   UNL     1      33.185 -24.189 -18.758  0.00  0.00    -0.150 OA
BRANCH   7  10
ATOM     10  N   UNL     1      32.050 -22.411 -17.233  0.00  0.00    -0.199 N 
ATOM     11  H   UNL     1      31.557 -21.596 -17.482  0.00  0.00    +0.175 HD
ATOM     12  N   UNL     1      32.457 -23.239 -15.062  0.00  0.00    -0.228 NA
ATOM     13  C   UNL     1      31.627 -23.222 -16.122  0.00  0.00    +0.147 C 
ATOM     14  C   UNL     1      30.434 -23.914 -16.202  0.00  0.00    +0.036 C 
ATOM     15  C   UNL     1      30.064 -24.684 -15.105  0.00  0.00    +0.005 C 
ATOM     16  C   UNL     1      32.065 -24.000 -14.015  0.00  0.00    +0.100 C 
ATOM     17  C   UNL     1      30.890 -24.733 -13.987  0.00  0.00    +0.021 C 
ENDBRANCH   7  10
ENDBRANCH   2   7
BRANCH   1  18
ATOM     18  N   UNL     1      33.911 -18.724 -22.313  0.00  0.00    -0.328 N 
ATOM     19  H   UNL     1      33.180 -18.641 -22.968  0.00  0.00    +0.147 HD
BRANCH  18  20
ATOM     20  C   UNL     1      35.033 -17.826 -22.430  0.00  0.00    +0.127 C 
BRANCH  20  26
ATOM     21  S   UNL     1      34.020 -16.610 -25.673  0.00  0.00    -0.104 S 
ATOM     22  O   UNL     1      34.970 -16.358 -19.884  0.00  0.00    -0.210 OA
ATOM     23  N   UNL     1      34.108 -14.503 -20.997  0.00  0.00    -0.333 NA
ATOM     24  N   UNL     1      33.071 -14.304 -26.386  0.00  0.00    -0.262 NA
ATOM     25  C   UNL     1      34.091 -15.508 -23.084  0.00  0.00    +0.033 C 
ATOM     26  C   UNL     1      34.568 -16.430 -22.251  0.00  0.00    +0.092 C 
ATOM     27  C   UNL     1      33.822 -14.330 -22.245  0.00  0.00    +0.142 C 
ATOM     28  C   UNL     1      33.818 -15.435 -24.459  0.00  0.00    +0.114 C 
ATOM     29  C   UNL     1      34.585 -15.794 -20.898  0.00  0.00    +0.202 C 
ATOM     30  C   UNL     1      33.305 -14.284 -25.035  0.00  0.00    +0.069 C 
ATOM     31  C   UNL     1      33.271 -13.114 -22.902  0.00  0.00    +0.034 C 
ATOM     32  C   UNL     1      33.040 -13.131 -24.230  0.00  0.00    +0.018 C 
ATOM     33  C   UNL     1      33.415 -15.493 -26.834  0.00  0.00    +0.183 C 
ENDBRANCH  20  26
ENDBRANCH  18  20
ENDBRANCH   1  18
TORSDOF 5
ENDMDL
MODEL 3
REMARK VINA RESULT:     -12.6      2.406     10.551
REMARK  Name = 1712
REMARK  5 active torsions:
REMARK  status: ('A' for Active; 'I' for Inactive)
REMARK    1  A    between atoms: C_1  and  N_18
REMARK    2  A    between atoms: C_2  and  S_7
REMARK    3  A    between atoms: S_7  and  N_10
REMARK    4  A    between atoms: N_18  and  C_20
REMARK    5  A    between atoms: C_20  and  C_26
REMARK                            x       y       z     vdW  Elec       q    Type
REMARK                         _______ _______ _______ _____ _____    ______ ____
ROOT
ATOM      1  C   UNL     1      33.257 -21.220 -19.675  0.00  0.00    +0.045 C 
ATOM      2  C   UNL     1      34.419 -19.451 -21.529  0.00  0.00    +0.125 C 
ATOM      3  C   UNL     1      32.455 -20.425 -20.513  0.00  0.00    +0.016 C 
ATOM      4  C   UNL     1      34.655 -21.107 -19.786  0.00  0.00    +0.016 C 
ATOM      5  C   UNL     1      33.031 -19.548 -21.433  0.00  0.00    +0.021 C 
ATOM      6  C   UNL     1      35.231 -20.231 -20.705  0.00  0.00    +0.021 C 
ENDROOT
BRANCH   2   7
ATOM      7  S   UNL     1      35.140 -18.353 -22.679  0.00  0.00    +0.075 S 
ATOM      8  O   UNL     1      36.589 -18.458 -22.547  0.00  0.00    -0.150 OA
ATOM      9  O   UNL     1      34.514 -17.045 -22.531  0.00  0.00    -0.150 OA
BRANCH   7  10
ATOM     10  N   UNL     1      34.691 -19.039 -24.195  0.00  0.00    -0.199 N 
ATOM     11  H   UNL     1      35.033 -19.919 -24.474  0.00  0.00    +0.175 HD
ATOM     12  N   UNL     1      34.305 -17.148 -25.551  0.00  0.00    -0.228 NA
ATOM     13  C   UNL     1      33.802 -18.288 -25.040  0.00  0.00    +0.147 C 
ATOM     14  C   UNL     1      32.525 -18.760 -25.273  0.00  0.00    +0.036 C 
ATOM     15  C   UNL     1      31.700 -18.002 -26.097  0.00  0.00    +0.005 C 
ATOM     16  C   UNL     1      33.474 -16.437 -26.346  0.00  0.00    +0.100 C 
ATOM     17  C   UNL     1      32.177 -16.817 -26.647  0.00  0.00    +0.021 C 
ENDBRANCH   7  10
ENDBRANCH   2   7
BRANCH   1  18
ATOM     18  N   UNL     1      32.685 -22.092 -18.761  0.00  0.00    -0.328 N 
ATOM     19  H   UNL     1      31.719 -22.012 -18.585  0.00  0.00    +0.147 HD
BRANCH  18  20
ATOM     20  C   UNL     1      33.422 -23.109 -18.053  0.00  0.00    +0.127 C 
BRANCH  20  26
ATOM     21  S   UNL     1      36.154 -23.602 -15.749  0.00  0.00    -0.104 S 
ATOM     22  O   UNL     1      30.550 -23.080 -17.422  0.00  0.00    -0.210 OA
ATOM     23  N   UNL     1      31.059 -23.458 -15.181  0.00  0.00    -0.333 NA
ATOM     24  N   UNL     1      36.146 -24.008 -13.187  0.00  0.00    -0.262 NA
ATOM     25  C   UNL     1      33.353 -23.512 -15.499  0.00  0.00    +0.033 C 
ATOM     26  C   UNL     1      32.833 -23.296 -16.705  0.00  0.00    +0.092 C 
ATOM     27  C   UNL     1      32.199 -23.604 -14.590  0.00  0.00    +0.142 C 
ATOM     28  C   UNL     1      34.644 -23.655 -14.968  0.00  0.00    +0.114 C 
ATOM     29  C   UNL     1      31.351 -23.260 -16.515  0.00  0.00    +0.202 C 
ATOM     30  C   UNL     1      34.850 -23.880 -13.616  0.00  0.00    +0.069 C 
ATOM     31  C   UNL     1      32.462 -23.845 -13.146  0.00  0.00    +0.034 C 
ATOM     32  C   UNL     1      33.736 -23.971 -12.722  0.00  0.00    +0.018 C 
ATOM     33  C   UNL     1      36.930 -23.878 -14.237  0.00  0.00    +0.183 C 
ENDBRANCH  20  26
ENDBRANCH  18  20
ENDBRANCH   1  18
TORSDOF 5
ENDMDL
MODEL 4
REMARK VINA RESULT:     -12.3      2.095     10.663
REMARK  Name = 1712
REMARK  5 active torsions:
REMARK  status: ('A' for Active; 'I' for Inactive)
REMARK    1  A    between atoms: C_1  and  N_18
REMARK    2  A    between atoms: C_2  and  S_7
REMARK    3  A    between atoms: S_7  and  N_10
REMARK    4  A    between atoms: N_18  and  C_20
REMARK    5  A    between atoms: C_20  and  C_26
REMARK                            x       y       z     vdW  Elec       q    Type
REMARK                         _______ _______ _______ _____ _____    ______ ____
ROOT
ATOM      1  C   UNL     1      33.856 -21.520 -19.704  0.00  0.00    +0.045 C 
ATOM      2  C   UNL     1      34.745 -19.526 -21.479  0.00  0.00    +0.125 C 
ATOM      3  C   UNL     1      35.229 -21.267 -19.875  0.00  0.00    +0.016 C 
ATOM      4  C   UNL     1      32.939 -20.752 -20.443  0.00  0.00    +0.016 C 
ATOM      5  C   UNL     1      35.670 -20.278 -20.755  0.00  0.00    +0.021 C 
ATOM      6  C   UNL     1      33.379 -19.763 -21.323  0.00  0.00    +0.021 C 
ENDROOT
BRANCH   2   7
ATOM      7  S   UNL     1      35.297 -18.290 -22.582  0.00  0.00    +0.075 S 
ATOM      8  O   UNL     1      36.752 -18.234 -22.496  0.00  0.00    -0.150 OA
ATOM      9  O   UNL     1      34.531 -17.074 -22.340  0.00  0.00    -0.150 OA
BRANCH   7  10
ATOM     10  N   UNL     1      34.877 -18.938 -24.123  0.00  0.00    -0.199 N 
ATOM     11  H   UNL     1      35.236 -19.804 -24.422  0.00  0.00    +0.175 HD
ATOM     12  N   UNL     1      34.483 -17.014 -25.429  0.00  0.00    -0.228 NA
ATOM     13  C   UNL     1      33.989 -18.175 -24.958  0.00  0.00    +0.147 C 
ATOM     14  C   UNL     1      32.722 -18.658 -25.222  0.00  0.00    +0.036 C 
ATOM     15  C   UNL     1      31.897 -17.888 -26.034  0.00  0.00    +0.005 C 
ATOM     16  C   UNL     1      33.652 -16.292 -26.214  0.00  0.00    +0.100 C 
ATOM     17  C   UNL     1      32.364 -16.681 -26.544  0.00  0.00    +0.021 C 
ENDBRANCH   7  10
ENDBRANCH   2   7
BRANCH   1  18
ATOM     18  N   UNL     1      33.418 -22.501 -18.828  0.00  0.00    -0.328 N 
ATOM     19  H   UNL     1      33.930 -23.341 -18.778  0.00  0.00    +0.147 HD
BRANCH  18  20
ATOM     20  C   UNL     1      32.254 -22.365 -17.988  0.00  0.00    +0.127 C 
BRANCH  20  26
ATOM     21  S   UNL     1      29.017 -23.422 -16.795  0.00  0.00    -0.104 S 
ATOM     22  O   UNL     1      34.860 -22.849 -16.716  0.00  0.00    -0.210 OA
ATOM     23  N   UNL     1      33.786 -23.996 -14.997  0.00  0.00    -0.333 NA
ATOM     24  N   UNL     1      28.358 -24.764 -14.675  0.00  0.00    -0.262 NA
ATOM     25  C   UNL     1      31.655 -23.705 -15.858  0.00  0.00    +0.033 C 
ATOM     26  C   UNL     1      32.471 -23.102 -16.720  0.00  0.00    +0.092 C 
ATOM     27  C   UNL     1      32.532 -24.243 -14.806  0.00  0.00    +0.142 C 
ATOM     28  C   UNL     1      30.271 -23.913 -15.756  0.00  0.00    +0.114 C 
ATOM     29  C   UNL     1      33.852 -23.281 -16.175  0.00  0.00    +0.202 C 
ATOM     30  C   UNL     1      29.720 -24.610 -14.692  0.00  0.00    +0.069 C 
ATOM     31  C   UNL     1      31.902 -24.985 -13.681  0.00  0.00    +0.034 C 
ATOM     32  C   UNL     1      30.562 -25.138 -13.662  0.00  0.00    +0.018 C 
ATOM     33  C   UNL     1      27.875 -24.171 -15.747  0.00  0.00    +0.183 C 
ENDBRANCH  20  26
ENDBRANCH  18  20
ENDBRANCH   1  18
TORSDOF 5
ENDMDL
MODEL 5
REMARK VINA RESULT:     -12.3      3.988      7.231
REMARK  Name = 1712
REMARK  5 active torsions:
REMARK  status: ('A' for Active; 'I' for Inactive)
REMARK    1  A    between atoms: C_1  and  N_18
REMARK    2  A    between atoms: C_2  and  S_7
REMARK    3  A    between atoms: S_7  and  N_10
REMARK    4  A    between atoms: N_18  and  C_20
REMARK    5  A    between atoms: C_20  and  C_26
REMARK                            x       y       z     vdW  Elec       q    Type
REMARK                         _______ _______ _______ _____ _____    ______ ____
ROOT
ATOM      1  C   UNL     1      33.812 -14.367 -23.861  0.00  0.00    +0.045 C 
ATOM      2  C   UNL     1      34.622 -16.928 -23.023  0.00  0.00    +0.125 C 
ATOM      3  C   UNL     1      33.723 -15.471 -24.728  0.00  0.00    +0.016 C 
ATOM      4  C   UNL     1      34.318 -14.575 -22.565  0.00  0.00    +0.016 C 
ATOM      5  C   UNL     1      34.124 -16.740 -24.313  0.00  0.00    +0.021 C 
ATOM      6  C   UNL     1      34.719 -15.845 -22.149  0.00  0.00    +0.021 C 
ENDROOT
BRANCH   2   7
ATOM      7  S   UNL     1      35.126 -18.516 -22.504  0.00  0.00    +0.075 S 
ATOM      8  O   UNL     1      36.575 -18.493 -22.339  0.00  0.00    -0.150 OA
ATOM      9  O   UNL     1      34.536 -19.507 -23.396  0.00  0.00    -0.150 OA
BRANCH   7  10
ATOM     10  N   UNL     1      34.412 -18.651 -20.941  0.00  0.00    -0.199 N 
ATOM     11  H   UNL     1      34.098 -17.854 -20.458  0.00  0.00    +0.175 HD
ATOM     12  N   UNL     1      35.448 -20.569 -20.038  0.00  0.00    -0.228 NA
ATOM     13  C   UNL     1      34.290 -19.964 -20.365  0.00  0.00    +0.147 C 
ATOM     14  C   UNL     1      33.035 -20.512 -20.185  0.00  0.00    +0.036 C 
ATOM     15  C   UNL     1      32.964 -21.782 -19.624  0.00  0.00    +0.005 C 
ATOM     16  C   UNL     1      35.339 -21.803 -19.496  0.00  0.00    +0.100 C 
ATOM     17  C   UNL     1      34.133 -22.446 -19.270  0.00  0.00    +0.021 C 
ENDBRANCH   7  10
ENDBRANCH   2   7
BRANCH   1  18
ATOM     18  N   UNL     1      33.412 -13.104 -24.273  0.00  0.00    -0.328 N 
ATOM     19  H   UNL     1      33.915 -12.673 -25.002  0.00  0.00    +0.147 HD
BRANCH  18  20
ATOM     20  C   UNL     1      32.304 -12.386 -23.695  0.00  0.00    +0.127 C 
BRANCH  20  26
ATOM     21  S   UNL     1      31.357 -11.253 -20.402  0.00  0.00    -0.104 S 
ATOM     22  O   UNL     1      33.514 -10.785 -25.843  0.00  0.00    -0.210 OA
ATOM     23  N   UNL     1      33.471  -8.919 -24.451  0.00  0.00    -0.333 NA
ATOM     24  N   UNL     1      31.546  -8.909 -19.308  0.00  0.00    -0.262 NA
ATOM     25  C   UNL     1      32.515 -10.027 -22.655  0.00  0.00    +0.033 C 
ATOM     26  C   UNL     1      32.640 -10.944 -23.611  0.00  0.00    +0.092 C 
ATOM     27  C   UNL     1      33.050  -8.785 -23.237  0.00  0.00    +0.142 C 
ATOM     28  C   UNL     1      32.029 -10.002 -21.339  0.00  0.00    +0.114 C 
ATOM     29  C   UNL     1      33.255 -10.242 -24.779  0.00  0.00    +0.202 C 
ATOM     30  C   UNL     1      32.043  -8.839 -20.584  0.00  0.00    +0.069 C 
ATOM     31  C   UNL     1      33.047  -7.560 -22.394  0.00  0.00    +0.034 C 
ATOM     32  C   UNL     1      32.559  -7.625 -21.139  0.00  0.00    +0.018 C 
ATOM     33  C   UNL     1      31.151 -10.147 -19.099  0.00  0.00    +0.183 C 
ENDBRANCH  20  26
ENDBRANCH  18  20
ENDBRANCH   1  18
TORSDOF 5
ENDMDL
MODEL 6
REMARK VINA RESULT:     -12.2      2.064      2.382
REMARK  Name = 1712
REMARK  5 active torsions:
REMARK  status: ('A' for Active; 'I' for Inactive)
REMARK    1  A    between atoms: C_1  and  N_18
REMARK    2  A    between atoms: C_2  and  S_7
REMARK    3  A    between atoms: S_7  and  N_10
REMARK    4  A    between atoms: N_18  and  C_20
REMARK    5  A    between atoms: C_20  and  C_26
REMARK                            x       y       z     vdW  Elec       q    Type
REMARK                         _______ _______ _______ _____ _____    ______ ____
ROOT
ATOM      1  C   UNL     1      33.663 -19.748 -21.118  0.00  0.00    +0.045 C 
ATOM      2  C   UNL     1      33.519 -21.739 -19.135  0.00  0.00    +0.125 C 
ATOM      3  C   UNL     1      34.829 -20.363 -20.628  0.00  0.00    +0.016 C 
ATOM      4  C   UNL     1      32.423 -20.153 -20.591  0.00  0.00    +0.016 C 
ATOM      5  C   UNL     1      34.758 -21.351 -19.646  0.00  0.00    +0.021 C 
ATOM      6  C   UNL     1      32.351 -21.140 -19.608  0.00  0.00    +0.021 C 
ENDROOT
BRANCH   2   7
ATOM      7  S   UNL     1      33.430 -22.973 -17.904  0.00  0.00    +0.075 S 
ATOM      8  O   UNL     1      33.433 -24.270 -18.572  0.00  0.00    -0.150 OA
ATOM      9  O   UNL     1      32.333 -22.652 -16.999  0.00  0.00    -0.150 OA
BRANCH   7  10
ATOM     10  N   UNL     1      34.931 -22.796 -17.076  0.00  0.00    -0.199 N 
ATOM     11  H   UNL     1      35.650 -22.235 -17.446  0.00  0.00    +0.175 HD
ATOM     12  N   UNL     1      35.150 -24.834 -15.910  0.00  0.00    -0.228 NA
ATOM     13  C   UNL     1      35.101 -23.491 -15.828  0.00  0.00    +0.147 C 
ATOM     14  C   UNL     1      35.202 -22.768 -14.656  0.00  0.00    +0.036 C 
ATOM     15  C   UNL     1      35.367 -23.481 -13.474  0.00  0.00    +0.005 C 
ATOM     16  C   UNL     1      35.310 -25.494 -14.740  0.00  0.00    +0.100 C 
ATOM     17  C   UNL     1      35.422 -24.870 -13.508  0.00  0.00    +0.021 C 
ENDBRANCH   7  10
ENDBRANCH   2   7
BRANCH   1  18
ATOM     18  N   UNL     1      33.733 -18.768 -22.096  0.00  0.00    -0.328 N 
ATOM     19  H   UNL     1      33.027 -18.081 -22.117  0.00  0.00    +0.147 HD
BRANCH  18  20
ATOM     20  C   UNL     1      34.778 -18.696 -23.087  0.00  0.00    +0.127 C 
BRANCH  20  26
ATOM     21  S   UNL     1      34.376 -15.147 -22.580  0.00  0.00    -0.104 S 
ATOM     22  O   UNL     1      34.148 -20.226 -25.518  0.00  0.00    -0.210 OA
ATOM     23  N   UNL     1      33.453 -18.258 -26.552  0.00  0.00    -0.333 NA
ATOM     24  N   UNL     1      33.495 -13.305 -24.180  0.00  0.00    -0.262 NA
ATOM     25  C   UNL     1      33.891 -16.902 -24.725  0.00  0.00    +0.033 C 
ATOM     26  C   UNL     1      34.230 -18.131 -24.344  0.00  0.00    +0.092 C 
ATOM     27  C   UNL     1      33.413 -17.045 -26.110  0.00  0.00    +0.142 C 
ATOM     28  C   UNL     1      33.893 -15.627 -24.139  0.00  0.00    +0.114 C 
ATOM     29  C   UNL     1      33.953 -19.018 -25.514  0.00  0.00    +0.202 C 
ATOM     30  C   UNL     1      33.458 -14.510 -24.833  0.00  0.00    +0.069 C 
ATOM     31  C   UNL     1      32.955 -15.821 -26.821  0.00  0.00    +0.034 C 
ATOM     32  C   UNL     1      32.991 -14.635 -26.181  0.00  0.00    +0.018 C 
ATOM     33  C   UNL     1      33.967 -13.521 -22.970  0.00  0.00    +0.183 C 
ENDBRANCH  20  26
ENDBRANCH  18  20
ENDBRANCH   1  18
TORSDOF 5
ENDMDL
MODEL 7
REMARK VINA RESULT:     -12.1      2.739      3.558
REMARK  Name = 1712
REMARK  5 active torsions:
REMARK  status: ('A' for Active; 'I' for Inactive)
REMARK    1  A    between atoms: C_1  and  N_18
REMARK    2  A    between atoms: C_2  and  S_7
REMARK    3  A    between atoms: S_7  and  N_10
REMARK    4  A    between atoms: N_18  and  C_20
REMARK    5  A    between atoms: C_20  and  C_26
REMARK                            x       y       z     vdW  Elec       q    Type
REMARK                         _______ _______ _______ _____ _____    ______ ____
ROOT
ATOM      1  C   UNL     1      33.764 -19.710 -21.308  0.00  0.00    +0.045 C 
ATOM      2  C   UNL     1      33.533 -21.674 -19.306  0.00  0.00    +0.125 C 
ATOM      3  C   UNL     1      34.905 -20.344 -20.785  0.00  0.00    +0.016 C 
ATOM      4  C   UNL     1      32.504 -20.081 -20.803  0.00  0.00    +0.016 C 
ATOM      5  C   UNL     1      34.791 -21.318 -19.793  0.00  0.00    +0.021 C 
ATOM      6  C   UNL     1      32.390 -21.054 -19.811  0.00  0.00    +0.021 C 
ENDROOT
BRANCH   2   7
ATOM      7  S   UNL     1      33.390 -22.891 -18.064  0.00  0.00    +0.075 S 
ATOM      8  O   UNL     1      33.407 -24.196 -18.715  0.00  0.00    -0.150 OA
ATOM      9  O   UNL     1      32.263 -22.550 -17.204  0.00  0.00    -0.150 OA
BRANCH   7  10
ATOM     10  N   UNL     1      34.861 -22.714 -17.184  0.00  0.00    -0.199 N 
ATOM     11  H   UNL     1      35.592 -22.151 -17.527  0.00  0.00    +0.175 HD
ATOM     12  N   UNL     1      35.043 -24.755 -16.016  0.00  0.00    -0.228 NA
ATOM     13  C   UNL     1      34.989 -23.412 -15.933  0.00  0.00    +0.147 C 
ATOM     14  C   UNL     1      35.048 -22.692 -14.756  0.00  0.00    +0.036 C 
ATOM     15  C   UNL     1      35.173 -23.408 -13.570  0.00  0.00    +0.005 C 
ATOM     16  C   UNL     1      35.163 -25.418 -14.843  0.00  0.00    +0.100 C 
ATOM     17  C   UNL     1      35.232 -24.797 -13.607  0.00  0.00    +0.021 C 
ENDBRANCH   7  10
ENDBRANCH   2   7
BRANCH   1  18
ATOM     18  N   UNL     1      33.877 -18.742 -22.295  0.00  0.00    -0.328 N 
ATOM     19  H   UNL     1      33.136 -18.644 -22.936  0.00  0.00    +0.147 HD
BRANCH  18  20
ATOM     20  C   UNL     1      35.018 -17.873 -22.439  0.00  0.00    +0.127 C 
BRANCH  20  26
ATOM     21  S   UNL     1      33.924 -16.774 -25.696  0.00  0.00    -0.104 S 
ATOM     22  O   UNL     1      35.063 -16.299 -19.955  0.00  0.00    -0.210 OA
ATOM     23  N   UNL     1      34.197 -14.476 -21.118  0.00  0.00    -0.333 NA
ATOM     24  N   UNL     1      32.992 -14.482 -26.476  0.00  0.00    -0.262 NA
ATOM     25  C   UNL     1      34.096 -15.567 -23.160  0.00  0.00    +0.033 C 
ATOM     26  C   UNL     1      34.584 -16.461 -22.304  0.00  0.00    +0.092 C 
ATOM     27  C   UNL     1      33.875 -14.349 -22.363  0.00  0.00    +0.142 C 
ATOM     28  C   UNL     1      33.781 -15.546 -24.527  0.00  0.00    +0.114 C 
ATOM     29  C   UNL     1      34.656 -15.771 -20.980  0.00  0.00    +0.202 C 
ATOM     30  C   UNL     1      33.270 -14.410 -25.135  0.00  0.00    +0.069 C 
ATOM     31  C   UNL     1      33.324 -13.152 -23.053  0.00  0.00    +0.034 C 
ATOM     32  C   UNL     1      33.050 -13.220 -24.371  0.00  0.00    +0.018 C 
ATOM     33  C   UNL     1      33.301 -15.695 -26.884  0.00  0.00    +0.183 C 
ENDBRANCH  20  26
ENDBRANCH  18  20
ENDBRANCH   1  18
TORSDOF 5
ENDMDL
MODEL 8
REMARK VINA RESULT:     -11.9      2.677     10.455
REMARK  Name = 1712
REMARK  5 active torsions:
REMARK  status: ('A' for Active; 'I' for Inactive)
REMARK    1  A    between atoms: C_1  and  N_18
REMARK    2  A    between atoms: C_2  and  S_7
REMARK    3  A    between atoms: S_7  and  N_10
REMARK    4  A    between atoms: N_18  and  C_20
REMARK    5  A    between atoms: C_20  and  C_26
REMARK                            x       y       z     vdW  Elec       q    Type
REMARK                         _______ _______ _______ _____ _____    ______ ____
ROOT
ATOM      1  C   UNL     1      35.401 -20.965 -19.476  0.00  0.00    +0.045 C 
ATOM      2  C   UNL     1      34.834 -19.691 -21.920  0.00  0.00    +0.125 C 
ATOM      3  C   UNL     1      34.082 -20.882 -19.957  0.00  0.00    +0.016 C 
ATOM      4  C   UNL     1      36.430 -20.393 -20.247  0.00  0.00    +0.016 C 
ATOM      5  C   UNL     1      33.801 -20.252 -21.169  0.00  0.00    +0.021 C 
ATOM      6  C   UNL     1      36.149 -19.763 -21.459  0.00  0.00    +0.021 C 
ENDROOT
BRANCH   2   7
ATOM      7  S   UNL     1      34.482 -18.901 -23.436  0.00  0.00    +0.075 S 
ATOM      8  O   UNL     1      33.081 -18.495 -23.412  0.00  0.00    -0.150 OA
ATOM      9  O   UNL     1      34.949 -19.750 -24.525  0.00  0.00    -0.150 OA
BRANCH   7  10
ATOM     10  N   UNL     1      35.452 -17.478 -23.359  0.00  0.00    -0.199 N 
ATOM     11  H   UNL     1      36.319 -17.431 -23.822  0.00  0.00    +0.175 HD
ATOM     12  N   UNL     1      34.883 -16.549 -21.266  0.00  0.00    -0.228 NA
ATOM     13  C   UNL     1      34.956 -16.362 -22.598  0.00  0.00    +0.147 C 
ATOM     14  C   UNL     1      34.594 -15.201 -23.253  0.00  0.00    +0.036 C 
ATOM     15  C   UNL     1      34.120 -14.148 -22.478  0.00  0.00    +0.005 C 
ATOM     16  C   UNL     1      34.418 -15.504 -20.546  0.00  0.00    +0.100 C 
ATOM     17  C   UNL     1      34.028 -14.295 -21.098  0.00  0.00    +0.021 C 
ENDBRANCH   7  10
ENDBRANCH   2   7
BRANCH   1  18
ATOM     18  N   UNL     1      35.681 -21.593 -18.272  0.00  0.00    -0.328 N 
ATOM     19  H   UNL     1      36.571 -21.456 -17.873  0.00  0.00    +0.147 HD
BRANCH  18  20
ATOM     20  C   UNL     1      34.746 -22.437 -17.571  0.00  0.00    +0.127 C 
BRANCH  20  26
ATOM     21  S   UNL     1      32.017 -23.666 -15.556  0.00  0.00    -0.104 S 
ATOM     22  O   UNL     1      37.566 -22.186 -16.779  0.00  0.00    -0.210 OA
ATOM     23  N   UNL     1      37.031 -23.037 -14.678  0.00  0.00    -0.333 NA
ATOM     24  N   UNL     1      31.987 -24.542 -13.115  0.00  0.00    -0.262 NA
ATOM     25  C   UNL     1      34.775 -23.299 -15.133  0.00  0.00    +0.033 C 
ATOM     26  C   UNL     1      35.306 -22.803 -16.248  0.00  0.00    +0.092 C 
ATOM     27  C   UNL     1      35.899 -23.424 -14.191  0.00  0.00    +0.142 C 
ATOM     28  C   UNL     1      33.494 -23.690 -14.712  0.00  0.00    +0.114 C 
ATOM     29  C   UNL     1      36.764 -22.627 -15.968  0.00  0.00    +0.202 C 
ATOM     30  C   UNL     1      33.271 -24.186 -13.438  0.00  0.00    +0.069 C 
ATOM     31  C   UNL     1      35.617 -23.961 -12.833  0.00  0.00    +0.034 C 
ATOM     32  C   UNL     1      34.355 -24.311 -12.512  0.00  0.00    +0.018 C 
ATOM     33  C   UNL     1      31.230 -24.308 -14.166  0.00  0.00    +0.183 C 
ENDBRANCH  20  26
ENDBRANCH  18  20
ENDBRANCH   1  18
TORSDOF 5
ENDMDL
MODEL 9
REMARK VINA RESULT:     -11.9      4.311      7.416
REMARK  Name = 1712
REMARK  5 active torsions:
REMARK  status: ('A' for Active; 'I' for Inactive)
REMARK    1  A    between atoms: C_1  and  N_18
REMARK    2  A    between atoms: C_2  and  S_7
REMARK    3  A    between atoms: S_7  and  N_10
REMARK    4  A    between atoms: N_18  and  C_20
REMARK    5  A    between atoms: C_20  and  C_26
REMARK                            x       y       z     vdW  Elec       q    Type
REMARK                         _______ _______ _______ _____ _____    ______ ____
ROOT
ATOM      1  C   UNL     1      33.588 -14.268 -24.004  0.00  0.00    +0.045 C 
ATOM      2  C   UNL     1      34.460 -16.822 -23.207  0.00  0.00    +0.125 C 
ATOM      3  C   UNL     1      33.431 -15.380 -24.851  0.00  0.00    +0.016 C 
ATOM      4  C   UNL     1      34.192 -14.464 -22.749  0.00  0.00    +0.016 C 
ATOM      5  C   UNL     1      33.863 -16.646 -24.456  0.00  0.00    +0.021 C 
ATOM      6  C   UNL     1      34.624 -15.730 -22.354  0.00  0.00    +0.021 C 
ENDROOT
BRANCH   2   7
ATOM      7  S   UNL     1      35.002 -18.406 -22.713  0.00  0.00    +0.075 S 
ATOM      8  O   UNL     1      36.456 -18.367 -22.610  0.00  0.00    -0.150 OA
ATOM      9  O   UNL     1      34.386 -19.401 -23.581  0.00  0.00    -0.150 OA
BRANCH   7  10
ATOM     10  N   UNL     1      34.357 -18.551 -21.122  0.00  0.00    -0.199 N 
ATOM     11  H   UNL     1      34.019 -17.763 -20.639  0.00  0.00    +0.175 HD
ATOM     12  N   UNL     1      35.529 -20.393 -20.229  0.00  0.00    -0.228 NA
ATOM     13  C   UNL     1      34.328 -19.857 -20.520  0.00  0.00    +0.147 C 
ATOM     14  C   UNL     1      33.113 -20.469 -20.283  0.00  0.00    +0.036 C 
ATOM     15  C   UNL     1      33.132 -21.731 -19.699  0.00  0.00    +0.005 C 
ATOM     16  C   UNL     1      35.508 -21.621 -19.664  0.00  0.00    +0.100 C 
ATOM     17  C   UNL     1      34.349 -22.325 -19.381  0.00  0.00    +0.021 C 
ENDBRANCH   7  10
ENDBRANCH   2   7
BRANCH   1  18
ATOM     18  N   UNL     1      33.157 -13.010 -24.396  0.00  0.00    -0.328 N 
ATOM     19  H   UNL     1      32.346 -12.949 -24.952  0.00  0.00    +0.147 HD
BRANCH  18  20
ATOM     20  C   UNL     1      33.829 -11.785 -24.040  0.00  0.00    +0.127 C 
BRANCH  20  26
ATOM     21  S   UNL     1      34.146  -8.862 -26.132  0.00  0.00    -0.104 S 
ATOM     22  O   UNL     1      31.961 -12.173 -21.802  0.00  0.00    -0.210 OA
ATOM     23  N   UNL     1      31.106 -10.038 -22.171  0.00  0.00    -0.333 NA
ATOM     24  N   UNL     1      32.850  -6.615 -26.095  0.00  0.00    -0.262 NA
ATOM     25  C   UNL     1      32.506  -9.564 -23.956  0.00  0.00    +0.033 C 
ATOM     26  C   UNL     1      32.832 -10.794 -23.566  0.00  0.00    +0.092 C 
ATOM     27  C   UNL     1      31.425  -9.145 -23.049  0.00  0.00    +0.142 C 
ATOM     28  C   UNL     1      32.935  -8.673 -24.951  0.00  0.00    +0.114 C 
ATOM     29  C   UNL     1      31.936 -11.114 -22.413  0.00  0.00    +0.202 C 
ATOM     30  C   UNL     1      32.366  -7.418 -25.095  0.00  0.00    +0.069 C 
ATOM     31  C   UNL     1      30.839  -7.791 -23.237  0.00  0.00    +0.034 C 
ATOM     32  C   UNL     1      31.314  -6.999 -24.219  0.00  0.00    +0.018 C 
ATOM     33  C   UNL     1      33.803  -7.279 -26.715  0.00  0.00    +0.183 C 
ENDBRANCH  20  26
ENDBRANCH  18  20
ENDBRANCH   1  18
TORSDOF 5
ENDMDL
