MODEL 1
REMARK VINA RESULT:     -12.9      0.000      0.000
REMARK  Name = 9823454
REMARK  7 active torsions:
REMARK  status: ('A' for Active; 'I' for Inactive)
REMARK    1  A    between atoms: C_1  and  C_4
REMARK    2  A    between atoms: C_1  and  N_8
REMARK    3  A    between atoms: C_1  and  C_23
REMARK    4  A    between atoms: N_3  and  O_6
REMARK    5  A    between atoms: N_8  and  S_10
REMARK    6  A    between atoms: S_10  and  C_13
REMARK    7  A    between atoms: C_23  and  C_24
REMARK                            x       y       z     vdW  Elec       q    Type
REMARK                         _______ _______ _______ _____ _____    ______ ____
ROOT
ATOM      1  C   UNL     1      34.329 -24.147 -13.450  0.00  0.00    +0.158 C 
ENDROOT
BRANCH   1   4
ATOM      2  O   UNL     1      34.889 -24.362 -11.108  0.00  0.00    -0.272 OA
ATOM      3  N   UNL     1      35.975 -25.704 -12.641  0.00  0.00    -0.196 N 
ATOM      4  C   UNL     1      35.077 -24.735 -12.265  0.00  0.00    +0.260 C 
ATOM      5  H   UNL     1      36.092 -25.972 -13.582  0.00  0.00    +0.182 HD
BRANCH   3   6
ATOM      6  O   UNL     1      36.713 -26.290 -11.604  0.00  0.00    -0.295 OA
ATOM      7  H   UNL     1      37.644 -26.027 -11.681  0.00  0.00    +0.241 HD
ENDBRANCH   3   6
ENDBRANCH   1   4
BRANCH   1   8
ATOM      8  N   UNL     1      35.270 -23.190 -14.080  0.00  0.00    -0.172 NA
ATOM      9  H   UNL     1      34.724 -22.372 -14.348  0.00  0.00    +0.149 HD
BRANCH   8  10
ATOM     10  S   UNL     1      36.159 -23.657 -15.450  0.00  0.00    +0.061 S 
ATOM     11  O   UNL     1      36.116 -25.101 -15.584  0.00  0.00    -0.153 OA
ATOM     12  O   UNL     1      37.432 -22.963 -15.439  0.00  0.00    -0.153 OA
BRANCH  10  13
ATOM     13  C   UNL     1      35.202 -22.960 -16.761  0.00  0.00    +0.122 C 
ATOM     14  C   UNL     1      35.827 -22.159 -17.702  0.00  0.00    +0.020 C 
ATOM     15  C   UNL     1      35.080 -21.596 -18.750  0.00  0.00    +0.001 C 
ATOM     16  C   UNL     1      33.848 -23.226 -16.823  0.00  0.00    +0.020 C 
ATOM     17  C   UNL     1      33.691 -21.858 -18.829  0.00  0.00    +0.000 C 
ATOM     18  C   UNL     1      33.091 -22.675 -17.858  0.00  0.00    +0.001 C 
ATOM     19  C   UNL     1      35.681 -20.779 -19.721  0.00  0.00    +0.000 C 
ATOM     20  C   UNL     1      32.945 -21.295 -19.876  0.00  0.00    +0.000 C 
ATOM     21  C   UNL     1      34.924 -20.227 -20.755  0.00  0.00    +0.000 C 
ATOM     22  C   UNL     1      33.559 -20.485 -20.833  0.00  0.00    +0.000 C 
ENDBRANCH  10  13
ENDBRANCH   8  10
ENDBRANCH   1   8
BRANCH   1  23
ATOM     23  C   UNL     1      33.061 -23.406 -12.994  0.00  0.00    +0.053 C 
BRANCH  23  24
ATOM     24  C   UNL     1      31.845 -23.780 -13.773  0.00  0.00    -0.020 C 
ATOM     25  C   UNL     1      31.232 -22.843 -14.606  0.00  0.00    -0.004 C 
ATOM     26  C   UNL     1      30.087 -23.180 -15.345  0.00  0.00    -0.000 C 
ATOM     27  C   UNL     1      31.321 -25.065 -13.669  0.00  0.00    -0.004 C 
ATOM     28  C   UNL     1      29.556 -24.488 -15.239  0.00  0.00    -0.000 C 
ATOM     29  C   UNL     1      30.185 -25.418 -14.397  0.00  0.00    -0.000 C 
ATOM     30  C   UNL     1      29.459 -22.249 -16.187  0.00  0.00    -0.000 C 
ATOM     31  C   UNL     1      28.410 -24.825 -15.978  0.00  0.00    -0.000 C 
ATOM     32  C   UNL     1      28.321 -22.601 -16.915  0.00  0.00    -0.000 C 
ATOM     33  C   UNL     1      27.798 -23.886 -16.810  0.00  0.00    -0.000 C 
ENDBRANCH  23  24
ENDBRANCH   1  23
TORSDOF 7
ENDMDL
MODEL 2
REMARK VINA RESULT:     -12.4      1.560      5.967
REMARK  Name = 9823454
REMARK  7 active torsions:
REMARK  status: ('A' for Active; 'I' for Inactive)
REMARK    1  A    between atoms: C_1  and  C_4
REMARK    2  A    between atoms: C_1  and  N_8
REMARK    3  A    between atoms: C_1  and  C_23
REMARK    4  A    between atoms: N_3  and  O_6
REMARK    5  A    between atoms: N_8  and  S_10
REMARK    6  A    between atoms: S_10  and  C_13
REMARK    7  A    between atoms: C_23  and  C_24
REMARK                            x       y       z     vdW  Elec       q    Type
REMARK                         _______ _______ _______ _____ _____    ______ ____
ROOT
ATOM      1  C   UNL     1      35.651 -22.508 -15.637  0.00  0.00    +0.158 C 
ENDROOT
BRANCH   1   4
ATOM      2  O   UNL     1      37.209 -22.839 -13.818  0.00  0.00    -0.272 OA
ATOM      3  N   UNL     1      37.577 -23.940 -15.814  0.00  0.00    -0.196 N 
ATOM      4  C   UNL     1      36.884 -23.102 -14.975  0.00  0.00    +0.260 C 
ATOM      5  H   UNL     1      37.279 -24.121 -16.735  0.00  0.00    +0.182 HD
BRANCH   3   6
ATOM      6  O   UNL     1      38.735 -24.521 -15.279  0.00  0.00    -0.295 OA
ATOM      7  H   UNL     1      39.337 -24.764 -16.000  0.00  0.00    +0.241 HD
ENDBRANCH   3   6
ENDBRANCH   1   4
BRANCH   1   8
ATOM      8  N   UNL     1      34.568 -22.615 -14.630  0.00  0.00    -0.172 NA
ATOM      9  H   UNL     1      34.837 -22.025 -13.843  0.00  0.00    +0.149 HD
BRANCH   8  10
ATOM     10  S   UNL     1      34.157 -24.133 -13.989  0.00  0.00    +0.061 S 
ATOM     11  O   UNL     1      34.297 -24.101 -12.545  0.00  0.00    -0.153 OA
ATOM     12  O   UNL     1      34.822 -25.163 -14.765  0.00  0.00    -0.153 OA
BRANCH  10  13
ATOM     13  C   UNL     1      32.434 -24.234 -14.367  0.00  0.00    +0.122 C 
ATOM     14  C   UNL     1      31.905 -23.400 -15.337  0.00  0.00    +0.020 C 
ATOM     15  C   UNL     1      30.537 -23.467 -15.649  0.00  0.00    +0.001 C 
ATOM     16  C   UNL     1      31.647 -25.144 -13.689  0.00  0.00    +0.020 C 
ATOM     17  C   UNL     1      29.716 -24.394 -14.963  0.00  0.00    +0.000 C 
ATOM     18  C   UNL     1      30.286 -25.225 -13.987  0.00  0.00    +0.001 C 
ATOM     19  C   UNL     1      29.967 -22.636 -16.627  0.00  0.00    +0.000 C 
ATOM     20  C   UNL     1      28.348 -24.461 -15.275  0.00  0.00    +0.000 C 
ATOM     21  C   UNL     1      28.606 -22.716 -16.924  0.00  0.00    +0.000 C 
ATOM     22  C   UNL     1      27.799 -23.627 -16.250  0.00  0.00    +0.000 C 
ENDBRANCH  10  13
ENDBRANCH   8  10
ENDBRANCH   1   8
BRANCH   1  23
ATOM     23  C   UNL     1      35.266 -23.292 -16.902  0.00  0.00    +0.053 C 
BRANCH  23  24
ATOM     24  C   UNL     1      34.740 -22.426 -17.997  0.00  0.00    -0.020 C 
ATOM     25  C   UNL     1      35.615 -21.640 -18.748  0.00  0.00    -0.004 C 
ATOM     26  C   UNL     1      35.135 -20.820 -19.782  0.00  0.00    -0.000 C 
ATOM     27  C   UNL     1      33.376 -22.404 -18.271  0.00  0.00    -0.004 C 
ATOM     28  C   UNL     1      33.748 -20.798 -20.060  0.00  0.00    -0.000 C 
ATOM     29  C   UNL     1      32.882 -21.596 -19.295  0.00  0.00    -0.000 C 
ATOM     30  C   UNL     1      36.002 -20.023 -20.546  0.00  0.00    -0.000 C 
ATOM     31  C   UNL     1      33.268 -19.979 -21.094  0.00  0.00    -0.000 C 
ATOM     32  C   UNL     1      35.508 -19.214 -21.571  0.00  0.00    -0.000 C 
ATOM     33  C   UNL     1      34.144 -19.192 -21.843  0.00  0.00    -0.000 C 
ENDBRANCH  23  24
ENDBRANCH   1  23
TORSDOF 7
ENDMDL
MODEL 3
REMARK VINA RESULT:     -11.4      3.134      5.684
REMARK  Name = 9823454
REMARK  7 active torsions:
REMARK  status: ('A' for Active; 'I' for Inactive)
REMARK    1  A    between atoms: C_1  and  C_4
REMARK    2  A    between atoms: C_1  and  N_8
REMARK    3  A    between atoms: C_1  and  C_23
REMARK    4  A    between atoms: N_3  and  O_6
REMARK    5  A    between atoms: N_8  and  S_10
REMARK    6  A    between atoms: S_10  and  C_13
REMARK    7  A    between atoms: C_23  and  C_24
REMARK                            x       y       z     vdW  Elec       q    Type
REMARK                         _______ _______ _______ _____ _____    ______ ____
ROOT
ATOM      1  C   UNL     1      31.892 -22.961 -16.066  0.00  0.00    +0.158 C 
ENDROOT
BRANCH   1   4
ATOM      2  O   UNL     1      29.925 -22.853 -14.665  0.00  0.00    -0.272 OA
ATOM      3  N   UNL     1      29.702 -22.466 -16.930  0.00  0.00    -0.196 N 
ATOM      4  C   UNL     1      30.411 -22.756 -15.791  0.00  0.00    +0.260 C 
ATOM      5  H   UNL     1      30.134 -22.398 -17.813  0.00  0.00    +0.182 HD
BRANCH   3   6
ATOM      6  O   UNL     1      28.324 -22.272 -16.761  0.00  0.00    -0.295 OA
ATOM      7  H   UNL     1      28.128 -21.323 -16.771  0.00  0.00    +0.241 HD
ENDBRANCH   3   6
ENDBRANCH   1   4
BRANCH   1   8
ATOM      8  N   UNL     1      32.069 -22.699 -17.514  0.00  0.00    -0.172 NA
ATOM      9  H   UNL     1      31.376 -23.265 -18.003  0.00  0.00    +0.149 HD
BRANCH   8  10
ATOM     10  S   UNL     1      33.566 -23.007 -18.252  0.00  0.00    +0.061 S 
ATOM     11  O   UNL     1      33.491 -24.250 -18.996  0.00  0.00    -0.153 OA
ATOM     12  O   UNL     1      34.619 -22.804 -17.275  0.00  0.00    -0.153 OA
BRANCH  10  13
ATOM     13  C   UNL     1      33.679 -21.682 -19.415  0.00  0.00    +0.122 C 
ATOM     14  C   UNL     1      34.925 -21.176 -19.745  0.00  0.00    +0.020 C 
ATOM     15  C   UNL     1      35.032 -20.122 -20.667  0.00  0.00    +0.001 C 
ATOM     16  C   UNL     1      32.523 -21.175 -19.974  0.00  0.00    +0.020 C 
ATOM     17  C   UNL     1      33.857 -19.590 -21.250  0.00  0.00    +0.000 C 
ATOM     18  C   UNL     1      32.611 -20.128 -20.893  0.00  0.00    +0.001 C 
ATOM     19  C   UNL     1      36.280 -19.584 -21.023  0.00  0.00    +0.000 C 
ATOM     20  C   UNL     1      33.964 -18.536 -22.171  0.00  0.00    +0.000 C 
ATOM     21  C   UNL     1      36.367 -18.537 -21.941  0.00  0.00    +0.000 C 
ATOM     22  C   UNL     1      35.212 -18.015 -22.514  0.00  0.00    +0.000 C 
ENDBRANCH  10  13
ENDBRANCH   8  10
ENDBRANCH   1   8
BRANCH   1  23
ATOM     23  C   UNL     1      32.324 -24.401 -15.741  0.00  0.00    +0.053 C 
BRANCH  23  24
ATOM     24  C   UNL     1      33.455 -24.475 -14.772  0.00  0.00    -0.020 C 
ATOM     25  C   UNL     1      34.679 -25.015 -15.168  0.00  0.00    -0.004 C 
ATOM     26  C   UNL     1      35.754 -25.091 -14.267  0.00  0.00    -0.000 C 
ATOM     27  C   UNL     1      33.290 -24.004 -13.473  0.00  0.00    -0.004 C 
ATOM     28  C   UNL     1      35.585 -24.613 -12.946  0.00  0.00    -0.000 C 
ATOM     29  C   UNL     1      34.347 -24.072 -12.565  0.00  0.00    -0.000 C 
ATOM     30  C   UNL     1      36.992 -25.633 -14.649  0.00  0.00    -0.000 C 
ATOM     31  C   UNL     1      36.660 -24.689 -12.045  0.00  0.00    -0.000 C 
ATOM     32  C   UNL     1      38.050 -25.700 -13.741  0.00  0.00    -0.000 C 
ATOM     33  C   UNL     1      37.883 -25.231 -12.442  0.00  0.00    -0.000 C 
ENDBRANCH  23  24
ENDBRANCH   1  23
TORSDOF 7
ENDMDL
MODEL 4
REMARK VINA RESULT:     -11.0      2.014      3.282
REMARK  Name = 9823454
REMARK  7 active torsions:
REMARK  status: ('A' for Active; 'I' for Inactive)
REMARK    1  A    between atoms: C_1  and  C_4
REMARK    2  A    between atoms: C_1  and  N_8
REMARK    3  A    between atoms: C_1  and  C_23
REMARK    4  A    between atoms: N_3  and  O_6
REMARK    5  A    between atoms: N_8  and  S_10
REMARK    6  A    between atoms: S_10  and  C_13
REMARK    7  A    between atoms: C_23  and  C_24
REMARK                            x       y       z     vdW  Elec       q    Type
REMARK                         _______ _______ _______ _____ _____    ______ ____
ROOT
ATOM      1  C   UNL     1      34.183 -24.272 -15.921  0.00  0.00    +0.158 C 
ENDROOT
BRANCH   1   4
ATOM      2  O   UNL     1      36.128 -25.613 -15.411  0.00  0.00    -0.272 OA
ATOM      3  N   UNL     1      36.403 -23.353 -15.796  0.00  0.00    -0.196 N 
ATOM      4  C   UNL     1      35.666 -24.506 -15.683  0.00  0.00    +0.260 C 
ATOM      5  H   UNL     1      35.989 -22.486 -16.015  0.00  0.00    +0.182 HD
BRANCH   3   6
ATOM      6  O   UNL     1      37.782 -23.485 -15.579  0.00  0.00    -0.295 OA
ATOM      7  H   UNL     1      37.934 -23.956 -14.746  0.00  0.00    +0.241 HD
ENDBRANCH   3   6
ENDBRANCH   1   4
BRANCH   1   8
ATOM      8  N   UNL     1      34.098 -23.007 -16.691  0.00  0.00    -0.172 NA
ATOM      9  H   UNL     1      33.645 -22.323 -16.085  0.00  0.00    +0.149 HD
BRANCH   8  10
ATOM     10  S   UNL     1      33.271 -22.975 -18.174  0.00  0.00    +0.061 S 
ATOM     11  O   UNL     1      31.955 -22.397 -17.980  0.00  0.00    -0.153 OA
ATOM     12  O   UNL     1      33.414 -24.268 -18.816  0.00  0.00    -0.153 OA
BRANCH  10  13
ATOM     13  C   UNL     1      34.239 -21.827 -19.105  0.00  0.00    +0.122 C 
ATOM     14  C   UNL     1      33.614 -21.020 -20.041  0.00  0.00    +0.020 C 
ATOM     15  C   UNL     1      34.369 -20.102 -20.790  0.00  0.00    +0.001 C 
ATOM     16  C   UNL     1      35.600 -21.755 -18.882  0.00  0.00    +0.020 C 
ATOM     17  C   UNL     1      35.766 -20.016 -20.575  0.00  0.00    +0.000 C 
ATOM     18  C   UNL     1      36.365 -20.849 -19.617  0.00  0.00    +0.001 C 
ATOM     19  C   UNL     1      33.769 -19.269 -21.748  0.00  0.00    +0.000 C 
ATOM     20  C   UNL     1      36.521 -19.099 -21.324  0.00  0.00    +0.000 C 
ATOM     21  C   UNL     1      34.535 -18.363 -22.484  0.00  0.00    +0.000 C 
ATOM     22  C   UNL     1      35.907 -18.279 -22.272  0.00  0.00    +0.000 C 
ENDBRANCH  10  13
ENDBRANCH   8  10
ENDBRANCH   1   8
BRANCH   1  23
ATOM     23  C   UNL     1      33.422 -24.126 -14.593  0.00  0.00    +0.053 C 
BRANCH  23  24
ATOM     24  C   UNL     1      32.017 -23.654 -14.764  0.00  0.00    -0.020 C 
ATOM     25  C   UNL     1      31.150 -24.337 -15.618  0.00  0.00    -0.004 C 
ATOM     26  C   UNL     1      29.825 -23.905 -15.790  0.00  0.00    -0.000 C 
ATOM     27  C   UNL     1      31.572 -22.532 -14.072  0.00  0.00    -0.004 C 
ATOM     28  C   UNL     1      29.373 -22.764 -15.085  0.00  0.00    -0.000 C 
ATOM     29  C   UNL     1      30.259 -22.089 -14.230  0.00  0.00    -0.000 C 
ATOM     30  C   UNL     1      28.940 -24.581 -16.645  0.00  0.00    -0.000 C 
ATOM     31  C   UNL     1      28.048 -22.332 -15.257  0.00  0.00    -0.000 C 
ATOM     32  C   UNL     1      27.626 -24.138 -16.804  0.00  0.00    -0.000 C 
ATOM     33  C   UNL     1      27.182 -23.015 -16.112  0.00  0.00    -0.000 C 
ENDBRANCH  23  24
ENDBRANCH   1  23
TORSDOF 7
ENDMDL
MODEL 5
REMARK VINA RESULT:     -10.9      5.057      7.925
REMARK  Name = 9823454
REMARK  7 active torsions:
REMARK  status: ('A' for Active; 'I' for Inactive)
REMARK    1  A    between atoms: C_1  and  C_4
REMARK    2  A    between atoms: C_1  and  N_8
REMARK    3  A    between atoms: C_1  and  C_23
REMARK    4  A    between atoms: N_3  and  O_6
REMARK    5  A    between atoms: N_8  and  S_10
REMARK    6  A    between atoms: S_10  and  C_13
REMARK    7  A    between atoms: C_23  and  C_24
REMARK                            x       y       z     vdW  Elec       q    Type
REMARK                         _______ _______ _______ _____ _____    ______ ____
ROOT
ATOM      1  C   UNL     1      34.508 -20.485 -20.113  0.00  0.00    +0.158 C 
ENDROOT
BRANCH   1   4
ATOM      2  O   UNL     1      32.262 -20.927 -19.338  0.00  0.00    -0.272 OA
ATOM      3  N   UNL     1      32.553 -19.964 -21.416  0.00  0.00    -0.196 N 
ATOM      4  C   UNL     1      32.992 -20.489 -20.225  0.00  0.00    +0.260 C 
ATOM      5  H   UNL     1      33.176 -19.624 -22.099  0.00  0.00    +0.182 HD
BRANCH   3   6
ATOM      6  O   UNL     1      31.164 -19.942 -21.600  0.00  0.00    -0.295 OA
ATOM      7  H   UNL     1      30.749 -20.588 -21.007  0.00  0.00    +0.241 HD
ENDBRANCH   3   6
ENDBRANCH   1   4
BRANCH   1   8
ATOM      8  N   UNL     1      35.003 -20.000 -21.424  0.00  0.00    -0.172 NA
ATOM      9  H   UNL     1      35.671 -20.692 -21.762  0.00  0.00    +0.149 HD
BRANCH   8  10
ATOM     10  S   UNL     1      35.767 -18.487 -21.532  0.00  0.00    +0.061 S 
ATOM     11  O   UNL     1      37.147 -18.671 -21.941  0.00  0.00    -0.153 OA
ATOM     12  O   UNL     1      35.456 -17.721 -20.340  0.00  0.00    -0.153 OA
BRANCH  10  13
ATOM     13  C   UNL     1      34.897 -17.734 -22.872  0.00  0.00    +0.122 C 
ATOM     14  C   UNL     1      34.140 -18.527 -23.718  0.00  0.00    +0.020 C 
ATOM     15  C   UNL     1      33.442 -17.943 -24.788  0.00  0.00    +0.001 C 
ATOM     16  C   UNL     1      34.987 -16.367 -23.051  0.00  0.00    +0.020 C 
ATOM     17  C   UNL     1      33.524 -16.544 -24.986  0.00  0.00    +0.000 C 
ATOM     18  C   UNL     1      34.300 -15.771 -24.110  0.00  0.00    +0.001 C 
ATOM     19  C   UNL     1      32.666 -18.718 -25.665  0.00  0.00    +0.000 C 
ATOM     20  C   UNL     1      32.827 -15.961 -26.057  0.00  0.00    +0.000 C 
ATOM     21  C   UNL     1      31.980 -18.121 -26.724  0.00  0.00    +0.000 C 
ATOM     22  C   UNL     1      32.060 -16.746 -26.919  0.00  0.00    +0.000 C 
ENDBRANCH  10  13
ENDBRANCH   8  10
ENDBRANCH   1   8
BRANCH   1  23
ATOM     23  C   UNL     1      35.050 -21.898 -19.842  0.00  0.00    +0.053 C 
BRANCH  23  24
ATOM     24  C   UNL     1      35.285 -22.174 -18.395  0.00  0.00    -0.020 C 
ATOM     25  C   UNL     1      34.321 -22.850 -17.647  0.00  0.00    -0.004 C 
ATOM     26  C   UNL     1      34.529 -23.118 -16.284  0.00  0.00    -0.000 C 
ATOM     27  C   UNL     1      36.468 -21.756 -17.792  0.00  0.00    -0.004 C 
ATOM     28  C   UNL     1      35.731 -22.692 -15.671  0.00  0.00    -0.000 C 
ATOM     29  C   UNL     1      36.690 -22.013 -16.439  0.00  0.00    -0.000 C 
ATOM     30  C   UNL     1      33.569 -23.797 -15.517  0.00  0.00    -0.000 C 
ATOM     31  C   UNL     1      35.939 -22.959 -14.308  0.00  0.00    -0.000 C 
ATOM     32  C   UNL     1      33.792 -24.054 -14.163  0.00  0.00    -0.000 C 
ATOM     33  C   UNL     1      34.974 -23.635 -13.560  0.00  0.00    -0.000 C 
ENDBRANCH  23  24
ENDBRANCH   1  23
TORSDOF 7
ENDMDL
MODEL 6
REMARK VINA RESULT:     -10.6      5.196      7.957
REMARK  Name = 9823454
REMARK  7 active torsions:
REMARK  status: ('A' for Active; 'I' for Inactive)
REMARK    1  A    between atoms: C_1  and  C_4
REMARK    2  A    between atoms: C_1  and  N_8
REMARK    3  A    between atoms: C_1  and  C_23
REMARK    4  A    between atoms: N_3  and  O_6
REMARK    5  A    between atoms: N_8  and  S_10
REMARK    6  A    between atoms: S_10  and  C_13
REMARK    7  A    between atoms: C_23  and  C_24
REMARK                            x       y       z     vdW  Elec       q    Type
REMARK                         _______ _______ _______ _____ _____    ______ ____
ROOT
ATOM      1  C   UNL     1      34.482 -20.488 -20.089  0.00  0.00    +0.158 C 
ENDROOT
BRANCH   1   4
ATOM      2  O   UNL     1      32.203 -20.869 -19.379  0.00  0.00    -0.272 OA
ATOM      3  N   UNL     1      32.582 -19.965 -21.470  0.00  0.00    -0.196 N 
ATOM      4  C   UNL     1      32.971 -20.467 -20.252  0.00  0.00    +0.260 C 
ATOM      5  H   UNL     1      33.234 -19.654 -22.140  0.00  0.00    +0.182 HD
BRANCH   3   6
ATOM      6  O   UNL     1      31.200 -19.923 -21.701  0.00  0.00    -0.295 OA
ATOM      7  H   UNL     1      30.757 -19.529 -20.934  0.00  0.00    +0.241 HD
ENDBRANCH   3   6
ENDBRANCH   1   4
BRANCH   1   8
ATOM      8  N   UNL     1      35.029 -19.993 -21.374  0.00  0.00    -0.172 NA
ATOM      9  H   UNL     1      35.661 -20.712 -21.723  0.00  0.00    +0.149 HD
BRANCH   8  10
ATOM     10  S   UNL     1      35.881 -18.525 -21.420  0.00  0.00    +0.061 S 
ATOM     11  O   UNL     1      37.264 -18.780 -21.777  0.00  0.00    -0.153 OA
ATOM     12  O   UNL     1      35.564 -17.763 -20.227  0.00  0.00    -0.153 OA
BRANCH  10  13
ATOM     13  C   UNL     1      35.111 -17.698 -22.779  0.00  0.00    +0.122 C 
ATOM     14  C   UNL     1      34.805 -16.353 -22.665  0.00  0.00    +0.020 C 
ATOM     15  C   UNL     1      34.192 -15.681 -23.736  0.00  0.00    +0.001 C 
ATOM     16  C   UNL     1      34.830 -18.409 -23.928  0.00  0.00    +0.020 C 
ATOM     17  C   UNL     1      33.896 -16.395 -24.922  0.00  0.00    +0.000 C 
ATOM     18  C   UNL     1      34.221 -17.757 -25.002  0.00  0.00    +0.001 C 
ATOM     19  C   UNL     1      33.866 -14.317 -23.655  0.00  0.00    +0.000 C 
ATOM     20  C   UNL     1      33.282 -15.723 -25.992  0.00  0.00    +0.000 C 
ATOM     21  C   UNL     1      33.257 -13.666 -24.729  0.00  0.00    +0.000 C 
ATOM     22  C   UNL     1      32.967 -14.367 -25.894  0.00  0.00    +0.000 C 
ENDBRANCH  10  13
ENDBRANCH   8  10
ENDBRANCH   1   8
BRANCH   1  23
ATOM     23  C   UNL     1      34.993 -21.914 -19.820  0.00  0.00    +0.053 C 
BRANCH  23  24
ATOM     24  C   UNL     1      35.225 -22.197 -18.374  0.00  0.00    -0.020 C 
ATOM     25  C   UNL     1      34.250 -22.857 -17.626  0.00  0.00    -0.004 C 
ATOM     26  C   UNL     1      34.455 -23.130 -16.264  0.00  0.00    -0.000 C 
ATOM     27  C   UNL     1      36.416 -21.802 -17.772  0.00  0.00    -0.004 C 
ATOM     28  C   UNL     1      35.666 -22.729 -15.652  0.00  0.00    -0.000 C 
ATOM     29  C   UNL     1      36.636 -22.066 -16.420  0.00  0.00    -0.000 C 
ATOM     30  C   UNL     1      33.483 -23.793 -15.496  0.00  0.00    -0.000 C 
ATOM     31  C   UNL     1      35.871 -23.002 -14.290  0.00  0.00    -0.000 C 
ATOM     32  C   UNL     1      33.704 -24.057 -14.144  0.00  0.00    -0.000 C 
ATOM     33  C   UNL     1      34.894 -23.661 -13.542  0.00  0.00    -0.000 C 
ENDBRANCH  23  24
ENDBRANCH   1  23
TORSDOF 7
ENDMDL
MODEL 7
REMARK VINA RESULT:     -10.5      8.768     13.254
REMARK  Name = 9823454
REMARK  7 active torsions:
REMARK  status: ('A' for Active; 'I' for Inactive)
REMARK    1  A    between atoms: C_1  and  C_4
REMARK    2  A    between atoms: C_1  and  N_8
REMARK    3  A    between atoms: C_1  and  C_23
REMARK    4  A    between atoms: N_3  and  O_6
REMARK    5  A    between atoms: N_8  and  S_10
REMARK    6  A    between atoms: S_10  and  C_13
REMARK    7  A    between atoms: C_23  and  C_24
REMARK                            x       y       z     vdW  Elec       q    Type
REMARK                         _______ _______ _______ _____ _____    ______ ____
ROOT
ATOM      1  C   UNL     1      33.579 -16.079 -25.270  0.00  0.00    +0.158 C 
ENDROOT
BRANCH   1   4
ATOM      2  O   UNL     1      33.842 -18.083 -26.594  0.00  0.00    -0.272 OA
ATOM      3  N   UNL     1      31.962 -16.781 -26.907  0.00  0.00    -0.196 N 
ATOM      4  C   UNL     1      33.160 -17.097 -26.317  0.00  0.00    +0.260 C 
ATOM      5  H   UNL     1      31.449 -15.979 -26.653  0.00  0.00    +0.182 HD
BRANCH   3   6
ATOM      6  O   UNL     1      31.512 -17.669 -27.894  0.00  0.00    -0.295 OA
ATOM      7  H   UNL     1      31.734 -17.318 -28.770  0.00  0.00    +0.241 HD
ENDBRANCH   3   6
ENDBRANCH   1   4
BRANCH   1   8
ATOM      8  N   UNL     1      33.623 -16.821 -23.987  0.00  0.00    -0.172 NA
ATOM      9  H   UNL     1      32.714 -16.698 -23.543  0.00  0.00    +0.149 HD
BRANCH   8  10
ATOM     10  S   UNL     1      34.797 -16.429 -22.824  0.00  0.00    +0.061 S 
ATOM     11  O   UNL     1      34.266 -15.422 -21.924  0.00  0.00    -0.153 OA
ATOM     12  O   UNL     1      36.065 -16.213 -23.494  0.00  0.00    -0.153 OA
BRANCH  10  13
ATOM     13  C   UNL     1      34.939 -17.943 -21.925  0.00  0.00    +0.122 C 
ATOM     14  C   UNL     1      33.791 -18.575 -21.478  0.00  0.00    +0.020 C 
ATOM     15  C   UNL     1      33.887 -19.779 -20.762  0.00  0.00    +0.001 C 
ATOM     16  C   UNL     1      36.193 -18.469 -21.684  0.00  0.00    +0.020 C 
ATOM     17  C   UNL     1      35.165 -20.332 -20.506  0.00  0.00    +0.000 C 
ATOM     18  C   UNL     1      36.308 -19.665 -20.974  0.00  0.00    +0.001 C 
ATOM     19  C   UNL     1      32.744 -20.446 -20.293  0.00  0.00    +0.000 C 
ATOM     20  C   UNL     1      35.261 -21.536 -19.789  0.00  0.00    +0.000 C 
ATOM     21  C   UNL     1      32.858 -21.642 -19.582  0.00  0.00    +0.000 C 
ATOM     22  C   UNL     1      34.114 -22.185 -19.332  0.00  0.00    +0.000 C 
ENDBRANCH  10  13
ENDBRANCH   8  10
ENDBRANCH   1   8
BRANCH   1  23
ATOM     23  C   UNL     1      32.561 -14.931 -25.172  0.00  0.00    +0.053 C 
BRANCH  23  24
ATOM     24  C   UNL     1      33.121 -13.607 -25.570  0.00  0.00    -0.020 C 
ATOM     25  C   UNL     1      33.509 -12.690 -24.592  0.00  0.00    -0.004 C 
ATOM     26  C   UNL     1      34.038 -11.440 -24.951  0.00  0.00    -0.000 C 
ATOM     27  C   UNL     1      33.258 -13.287 -26.917  0.00  0.00    -0.004 C 
ATOM     28  C   UNL     1      34.177 -11.115 -26.322  0.00  0.00    -0.000 C 
ATOM     29  C   UNL     1      33.783 -12.050 -27.292  0.00  0.00    -0.000 C 
ATOM     30  C   UNL     1      34.432 -10.506 -23.980  0.00  0.00    -0.000 C 
ATOM     31  C   UNL     1      34.707  -9.865 -26.681  0.00  0.00    -0.000 C 
ATOM     32  C   UNL     1      34.957  -9.268 -24.355  0.00  0.00    -0.000 C 
ATOM     33  C   UNL     1      35.093  -8.948 -25.702  0.00  0.00    -0.000 C 
ENDBRANCH  23  24
ENDBRANCH   1  23
TORSDOF 7
ENDMDL
MODEL 8
REMARK VINA RESULT:     -10.5      7.632     10.763
REMARK  Name = 9823454
REMARK  7 active torsions:
REMARK  status: ('A' for Active; 'I' for Inactive)
REMARK    1  A    between atoms: C_1  and  C_4
REMARK    2  A    between atoms: C_1  and  N_8
REMARK    3  A    between atoms: C_1  and  C_23
REMARK    4  A    between atoms: N_3  and  O_6
REMARK    5  A    between atoms: N_8  and  S_10
REMARK    6  A    between atoms: S_10  and  C_13
REMARK    7  A    between atoms: C_23  and  C_24
REMARK                            x       y       z     vdW  Elec       q    Type
REMARK                         _______ _______ _______ _____ _____    ______ ____
ROOT
ATOM      1  C   UNL     1      35.052 -17.593 -23.095  0.00  0.00    +0.158 C 
ENDROOT
BRANCH   1   4
ATOM      2  O   UNL     1      34.864 -15.190 -22.911  0.00  0.00    -0.272 OA
ATOM      3  N   UNL     1      34.703 -16.469 -20.996  0.00  0.00    -0.196 N 
ATOM      4  C   UNL     1      34.862 -16.283 -22.347  0.00  0.00    +0.260 C 
ATOM      5  H   UNL     1      34.708 -17.365 -20.587  0.00  0.00    +0.182 HD
BRANCH   3   6
ATOM      6  O   UNL     1      34.532 -15.305 -20.234  0.00  0.00    -0.295 OA
ATOM      7  H   UNL     1      35.379 -14.839 -20.162  0.00  0.00    +0.241 HD
ENDBRANCH   3   6
ENDBRANCH   1   4
BRANCH   1   8
ATOM      8  N   UNL     1      34.954 -17.248 -24.533  0.00  0.00    -0.172 NA
ATOM      9  H   UNL     1      34.952 -16.230 -24.594  0.00  0.00    +0.149 HD
BRANCH   8  10
ATOM     10  S   UNL     1      33.633 -17.797 -25.447  0.00  0.00    +0.061 S 
ATOM     11  O   UNL     1      32.614 -18.320 -24.556  0.00  0.00    -0.153 OA
ATOM     12  O   UNL     1      34.128 -18.608 -26.544  0.00  0.00    -0.153 OA
BRANCH  10  13
ATOM     13  C   UNL     1      33.025 -16.295 -26.150  0.00  0.00    +0.122 C 
ATOM     14  C   UNL     1      33.451 -15.085 -25.629  0.00  0.00    +0.020 C 
ATOM     15  C   UNL     1      32.976 -13.881 -26.176  0.00  0.00    +0.001 C 
ATOM     16  C   UNL     1      32.136 -16.355 -27.205  0.00  0.00    +0.020 C 
ATOM     17  C   UNL     1      32.065 -13.924 -27.258  0.00  0.00    +0.000 C 
ATOM     18  C   UNL     1      31.655 -15.169 -27.761  0.00  0.00    +0.001 C 
ATOM     19  C   UNL     1      33.387 -12.636 -25.673  0.00  0.00    +0.000 C 
ATOM     20  C   UNL     1      31.590 -12.721 -27.804  0.00  0.00    +0.000 C 
ATOM     21  C   UNL     1      32.905 -11.450 -26.228  0.00  0.00    +0.000 C 
ATOM     22  C   UNL     1      32.009 -11.492 -27.292  0.00  0.00    +0.000 C 
ENDBRANCH  10  13
ENDBRANCH   8  10
ENDBRANCH   1   8
BRANCH   1  23
ATOM     23  C   UNL     1      33.956 -18.607 -22.727  0.00  0.00    +0.053 C 
BRANCH  23  24
ATOM     24  C   UNL     1      34.336 -19.505 -21.598  0.00  0.00    -0.020 C 
ATOM     25  C   UNL     1      33.351 -20.208 -20.903  0.00  0.00    -0.004 C 
ATOM     26  C   UNL     1      33.692 -21.056 -19.837  0.00  0.00    -0.000 C 
ATOM     27  C   UNL     1      35.673 -19.641 -21.238  0.00  0.00    -0.004 C 
ATOM     28  C   UNL     1      35.053 -21.194 -19.472  0.00  0.00    -0.000 C 
ATOM     29  C   UNL     1      36.030 -20.480 -20.182  0.00  0.00    -0.000 C 
ATOM     30  C   UNL     1      32.714 -21.770 -19.128  0.00  0.00    -0.000 C 
ATOM     31  C   UNL     1      35.394 -22.043 -18.406  0.00  0.00    -0.000 C 
ATOM     32  C   UNL     1      33.071 -22.610 -18.071  0.00  0.00    -0.000 C 
ATOM     33  C   UNL     1      34.408 -22.745 -17.711  0.00  0.00    -0.000 C 
ENDBRANCH  23  24
ENDBRANCH   1  23
TORSDOF 7
ENDMDL
MODEL 9
REMARK VINA RESULT:     -10.4      9.241     12.622
REMARK  Name = 9823454
REMARK  7 active torsions:
REMARK  status: ('A' for Active; 'I' for Inactive)
REMARK    1  A    between atoms: C_1  and  C_4
REMARK    2  A    between atoms: C_1  and  N_8
REMARK    3  A    between atoms: C_1  and  C_23
REMARK    4  A    between atoms: N_3  and  O_6
REMARK    5  A    between atoms: N_8  and  S_10
REMARK    6  A    between atoms: S_10  and  C_13
REMARK    7  A    between atoms: C_23  and  C_24
REMARK                            x       y       z     vdW  Elec       q    Type
REMARK                         _______ _______ _______ _____ _____    ______ ____
ROOT
ATOM      1  C   UNL     1      33.509 -16.554 -24.349  0.00  0.00    +0.158 C 
ENDROOT
BRANCH   1   4
ATOM      2  O   UNL     1      34.257 -17.659 -26.364  0.00  0.00    -0.272 OA
ATOM      3  N   UNL     1      31.996 -17.604 -25.897  0.00  0.00    -0.196 N 
ATOM      4  C   UNL     1      33.317 -17.331 -25.641  0.00  0.00    +0.260 C 
ATOM      5  H   UNL     1      31.276 -17.321 -25.289  0.00  0.00    +0.182 HD
BRANCH   3   6
ATOM      6  O   UNL     1      31.736 -18.311 -27.080  0.00  0.00    -0.295 OA
ATOM      7  H   UNL     1      32.443 -18.957 -27.232  0.00  0.00    +0.241 HD
ENDBRANCH   3   6
ENDBRANCH   1   4
BRANCH   1   8
ATOM      8  N   UNL     1      33.272 -15.133 -24.699  0.00  0.00    -0.172 NA
ATOM      9  H   UNL     1      33.881 -14.918 -25.488  0.00  0.00    +0.149 HD
BRANCH   8  10
ATOM     10  S   UNL     1      33.529 -13.921 -23.537  0.00  0.00    +0.061 S 
ATOM     11  O   UNL     1      34.752 -14.202 -22.809  0.00  0.00    -0.153 OA
ATOM     12  O   UNL     1      32.289 -13.693 -22.820  0.00  0.00    -0.153 OA
BRANCH  10  13
ATOM     13  C   UNL     1      33.809 -12.500 -24.548  0.00  0.00    +0.122 C 
ATOM     14  C   UNL     1      34.254 -11.329 -23.958  0.00  0.00    +0.020 C 
ATOM     15  C   UNL     1      34.481 -10.189 -24.748  0.00  0.00    +0.001 C 
ATOM     16  C   UNL     1      33.581 -12.583 -25.907  0.00  0.00    +0.020 C 
ATOM     17  C   UNL     1      34.252 -10.257 -26.143  0.00  0.00    +0.000 C 
ATOM     18  C   UNL     1      33.802 -11.461 -26.707  0.00  0.00    +0.001 C 
ATOM     19  C   UNL     1      34.931  -8.985 -24.183  0.00  0.00    +0.000 C 
ATOM     20  C   UNL     1      34.478  -9.118 -26.932  0.00  0.00    +0.000 C 
ATOM     21  C   UNL     1      35.152  -7.862 -24.983  0.00  0.00    +0.000 C 
ATOM     22  C   UNL     1      34.926  -7.929 -26.354  0.00  0.00    +0.000 C 
ENDBRANCH  10  13
ENDBRANCH   8  10
ENDBRANCH   1   8
BRANCH   1  23
ATOM     23  C   UNL     1      34.936 -16.725 -23.803  0.00  0.00    +0.053 C 
BRANCH  23  24
ATOM     24  C   UNL     1      35.057 -17.816 -22.793  0.00  0.00    -0.020 C 
ATOM     25  C   UNL     1      33.911 -18.444 -22.303  0.00  0.00    -0.004 C 
ATOM     26  C   UNL     1      34.008 -19.473 -21.352  0.00  0.00    -0.000 C 
ATOM     27  C   UNL     1      36.313 -18.208 -22.340  0.00  0.00    -0.004 C 
ATOM     28  C   UNL     1      35.286 -19.871 -20.891  0.00  0.00    -0.000 C 
ATOM     29  C   UNL     1      36.428 -19.228 -21.396  0.00  0.00    -0.000 C 
ATOM     30  C   UNL     1      32.865 -20.114 -20.848  0.00  0.00    -0.000 C 
ATOM     31  C   UNL     1      35.383 -20.900 -19.941  0.00  0.00    -0.000 C 
ATOM     32  C   UNL     1      32.980 -21.135 -19.903  0.00  0.00    -0.000 C 
ATOM     33  C   UNL     1      34.237 -21.526 -19.450  0.00  0.00    -0.000 C 
ENDBRANCH  23  24
ENDBRANCH   1  23
TORSDOF 7
ENDMDL
