MODEL 1
REMARK VINA RESULT:     -11.6      0.000      0.000
REMARK  Name = 11610526
REMARK  3 active torsions:
REMARK  status: ('A' for Active; 'I' for Inactive)
REMARK    1  A    between atoms: C_2  and  C_21
REMARK    2  A    between atoms: C_9  and  C_14
REMARK    3  A    between atoms: C_21  and  C_23
REMARK                            x       y       z     vdW  Elec       q    Type
REMARK                         _______ _______ _______ _____ _____    ______ ____
ROOT
ATOM      1  N   UNL     1      34.107 -21.371 -20.121  0.00  0.00    -0.388 NA
ATOM      2  C   UNL     1      34.535 -22.008 -19.028  0.00  0.00    +0.167 C 
ATOM      3  C   UNL     1      35.733 -21.831 -18.393  0.00  0.00    +0.031 C 
ATOM      4  C   UNL     1      34.971 -20.464 -20.628  0.00  0.00    +0.167 C 
ATOM      5  C   UNL     1      36.595 -20.889 -18.943  0.00  0.00    -0.015 C 
ATOM      6  C   UNL     1      36.214 -20.188 -20.082  0.00  0.00    +0.101 C 
ATOM      7  O   UNL     1      36.449 -18.363 -22.173  0.00  0.00    -0.270 OA
ATOM      8  N   UNL     1      34.596 -19.752 -21.773  0.00  0.00    -0.259 N 
ATOM      9  C   UNL     1      35.330 -18.778 -22.457  0.00  0.00    +0.255 C 
ATOM     10  H   UNL     1      33.709 -19.964 -22.144  0.00  0.00    +0.157 HD
ENDROOT
BRANCH   9  14
ATOM     11  F   UNL     1      34.646 -20.292 -24.716  0.00  0.00    -0.204 F 
ATOM     12  F   UNL     1      34.643 -16.060 -22.559  0.00  0.00    -0.204 F 
ATOM     13  F   UNL     1      32.764 -16.526 -26.875  0.00  0.00    -0.204 F 
ATOM     14  C   UNL     1      34.647 -18.179 -23.633  0.00  0.00    +0.109 C 
ATOM     15  C   UNL     1      34.342 -18.987 -24.709  0.00  0.00    +0.149 C 
ATOM     16  C   UNL     1      34.340 -16.834 -23.611  0.00  0.00    +0.149 C 
ATOM     17  C   UNL     1      33.701 -18.423 -25.812  0.00  0.00    +0.060 C 
ATOM     18  C   UNL     1      33.700 -16.272 -24.715  0.00  0.00    +0.060 C 
ATOM     19  C   UNL     1      33.380 -17.066 -25.816  0.00  0.00    +0.145 C 
ENDBRANCH   9  14
BRANCH   2  21
ATOM     20  O   UNL     1      33.269 -23.995 -19.146  0.00  0.00    -0.289 OA
ATOM     21  C   UNL     1      33.572 -23.006 -18.483  0.00  0.00    +0.202 C 
BRANCH  21  23
ATOM     22  N   UNL     1      31.567 -23.915 -14.831  0.00  0.00    +0.386 N 
ATOM     23  C   UNL     1      32.984 -22.782 -17.124  0.00  0.00    +0.060 C 
ATOM     24  C   UNL     1      33.673 -23.696 -16.112  0.00  0.00    -0.015 C 
ATOM     25  C   UNL     1      31.480 -23.052 -17.148  0.00  0.00    -0.015 C 
ATOM     26  C   UNL     1      33.001 -23.609 -14.739  0.00  0.00    -0.077 C 
ATOM     27  C   UNL     1      30.883 -22.986 -15.741  0.00  0.00    -0.077 C 
ATOM     28  C   UNL     1      30.951 -23.879 -13.505  0.00  0.00    -0.101 C 
ATOM     29  H   UNL     1      31.470 -24.857 -15.211  0.00  0.00    -0.080 HD
ENDBRANCH  21  23
ENDBRANCH   2  21
TORSDOF 3
ENDMDL
MODEL 2
REMARK VINA RESULT:     -11.3      3.518      6.151
REMARK  Name = 11610526
REMARK  3 active torsions:
REMARK  status: ('A' for Active; 'I' for Inactive)
REMARK    1  A    between atoms: C_2  and  C_21
REMARK    2  A    between atoms: C_9  and  C_14
REMARK    3  A    between atoms: C_21  and  C_23
REMARK                            x       y       z     vdW  Elec       q    Type
REMARK                         _______ _______ _______ _____ _____    ______ ____
ROOT
ATOM      1  N   UNL     1      34.600 -17.040 -22.961  0.00  0.00    -0.388 NA
ATOM      2  C   UNL     1      34.779 -18.361 -23.032  0.00  0.00    +0.167 C 
ATOM      3  C   UNL     1      34.457 -19.177 -24.082  0.00  0.00    +0.031 C 
ATOM      4  C   UNL     1      34.038 -16.481 -24.055  0.00  0.00    +0.167 C 
ATOM      5  C   UNL     1      33.882 -18.565 -25.191  0.00  0.00    -0.015 C 
ATOM      6  C   UNL     1      33.665 -17.191 -25.185  0.00  0.00    +0.101 C 
ATOM      7  O   UNL     1      32.846 -14.716 -26.166  0.00  0.00    -0.270 OA
ATOM      8  N   UNL     1      33.816 -15.098 -24.060  0.00  0.00    -0.259 N 
ATOM      9  C   UNL     1      33.253 -14.323 -25.078  0.00  0.00    +0.255 C 
ATOM     10  H   UNL     1      34.089 -14.614 -23.248  0.00  0.00    +0.157 HD
ENDROOT
BRANCH   9  14
ATOM     11  F   UNL     1      32.342 -13.327 -22.620  0.00  0.00    -0.204 F 
ATOM     12  F   UNL     1      34.007 -12.393 -26.969  0.00  0.00    -0.204 F 
ATOM     13  F   UNL     1      32.959  -8.849 -24.016  0.00  0.00    -0.204 F 
ATOM     14  C   UNL     1      33.175 -12.866 -24.795  0.00  0.00    +0.109 C 
ATOM     15  C   UNL     1      32.716 -12.451 -23.562  0.00  0.00    +0.149 C 
ATOM     16  C   UNL     1      33.563 -11.977 -25.775  0.00  0.00    +0.149 C 
ATOM     17  C   UNL     1      32.643 -11.083 -23.298  0.00  0.00    +0.060 C 
ATOM     18  C   UNL     1      33.489 -10.609 -25.509  0.00  0.00    +0.060 C 
ATOM     19  C   UNL     1      33.029 -10.162 -24.271  0.00  0.00    +0.145 C 
ENDBRANCH   9  14
BRANCH   2  21
ATOM     20  O   UNL     1      36.369 -18.425 -21.291  0.00  0.00    -0.289 OA
ATOM     21  C   UNL     1      35.398 -18.963 -21.817  0.00  0.00    +0.202 C 
BRANCH  21  23
ATOM     22  N   UNL     1      33.745 -21.621 -18.921  0.00  0.00    +0.386 N 
ATOM     23  C   UNL     1      34.819 -20.224 -21.255  0.00  0.00    +0.060 C 
ATOM     24  C   UNL     1      33.417 -19.947 -20.713  0.00  0.00    -0.015 C 
ATOM     25  C   UNL     1      35.718 -20.770 -20.147  0.00  0.00    -0.015 C 
ATOM     26  C   UNL     1      32.848 -21.173 -19.995  0.00  0.00    -0.077 C 
ATOM     27  C   UNL     1      35.072 -21.967 -19.448  0.00  0.00    -0.077 C 
ATOM     28  C   UNL     1      33.163 -22.759 -18.211  0.00  0.00    -0.101 C 
ATOM     29  H   UNL     1      33.860 -20.849 -18.264  0.00  0.00    -0.080 HD
ENDBRANCH  21  23
ENDBRANCH   2  21
TORSDOF 3
ENDMDL
MODEL 3
REMARK VINA RESULT:     -11.3      3.576      6.151
REMARK  Name = 11610526
REMARK  3 active torsions:
REMARK  status: ('A' for Active; 'I' for Inactive)
REMARK    1  A    between atoms: C_2  and  C_21
REMARK    2  A    between atoms: C_9  and  C_14
REMARK    3  A    between atoms: C_21  and  C_23
REMARK                            x       y       z     vdW  Elec       q    Type
REMARK                         _______ _______ _______ _____ _____    ______ ____
ROOT
ATOM      1  N   UNL     1      34.563 -16.950 -22.915  0.00  0.00    -0.388 NA
ATOM      2  C   UNL     1      34.744 -18.271 -22.989  0.00  0.00    +0.167 C 
ATOM      3  C   UNL     1      34.442 -19.081 -24.049  0.00  0.00    +0.031 C 
ATOM      4  C   UNL     1      34.021 -16.385 -24.016  0.00  0.00    +0.167 C 
ATOM      5  C   UNL     1      33.887 -18.464 -25.165  0.00  0.00    -0.015 C 
ATOM      6  C   UNL     1      33.670 -17.090 -25.156  0.00  0.00    +0.101 C 
ATOM      7  O   UNL     1      32.868 -14.611 -26.140  0.00  0.00    -0.270 OA
ATOM      8  N   UNL     1      33.799 -15.003 -24.018  0.00  0.00    -0.259 N 
ATOM      9  C   UNL     1      33.254 -14.223 -25.042  0.00  0.00    +0.255 C 
ATOM     10  H   UNL     1      34.056 -14.523 -23.199  0.00  0.00    +0.157 HD
ENDROOT
BRANCH   9  14
ATOM     11  F   UNL     1      34.024 -12.284 -26.917  0.00  0.00    -0.204 F 
ATOM     12  F   UNL     1      32.316 -13.239 -22.589  0.00  0.00    -0.204 F 
ATOM     13  F   UNL     1      32.939  -8.755 -23.958  0.00  0.00    -0.204 F 
ATOM     14  C   UNL     1      33.170 -12.767 -24.754  0.00  0.00    +0.109 C 
ATOM     15  C   UNL     1      33.567 -11.872 -25.726  0.00  0.00    +0.149 C 
ATOM     16  C   UNL     1      32.698 -12.359 -23.524  0.00  0.00    +0.149 C 
ATOM     17  C   UNL     1      33.488 -10.506 -25.454  0.00  0.00    +0.060 C 
ATOM     18  C   UNL     1      32.621 -10.992 -23.253  0.00  0.00    +0.060 C 
ATOM     19  C   UNL     1      33.016 -10.066 -24.218  0.00  0.00    +0.145 C 
ENDBRANCH   9  14
BRANCH   2  21
ATOM     20  O   UNL     1      36.282 -18.327 -21.202  0.00  0.00    -0.289 OA
ATOM     21  C   UNL     1      35.340 -18.878 -21.766  0.00  0.00    +0.202 C 
BRANCH  21  23
ATOM     22  N   UNL     1      33.740 -21.646 -18.945  0.00  0.00    +0.386 N 
ATOM     23  C   UNL     1      34.776 -20.161 -21.242  0.00  0.00    +0.060 C 
ATOM     24  C   UNL     1      33.379 -19.911 -20.671  0.00  0.00    -0.015 C 
ATOM     25  C   UNL     1      35.692 -20.742 -20.166  0.00  0.00    -0.015 C 
ATOM     26  C   UNL     1      32.826 -21.165 -19.989  0.00  0.00    -0.077 C 
ATOM     27  C   UNL     1      35.061 -21.967 -19.503  0.00  0.00    -0.077 C 
ATOM     28  C   UNL     1      33.173 -22.813 -18.268  0.00  0.00    -0.101 C 
ATOM     29  H   UNL     1      33.860 -20.898 -18.262  0.00  0.00    -0.080 HD
ENDBRANCH  21  23
ENDBRANCH   2  21
TORSDOF 3
ENDMDL
MODEL 4
REMARK VINA RESULT:     -11.1      4.387      9.748
REMARK  Name = 11610526
REMARK  3 active torsions:
REMARK  status: ('A' for Active; 'I' for Inactive)
REMARK    1  A    between atoms: C_2  and  C_21
REMARK    2  A    between atoms: C_9  and  C_14
REMARK    3  A    between atoms: C_21  and  C_23
REMARK                            x       y       z     vdW  Elec       q    Type
REMARK                         _______ _______ _______ _____ _____    ______ ____
ROOT
ATOM      1  N   UNL     1      35.307 -20.884 -19.318  0.00  0.00    -0.388 NA
ATOM      2  C   UNL     1      34.599 -20.309 -20.292  0.00  0.00    +0.167 C 
ATOM      3  C   UNL     1      33.276 -20.512 -20.574  0.00  0.00    +0.031 C 
ATOM      4  C   UNL     1      34.616 -21.754 -18.548  0.00  0.00    +0.167 C 
ATOM      5  C   UNL     1      32.598 -21.413 -19.760  0.00  0.00    -0.015 C 
ATOM      6  C   UNL     1      33.274 -22.050 -18.725  0.00  0.00    +0.101 C 
ATOM      7  O   UNL     1      33.619 -23.751 -16.546  0.00  0.00    -0.270 OA
ATOM      8  N   UNL     1      35.287 -22.400 -17.503  0.00  0.00    -0.259 N 
ATOM      9  C   UNL     1      34.769 -23.328 -16.595  0.00  0.00    +0.255 C 
ATOM     10  H   UNL     1      36.239 -22.175 -17.396  0.00  0.00    +0.157 HD
ENDROOT
BRANCH   9  14
ATOM     11  F   UNL     1      37.489 -22.645 -16.655  0.00  0.00    -0.204 F 
ATOM     12  F   UNL     1      33.980 -24.999 -14.484  0.00  0.00    -0.204 F 
ATOM     13  F   UNL     1      38.381 -25.176 -12.758  0.00  0.00    -0.204 F 
ATOM     14  C   UNL     1      35.731 -23.820 -15.574  0.00  0.00    +0.109 C 
ATOM     15  C   UNL     1      37.054 -23.442 -15.668  0.00  0.00    +0.149 C 
ATOM     16  C   UNL     1      35.269 -24.638 -14.564  0.00  0.00    +0.149 C 
ATOM     17  C   UNL     1      37.956 -23.904 -14.709  0.00  0.00    +0.060 C 
ATOM     18  C   UNL     1      36.172 -25.100 -13.606  0.00  0.00    +0.060 C 
ATOM     19  C   UNL     1      37.515 -24.733 -13.679  0.00  0.00    +0.145 C 
ENDBRANCH   9  14
BRANCH   2  21
ATOM     20  O   UNL     1      36.581 -19.208 -20.945  0.00  0.00    -0.289 OA
ATOM     21  C   UNL     1      35.375 -19.354 -21.132  0.00  0.00    +0.202 C 
BRANCH  21  23
ATOM     22  N   UNL     1      34.845 -17.151 -24.745  0.00  0.00    +0.386 N 
ATOM     23  C   UNL     1      34.666 -18.581 -22.201  0.00  0.00    +0.060 C 
ATOM     24  C   UNL     1      34.805 -19.310 -23.538  0.00  0.00    -0.015 C 
ATOM     25  C   UNL     1      35.240 -17.170 -22.303  0.00  0.00    -0.015 C 
ATOM     26  C   UNL     1      34.223 -18.480 -24.684  0.00  0.00    -0.077 C 
ATOM     27  C   UNL     1      34.643 -16.413 -23.490  0.00  0.00    -0.077 C 
ATOM     28  C   UNL     1      34.317 -16.390 -25.877  0.00  0.00    -0.101 C 
ATOM     29  H   UNL     1      35.849 -17.278 -24.876  0.00  0.00    -0.080 HD
ENDBRANCH  21  23
ENDBRANCH   2  21
TORSDOF 3
ENDMDL
MODEL 5
REMARK VINA RESULT:     -11.1      4.520      9.423
REMARK  Name = 11610526
REMARK  3 active torsions:
REMARK  status: ('A' for Active; 'I' for Inactive)
REMARK    1  A    between atoms: C_2  and  C_21
REMARK    2  A    between atoms: C_9  and  C_14
REMARK    3  A    between atoms: C_21  and  C_23
REMARK                            x       y       z     vdW  Elec       q    Type
REMARK                         _______ _______ _______ _____ _____    ______ ____
ROOT
ATOM      1  N   UNL     1      33.832 -14.689 -23.512  0.00  0.00    -0.388 NA
ATOM      2  C   UNL     1      33.452 -13.807 -24.439  0.00  0.00    +0.167 C 
ATOM      3  C   UNL     1      33.110 -14.077 -25.736  0.00  0.00    +0.031 C 
ATOM      4  C   UNL     1      33.874 -15.974 -23.930  0.00  0.00    +0.167 C 
ATOM      5  C   UNL     1      33.165 -15.409 -26.129  0.00  0.00    -0.015 C 
ATOM      6  C   UNL     1      33.554 -16.382 -25.214  0.00  0.00    +0.101 C 
ATOM      7  O   UNL     1      34.149 -18.939 -24.281  0.00  0.00    -0.270 OA
ATOM      8  N   UNL     1      34.263 -16.961 -23.017  0.00  0.00    -0.259 N 
ATOM      9  C   UNL     1      34.375 -18.337 -23.236  0.00  0.00    +0.255 C 
ATOM     10  H   UNL     1      34.486 -16.648 -22.110  0.00  0.00    +0.157 HD
ENDROOT
BRANCH   9  14
ATOM     11  F   UNL     1      32.531 -19.784 -21.696  0.00  0.00    -0.204 F 
ATOM     12  F   UNL     1      37.048 -18.495 -22.401  0.00  0.00    -0.204 F 
ATOM     13  F   UNL     1      35.926 -21.339 -18.791  0.00  0.00    -0.204 F 
ATOM     14  C   UNL     1      34.787 -19.136 -22.053  0.00  0.00    +0.109 C 
ATOM     15  C   UNL     1      33.823 -19.822 -21.344  0.00  0.00    +0.149 C 
ATOM     16  C   UNL     1      36.121 -19.166 -21.703  0.00  0.00    +0.149 C 
ATOM     17  C   UNL     1      34.211 -20.571 -20.233  0.00  0.00    +0.060 C 
ATOM     18  C   UNL     1      36.508 -19.916 -20.591  0.00  0.00    +0.060 C 
ATOM     19  C   UNL     1      35.553 -20.618 -19.856  0.00  0.00    +0.145 C 
ENDBRANCH   9  14
BRANCH   2  21
ATOM     20  O   UNL     1      34.289 -11.606 -24.303  0.00  0.00    -0.289 OA
ATOM     21  C   UNL     1      33.412 -12.396 -23.963  0.00  0.00    +0.202 C 
BRANCH  21  23
ATOM     22  N   UNL     1      31.484 -10.644 -20.587  0.00  0.00    +0.386 N 
ATOM     23  C   UNL     1      32.292 -11.961 -23.069  0.00  0.00    +0.060 C 
ATOM     24  C   UNL     1      32.330 -10.442 -22.903  0.00  0.00    -0.015 C 
ATOM     25  C   UNL     1      32.404 -12.648 -21.709  0.00  0.00    -0.015 C 
ATOM     26  C   UNL     1      31.296  -9.971 -21.878  0.00  0.00    -0.077 C 
ATOM     27  C   UNL     1      31.366 -12.102 -20.726  0.00  0.00    -0.077 C 
ATOM     28  C   UNL     1      30.522 -10.145 -19.604  0.00  0.00    -0.101 C 
ATOM     29  H   UNL     1      32.427 -10.435 -20.257  0.00  0.00    -0.080 HD
ENDBRANCH  21  23
ENDBRANCH   2  21
TORSDOF 3
ENDMDL
MODEL 6
REMARK VINA RESULT:     -10.9      1.442      2.442
REMARK  Name = 11610526
REMARK  3 active torsions:
REMARK  status: ('A' for Active; 'I' for Inactive)
REMARK    1  A    between atoms: C_2  and  C_21
REMARK    2  A    between atoms: C_9  and  C_14
REMARK    3  A    between atoms: C_21  and  C_23
REMARK                            x       y       z     vdW  Elec       q    Type
REMARK                         _______ _______ _______ _____ _____    ______ ____
ROOT
ATOM      1  N   UNL     1      33.763 -20.547 -19.953  0.00  0.00    -0.388 NA
ATOM      2  C   UNL     1      34.131 -21.592 -19.207  0.00  0.00    +0.167 C 
ATOM      3  C   UNL     1      35.394 -22.098 -19.073  0.00  0.00    +0.031 C 
ATOM      4  C   UNL     1      34.766 -19.951 -20.635  0.00  0.00    +0.167 C 
ATOM      5  C   UNL     1      36.400 -21.459 -19.789  0.00  0.00    -0.015 C 
ATOM      6  C   UNL     1      36.088 -20.364 -20.588  0.00  0.00    +0.101 C 
ATOM      7  O   UNL     1      36.548 -18.256 -22.349  0.00  0.00    -0.270 OA
ATOM      8  N   UNL     1      34.463 -18.848 -21.441  0.00  0.00    -0.259 N 
ATOM      9  C   UNL     1      35.339 -18.090 -22.224  0.00  0.00    +0.255 C 
ATOM     10  H   UNL     1      33.518 -18.572 -21.460  0.00  0.00    +0.157 HD
ENDROOT
BRANCH   9  14
ATOM     11  F   UNL     1      34.970 -15.579 -21.032  0.00  0.00    -0.204 F 
ATOM     12  F   UNL     1      34.459 -18.319 -24.878  0.00  0.00    -0.204 F 
ATOM     13  F   UNL     1      33.002 -13.820 -24.958  0.00  0.00    -0.204 F 
ATOM     14  C   UNL     1      34.717 -16.954 -22.952  0.00  0.00    +0.109 C 
ATOM     15  C   UNL     1      34.568 -15.747 -22.299  0.00  0.00    +0.149 C 
ATOM     16  C   UNL     1      34.309 -17.141 -24.255  0.00  0.00    +0.149 C 
ATOM     17  C   UNL     1      33.984 -14.680 -22.983  0.00  0.00    +0.060 C 
ATOM     18  C   UNL     1      33.724 -16.074 -24.938  0.00  0.00    +0.060 C 
ATOM     19  C   UNL     1      33.561 -14.844 -24.302  0.00  0.00    +0.145 C 
ENDBRANCH   9  14
BRANCH   2  21
ATOM     20  O   UNL     1      31.850 -22.024 -18.793  0.00  0.00    -0.289 OA
ATOM     21  C   UNL     1      33.014 -22.238 -18.463  0.00  0.00    +0.202 C 
BRANCH  21  23
ATOM     22  N   UNL     1      33.650 -23.447 -14.424  0.00  0.00    +0.386 N 
ATOM     23  C   UNL     1      33.332 -23.144 -17.315  0.00  0.00    +0.060 C 
ATOM     24  C   UNL     1      32.136 -23.208 -16.365  0.00  0.00    -0.015 C 
ATOM     25  C   UNL     1      34.572 -22.644 -16.574  0.00  0.00    -0.015 C 
ATOM     26  C   UNL     1      32.472 -24.003 -15.102  0.00  0.00    -0.077 C 
ATOM     27  C   UNL     1      34.825 -23.459 -15.305  0.00  0.00    -0.077 C 
ATOM     28  C   UNL     1      33.926 -24.185 -13.191  0.00  0.00    -0.101 C 
ATOM     29  H   UNL     1      33.446 -22.476 -14.184  0.00  0.00    -0.080 HD
ENDBRANCH  21  23
ENDBRANCH   2  21
TORSDOF 3
ENDMDL
MODEL 7
REMARK VINA RESULT:     -10.8      4.847     10.876
REMARK  Name = 11610526
REMARK  3 active torsions:
REMARK  status: ('A' for Active; 'I' for Inactive)
REMARK    1  A    between atoms: C_2  and  C_21
REMARK    2  A    between atoms: C_9  and  C_14
REMARK    3  A    between atoms: C_21  and  C_23
REMARK                            x       y       z     vdW  Elec       q    Type
REMARK                         _______ _______ _______ _____ _____    ______ ____
ROOT
ATOM      1  N   UNL     1      33.769 -14.648 -23.724  0.00  0.00    -0.388 NA
ATOM      2  C   UNL     1      33.403 -13.783 -24.673  0.00  0.00    +0.167 C 
ATOM      3  C   UNL     1      33.092 -14.076 -25.973  0.00  0.00    +0.031 C 
ATOM      4  C   UNL     1      33.831 -15.938 -24.121  0.00  0.00    +0.167 C 
ATOM      5  C   UNL     1      33.167 -15.414 -26.344  0.00  0.00    -0.015 C 
ATOM      6  C   UNL     1      33.542 -16.369 -25.405  0.00  0.00    +0.101 C 
ATOM      7  O   UNL     1      34.137 -18.906 -24.419  0.00  0.00    -0.270 OA
ATOM      8  N   UNL     1      34.207 -16.908 -23.184  0.00  0.00    -0.259 N 
ATOM      9  C   UNL     1      34.335 -18.286 -23.379  0.00  0.00    +0.255 C 
ATOM     10  H   UNL     1      34.408 -16.579 -22.278  0.00  0.00    +0.157 HD
ENDROOT
BRANCH   9  14
ATOM     11  F   UNL     1      36.991 -18.413 -22.486  0.00  0.00    -0.204 F 
ATOM     12  F   UNL     1      32.468 -19.720 -21.854  0.00  0.00    -0.204 F 
ATOM     13  F   UNL     1      35.811 -21.207 -18.855  0.00  0.00    -0.204 F 
ATOM     14  C   UNL     1      34.728 -19.063 -22.175  0.00  0.00    +0.109 C 
ATOM     15  C   UNL     1      36.055 -19.079 -21.796  0.00  0.00    +0.149 C 
ATOM     16  C   UNL     1      33.754 -19.744 -21.475  0.00  0.00    +0.149 C 
ATOM     17  C   UNL     1      36.423 -19.809 -20.666  0.00  0.00    +0.060 C 
ATOM     18  C   UNL     1      34.123 -20.474 -20.345  0.00  0.00    +0.060 C 
ATOM     19  C   UNL     1      35.458 -20.507 -19.941  0.00  0.00    +0.145 C 
ENDBRANCH   9  14
BRANCH   2  21
ATOM     20  O   UNL     1      32.893 -12.093 -23.110  0.00  0.00    -0.289 OA
ATOM     21  C   UNL     1      33.341 -12.365 -24.221  0.00  0.00    +0.202 C 
BRANCH  21  23
ATOM     22  N   UNL     1      34.230  -8.425 -25.589  0.00  0.00    +0.386 N 
ATOM     23  C   UNL     1      33.832 -11.287 -25.136  0.00  0.00    +0.060 C 
ATOM     24  C   UNL     1      34.948 -10.500 -24.449  0.00  0.00    -0.015 C 
ATOM     25  C   UNL     1      32.683 -10.355 -25.519  0.00  0.00    -0.015 C 
ATOM     26  C   UNL     1      35.375  -9.295 -25.289  0.00  0.00    -0.077 C 
ATOM     27  C   UNL     1      33.187  -9.155 -26.323  0.00  0.00    -0.077 C 
ATOM     28  C   UNL     1      34.663  -7.252 -26.348  0.00  0.00    -0.101 C 
ATOM     29  H   UNL     1      33.830  -8.113 -24.703  0.00  0.00    -0.080 HD
ENDBRANCH  21  23
ENDBRANCH   2  21
TORSDOF 3
ENDMDL
MODEL 8
REMARK VINA RESULT:     -10.5      8.148     11.788
REMARK  Name = 11610526
REMARK  3 active torsions:
REMARK  status: ('A' for Active; 'I' for Inactive)
REMARK    1  A    between atoms: C_2  and  C_21
REMARK    2  A    between atoms: C_9  and  C_14
REMARK    3  A    between atoms: C_21  and  C_23
REMARK                            x       y       z     vdW  Elec       q    Type
REMARK                         _______ _______ _______ _____ _____    ______ ____
ROOT
ATOM      1  N   UNL     1      32.633 -11.791 -24.270  0.00  0.00    -0.388 NA
ATOM      2  C   UNL     1      32.859 -10.478 -24.176  0.00  0.00    +0.167 C 
ATOM      3  C   UNL     1      33.483  -9.685 -25.100  0.00  0.00    +0.031 C 
ATOM      4  C   UNL     1      33.080 -12.366 -25.408  0.00  0.00    +0.167 C 
ATOM      5  C   UNL     1      33.928 -10.313 -26.258  0.00  0.00    -0.015 C 
ATOM      6  C   UNL     1      33.726 -11.679 -26.422  0.00  0.00    +0.101 C 
ATOM      7  O   UNL     1      33.841 -14.159 -27.687  0.00  0.00    -0.270 OA
ATOM      8  N   UNL     1      32.881 -13.741 -25.583  0.00  0.00    -0.259 N 
ATOM      9  C   UNL     1      33.260 -14.530 -26.673  0.00  0.00    +0.255 C 
ATOM     10  H   UNL     1      32.420 -14.208 -24.850  0.00  0.00    +0.157 HD
ENDROOT
BRANCH   9  14
ATOM     11  F   UNL     1      30.952 -15.548 -27.899  0.00  0.00    -0.204 F 
ATOM     12  F   UNL     1      34.808 -16.392 -25.257  0.00  0.00    -0.204 F 
ATOM     13  F   UNL     1      31.838 -19.918 -26.317  0.00  0.00    -0.204 F 
ATOM     14  C   UNL     1      32.881 -15.964 -26.579  0.00  0.00    +0.109 C 
ATOM     15  C   UNL     1      31.731 -16.392 -27.208  0.00  0.00    +0.149 C 
ATOM     16  C   UNL     1      33.692 -16.821 -25.864  0.00  0.00    +0.149 C 
ATOM     17  C   UNL     1      31.376 -17.738 -27.119  0.00  0.00    +0.060 C 
ATOM     18  C   UNL     1      33.336 -18.167 -25.775  0.00  0.00    +0.060 C 
ATOM     19  C   UNL     1      32.178 -18.626 -26.402  0.00  0.00    +0.145 C 
ENDBRANCH   9  14
BRANCH   2  21
ATOM     20  O   UNL     1      32.153 -10.558 -21.926  0.00  0.00    -0.289 OA
ATOM     21  C   UNL     1      32.362  -9.859 -22.915  0.00  0.00    +0.202 C 
BRANCH  21  23
ATOM     22  N   UNL     1      30.734  -6.139 -21.613  0.00  0.00    +0.386 N 
ATOM     23  C   UNL     1      32.123  -8.381 -22.875  0.00  0.00    +0.060 C 
ATOM     24  C   UNL     1      32.533  -7.833 -21.508  0.00  0.00    -0.015 C 
ATOM     25  C   UNL     1      30.652  -8.076 -23.150  0.00  0.00    -0.015 C 
ATOM     26  C   UNL     1      32.166  -6.354 -21.371  0.00  0.00    -0.077 C 
ATOM     27  C   UNL     1      30.349  -6.588 -22.958  0.00  0.00    -0.077 C 
ATOM     28  C   UNL     1      30.390  -4.729 -21.427  0.00  0.00    -0.101 C 
ATOM     29  H   UNL     1      30.212  -6.695 -20.935  0.00  0.00    -0.080 HD
ENDBRANCH  21  23
ENDBRANCH   2  21
TORSDOF 3
ENDMDL
MODEL 9
REMARK VINA RESULT:     -10.4      4.952      8.338
REMARK  Name = 11610526
REMARK  3 active torsions:
REMARK  status: ('A' for Active; 'I' for Inactive)
REMARK    1  A    between atoms: C_2  and  C_21
REMARK    2  A    between atoms: C_9  and  C_14
REMARK    3  A    between atoms: C_21  and  C_23
REMARK                            x       y       z     vdW  Elec       q    Type
REMARK                         _______ _______ _______ _____ _____    ______ ____
ROOT
ATOM      1  N   UNL     1      33.387 -16.224 -25.379  0.00  0.00    -0.388 NA
ATOM      2  C   UNL     1      32.888 -17.397 -25.779  0.00  0.00    +0.167 C 
ATOM      3  C   UNL     1      31.933 -17.596 -26.738  0.00  0.00    +0.031 C 
ATOM      4  C   UNL     1      32.874 -15.142 -26.005  0.00  0.00    +0.167 C 
ATOM      5  C   UNL     1      31.430 -16.459 -27.361  0.00  0.00    -0.015 C 
ATOM      6  C   UNL     1      31.904 -15.205 -26.992  0.00  0.00    +0.101 C 
ATOM      7  O   UNL     1      32.120 -12.428 -27.031  0.00  0.00    -0.270 OA
ATOM      8  N   UNL     1      33.345 -13.875 -25.642  0.00  0.00    -0.259 N 
ATOM      9  C   UNL     1      32.956 -12.635 -26.157  0.00  0.00    +0.255 C 
ATOM     10  H   UNL     1      34.034 -13.854 -24.939  0.00  0.00    +0.157 HD
ENDROOT
BRANCH   9  14
ATOM     11  F   UNL     1      32.411 -11.676 -23.578  0.00  0.00    -0.204 F 
ATOM     12  F   UNL     1      34.922 -11.236 -27.586  0.00  0.00    -0.204 F 
ATOM     13  F   UNL     1      35.616  -8.222 -24.007  0.00  0.00    -0.204 F 
ATOM     14  C   UNL     1      33.664 -11.460 -25.584  0.00  0.00    +0.109 C 
ATOM     15  C   UNL     1      33.342 -11.046 -24.308  0.00  0.00    +0.149 C 
ATOM     16  C   UNL     1      34.619 -10.823 -26.347  0.00  0.00    +0.149 C 
ATOM     17  C   UNL     1      34.007  -9.943 -23.772  0.00  0.00    +0.060 C 
ATOM     18  C   UNL     1      35.283  -9.720 -25.810  0.00  0.00    +0.060 C 
ATOM     19  C   UNL     1      34.977  -9.280 -24.522  0.00  0.00    +0.145 C 
ENDBRANCH   9  14
BRANCH   2  21
ATOM     20  O   UNL     1      33.480 -19.675 -25.634  0.00  0.00    -0.289 OA
ATOM     21  C   UNL     1      33.462 -18.579 -25.078  0.00  0.00    +0.202 C 
BRANCH  21  23
ATOM     22  N   UNL     1      35.464 -19.600 -21.454  0.00  0.00    +0.386 N 
ATOM     23  C   UNL     1      34.013 -18.409 -23.696  0.00  0.00    +0.060 C 
ATOM     24  C   UNL     1      35.528 -18.610 -23.720  0.00  0.00    -0.015 C 
ATOM     25  C   UNL     1      33.360 -19.407 -22.741  0.00  0.00    -0.015 C 
ATOM     26  C   UNL     1      36.112 -18.594 -22.306  0.00  0.00    -0.077 C 
ATOM     27  C   UNL     1      34.017 -19.363 -21.360  0.00  0.00    -0.077 C 
ATOM     28  C   UNL     1      36.068 -19.608 -20.122  0.00  0.00    -0.101 C 
ATOM     29  H   UNL     1      35.605 -20.515 -21.883  0.00  0.00    -0.080 HD
ENDBRANCH  21  23
ENDBRANCH   2  21
TORSDOF 3
ENDMDL
