MODEL 1
REMARK VINA RESULT:     -11.4      0.000      0.000
REMARK  Name = 16122642
REMARK  7 active torsions:
REMARK  status: ('A' for Active; 'I' for Inactive)
REMARK    1  A    between atoms: C_2  and  C_10
REMARK    2  A    between atoms: C_3  and  O_18
REMARK    3  A    between atoms: O_18  and  C_19
REMARK    4  A    between atoms: C_19  and  C_20
REMARK    5  A    between atoms: C_20  and  N_21
REMARK    6  A    between atoms: C_20  and  C_25
REMARK    7  A    between atoms: C_25  and  C_27
REMARK                            x       y       z     vdW  Elec       q    Type
REMARK                         _______ _______ _______ _____ _____    ______ ____
ROOT
ATOM      1  N   UNL     1      31.581 -17.422 -27.492  0.00  0.00    -0.239 NA
ATOM      2  C   UNL     1      32.723 -15.576 -26.441  0.00  0.00    +0.022 C 
ATOM      3  C   UNL     1      32.778 -17.745 -25.417  0.00  0.00    +0.158 C 
ATOM      4  C   UNL     1      33.140 -16.402 -25.409  0.00  0.00    +0.040 C 
ATOM      5  C   UNL     1      31.954 -16.123 -27.451  0.00  0.00    +0.099 C 
ATOM      6  C   UNL     1      32.005 -18.201 -26.472  0.00  0.00    +0.136 C 
ENDROOT
BRANCH   2  10
ATOM      7  N   UNL     1      33.658  -9.993 -25.179  0.00  0.00    -0.280 N 
ATOM      8  N   UNL     1      34.079 -10.207 -26.441  0.00  0.00    -0.173 NA
ATOM      9  C   UNL     1      33.242 -12.089 -25.483  0.00  0.00    +0.032 A 
ATOM     10  C   UNL     1      33.085 -14.171 -26.461  0.00  0.00    +0.002 C 
ATOM     11  C   UNL     1      33.834 -11.510 -26.665  0.00  0.00    +0.102 A 
ATOM     12  C   UNL     1      32.842 -13.407 -25.302  0.00  0.00    +0.003 C 
ATOM     13  C   UNL     1      33.145 -11.092 -24.554  0.00  0.00    +0.053 A 
ATOM     14  C   UNL     1      33.668 -13.645 -27.656  0.00  0.00    +0.002 C 
ATOM     15  C   UNL     1      34.066 -12.298 -27.808  0.00  0.00    +0.021 C 
ATOM     16  C   UNL     1      32.639 -11.040 -23.172  0.00  0.00    +0.051 C 
ATOM     17  H   UNL     1      33.715  -9.113 -24.743  0.00  0.00    +0.189 HD
ENDBRANCH   2  10
BRANCH   3  18
ATOM     18  O   UNL     1      33.170 -18.580 -24.424  0.00  0.00    -0.476 OA
BRANCH  18  19
ATOM     19  C   UNL     1      34.519 -19.050 -24.457  0.00  0.00    +0.184 C 
BRANCH  19  20
ATOM     20  C   UNL     1      35.063 -19.205 -23.031  0.00  0.00    -0.017 C 
BRANCH  20  21
ATOM     21  N   UNL     1      36.212 -18.309 -22.875  0.00  0.00    +0.384 N 
ATOM     22  H   UNL     1      36.053 -17.457 -23.411  0.00  0.00    -0.089 HD
ATOM     23  H   UNL     1      37.054 -18.773 -23.216  0.00  0.00    -0.089 HD
ATOM     24  H   UNL     1      36.328 -18.074 -21.889  0.00  0.00    -0.089 HD
ENDBRANCH  20  21
BRANCH  20  25
ATOM     25  C   UNL     1      34.024 -18.855 -21.944  0.00  0.00    +0.008 C 
BRANCH  25  27
ATOM     26 BR   UNL     1      33.209 -23.219 -17.658  0.00  0.00    -0.049 Br
ATOM     27  C   UNL     1      33.826 -19.922 -20.895  0.00  0.00    -0.024 C 
ATOM     28  C   UNL     1      34.929 -20.587 -20.385  0.00  0.00    -0.004 C 
ATOM     29  C   UNL     1      32.543 -20.217 -20.463  0.00  0.00    -0.004 C 
ATOM     30  C   UNL     1      34.745 -21.574 -19.416  0.00  0.00    +0.006 C 
ATOM     31  C   UNL     1      32.359 -21.204 -19.495  0.00  0.00    +0.006 C 
ATOM     32  C   UNL     1      33.459 -21.881 -18.971  0.00  0.00    +0.035 C 
ENDBRANCH  25  27
ENDBRANCH  20  25
ENDBRANCH  19  20
ENDBRANCH  18  19
ENDBRANCH   3  18
TORSDOF 7
ENDMDL
MODEL 2
REMARK VINA RESULT:     -11.3      1.645      2.256
REMARK  Name = 16122642
REMARK  7 active torsions:
REMARK  status: ('A' for Active; 'I' for Inactive)
REMARK    1  A    between atoms: C_2  and  C_10
REMARK    2  A    between atoms: C_3  and  O_18
REMARK    3  A    between atoms: O_18  and  C_19
REMARK    4  A    between atoms: C_19  and  C_20
REMARK    5  A    between atoms: C_20  and  N_21
REMARK    6  A    between atoms: C_20  and  C_25
REMARK    7  A    between atoms: C_25  and  C_27
REMARK                            x       y       z     vdW  Elec       q    Type
REMARK                         _______ _______ _______ _____ _____    ______ ____
ROOT
ATOM      1  N   UNL     1      33.377 -16.340 -26.854  0.00  0.00    -0.239 NA
ATOM      2  C   UNL     1      33.430 -14.800 -24.999  0.00  0.00    +0.022 C 
ATOM      3  C   UNL     1      34.308 -17.017 -24.727  0.00  0.00    +0.158 C 
ATOM      4  C   UNL     1      34.031 -15.760 -24.199  0.00  0.00    +0.040 C 
ATOM      5  C   UNL     1      33.125 -15.130 -26.306  0.00  0.00    +0.099 C 
ATOM      6  C   UNL     1      33.964 -17.254 -26.049  0.00  0.00    +0.136 C 
ENDROOT
BRANCH   2  10
ATOM      7  N   UNL     1      31.836 -10.270 -21.747  0.00  0.00    -0.280 N 
ATOM      8  N   UNL     1      32.259  -9.797 -22.936  0.00  0.00    -0.173 NA
ATOM      9  C   UNL     1      32.383 -12.062 -22.819  0.00  0.00    +0.032 A 
ATOM     10  C   UNL     1      33.129 -13.480 -24.476  0.00  0.00    +0.002 C 
ATOM     11  C   UNL     1      32.610 -10.892 -23.633  0.00  0.00    +0.102 A 
ATOM     12  C   UNL     1      32.617 -13.386 -23.167  0.00  0.00    +0.003 C 
ATOM     13  C   UNL     1      31.889 -11.628 -21.622  0.00  0.00    +0.053 A 
ATOM     14  C   UNL     1      33.371 -12.352 -25.322  0.00  0.00    +0.002 C 
ATOM     15  C   UNL     1      33.123 -11.016 -24.938  0.00  0.00    +0.021 C 
ATOM     16  C   UNL     1      31.467 -12.315 -20.390  0.00  0.00    +0.051 C 
ATOM     17  H   UNL     1      31.513  -9.683 -21.027  0.00  0.00    +0.189 HD
ENDBRANCH   2  10
BRANCH   3  18
ATOM     18  O   UNL     1      34.895 -17.978 -23.973  0.00  0.00    -0.476 OA
BRANCH  18  19
ATOM     19  C   UNL     1      35.707 -17.547 -22.879  0.00  0.00    +0.184 C 
BRANCH  19  20
ATOM     20  C   UNL     1      35.271 -18.248 -21.586  0.00  0.00    -0.017 C 
BRANCH  20  21
ATOM     21  N   UNL     1      34.900 -17.221 -20.607  0.00  0.00    +0.384 N 
ATOM     22  H   UNL     1      35.157 -17.535 -19.672  0.00  0.00    -0.089 HD
ATOM     23  H   UNL     1      33.894 -17.061 -20.648  0.00  0.00    -0.089 HD
ATOM     24  H   UNL     1      35.391 -16.353 -20.822  0.00  0.00    -0.089 HD
ENDBRANCH  20  21
BRANCH  20  25
ATOM     25  C   UNL     1      34.062 -19.187 -21.783  0.00  0.00    +0.008 C 
BRANCH  25  27
ATOM     26 BR   UNL     1      33.273 -23.349 -17.295  0.00  0.00    -0.049 Br
ATOM     27  C   UNL     1      33.870 -20.205 -20.684  0.00  0.00    -0.024 C 
ATOM     28  C   UNL     1      34.977 -20.848 -20.152  0.00  0.00    -0.004 C 
ATOM     29  C   UNL     1      32.591 -20.477 -20.230  0.00  0.00    -0.004 C 
ATOM     30  C   UNL     1      34.798 -21.789 -19.138  0.00  0.00    +0.006 C 
ATOM     31  C   UNL     1      32.412 -21.418 -19.216  0.00  0.00    +0.006 C 
ATOM     32  C   UNL     1      33.515 -22.073 -18.669  0.00  0.00    +0.035 C 
ENDBRANCH  25  27
ENDBRANCH  20  25
ENDBRANCH  19  20
ENDBRANCH  18  19
ENDBRANCH   3  18
TORSDOF 7
ENDMDL
MODEL 3
REMARK VINA RESULT:     -11.3      4.135      7.521
REMARK  Name = 16122642
REMARK  7 active torsions:
REMARK  status: ('A' for Active; 'I' for Inactive)
REMARK    1  A    between atoms: C_2  and  C_10
REMARK    2  A    between atoms: C_3  and  O_18
REMARK    3  A    between atoms: O_18  and  C_19
REMARK    4  A    between atoms: C_19  and  C_20
REMARK    5  A    between atoms: C_20  and  N_21
REMARK    6  A    between atoms: C_20  and  C_25
REMARK    7  A    between atoms: C_25  and  C_27
REMARK                            x       y       z     vdW  Elec       q    Type
REMARK                         _______ _______ _______ _____ _____    ______ ____
ROOT
ATOM      1  N   UNL     1      36.037 -21.458 -19.314  0.00  0.00    -0.239 NA
ATOM      2  C   UNL     1      34.658 -20.000 -20.651  0.00  0.00    +0.022 C 
ATOM      3  C   UNL     1      33.633 -21.709 -19.314  0.00  0.00    +0.158 C 
ATOM      4  C   UNL     1      33.516 -20.650 -20.209  0.00  0.00    +0.040 C 
ATOM      5  C   UNL     1      35.884 -20.432 -20.182  0.00  0.00    +0.099 C 
ATOM      6  C   UNL     1      34.906 -22.070 -18.901  0.00  0.00    +0.136 C 
ENDROOT
BRANCH   2  10
ATOM      7  N   UNL     1      33.821 -16.591 -25.268  0.00  0.00    -0.280 N 
ATOM      8  N   UNL     1      34.286 -15.821 -24.265  0.00  0.00    -0.173 NA
ATOM      9  C   UNL     1      34.075 -17.998 -23.650  0.00  0.00    +0.032 A 
ATOM     10  C   UNL     1      34.568 -18.891 -21.583  0.00  0.00    +0.002 C 
ATOM     11  C   UNL     1      34.456 -16.669 -23.235  0.00  0.00    +0.102 A 
ATOM     12  C   UNL     1      34.102 -19.158 -22.886  0.00  0.00    +0.003 C 
ATOM     13  C   UNL     1      33.675 -17.911 -24.953  0.00  0.00    +0.053 A 
ATOM     14  C   UNL     1      34.957 -17.594 -21.124  0.00  0.00    +0.002 C 
ATOM     15  C   UNL     1      34.918 -16.433 -21.927  0.00  0.00    +0.021 C 
ATOM     16  C   UNL     1      33.178 -18.896 -25.929  0.00  0.00    +0.051 C 
ATOM     17  H   UNL     1      33.606 -16.231 -26.157  0.00  0.00    +0.189 HD
ENDBRANCH   2  10
BRANCH   3  18
ATOM     18  O   UNL     1      32.537 -22.366 -18.862  0.00  0.00    -0.476 OA
BRANCH  18  19
ATOM     19  C   UNL     1      32.730 -23.318 -17.814  0.00  0.00    +0.184 C 
BRANCH  19  20
ATOM     20  C   UNL     1      31.992 -22.869 -16.546  0.00  0.00    -0.017 C 
BRANCH  20  21
ATOM     21  N   UNL     1      30.575 -22.693 -16.875  0.00  0.00    +0.384 N 
ATOM     22  H   UNL     1      30.119 -22.156 -16.139  0.00  0.00    -0.089 HD
ATOM     23  H   UNL     1      30.128 -23.607 -16.955  0.00  0.00    -0.089 HD
ATOM     24  H   UNL     1      30.491 -22.196 -17.762  0.00  0.00    -0.089 HD
ENDBRANCH  20  21
BRANCH  20  25
ATOM     25  C   UNL     1      32.098 -23.887 -15.390  0.00  0.00    +0.008 C 
BRANCH  25  27
ATOM     26 BR   UNL     1      37.311 -23.518 -12.110  0.00  0.00    -0.049 Br
ATOM     27  C   UNL     1      33.373 -23.798 -14.587  0.00  0.00    -0.024 C 
ATOM     28  C   UNL     1      33.386 -24.256 -13.279  0.00  0.00    -0.004 C 
ATOM     29  C   UNL     1      34.506 -23.257 -15.173  0.00  0.00    -0.004 C 
ATOM     30  C   UNL     1      34.565 -24.172 -12.538  0.00  0.00    +0.006 C 
ATOM     31  C   UNL     1      35.684 -23.174 -14.432  0.00  0.00    +0.006 C 
ATOM     32  C   UNL     1      35.714 -23.632 -13.115  0.00  0.00    +0.035 C 
ENDBRANCH  25  27
ENDBRANCH  20  25
ENDBRANCH  19  20
ENDBRANCH  18  19
ENDBRANCH   3  18
TORSDOF 7
ENDMDL
MODEL 4
REMARK VINA RESULT:     -11.2      6.047     12.606
REMARK  Name = 16122642
REMARK  7 active torsions:
REMARK  status: ('A' for Active; 'I' for Inactive)
REMARK    1  A    between atoms: C_2  and  C_10
REMARK    2  A    between atoms: C_3  and  O_18
REMARK    3  A    between atoms: O_18  and  C_19
REMARK    4  A    between atoms: C_19  and  C_20
REMARK    5  A    between atoms: C_20  and  N_21
REMARK    6  A    between atoms: C_20  and  C_25
REMARK    7  A    between atoms: C_25  and  C_27
REMARK                            x       y       z     vdW  Elec       q    Type
REMARK                         _______ _______ _______ _____ _____    ______ ____
ROOT
ATOM      1  N   UNL     1      31.257 -23.363 -15.610  0.00  0.00    -0.239 NA
ATOM      2  C   UNL     1      33.668 -23.400 -15.596  0.00  0.00    +0.022 C 
ATOM      3  C   UNL     1      32.501 -22.808 -17.607  0.00  0.00    +0.158 C 
ATOM      4  C   UNL     1      33.697 -23.019 -16.929  0.00  0.00    +0.040 C 
ATOM      5  C   UNL     1      32.440 -23.558 -14.984  0.00  0.00    +0.099 C 
ATOM      6  C   UNL     1      31.319 -22.991 -16.908  0.00  0.00    +0.136 C 
ENDROOT
BRANCH   2  10
ATOM      7  N   UNL     1      37.702 -24.319 -11.531  0.00  0.00    -0.280 N 
ATOM      8  N   UNL     1      38.323 -24.266 -12.725  0.00  0.00    -0.173 NA
ATOM      9  C   UNL     1      36.078 -23.976 -12.912  0.00  0.00    +0.032 A 
ATOM     10  C   UNL     1      34.899 -23.627 -14.862  0.00  0.00    +0.002 C 
ATOM     11  C   UNL     1      37.337 -24.053 -13.614  0.00  0.00    +0.102 A 
ATOM     12  C   UNL     1      34.820 -23.767 -13.462  0.00  0.00    +0.003 C 
ATOM     13  C   UNL     1      36.349 -24.151 -11.584  0.00  0.00    +0.053 A 
ATOM     14  C   UNL     1      36.121 -23.695 -15.603  0.00  0.00    +0.002 C 
ATOM     15  C   UNL     1      37.385 -23.910 -15.013  0.00  0.00    +0.021 C 
ATOM     16  C   UNL     1      35.510 -24.180 -10.374  0.00  0.00    +0.051 C 
ATOM     17  H   UNL     1      38.185 -24.466 -10.687  0.00  0.00    +0.189 HD
ENDBRANCH   2  10
BRANCH   3  18
ATOM     18  O   UNL     1      32.493 -22.435 -18.910  0.00  0.00    -0.476 OA
BRANCH  18  19
ATOM     19  C   UNL     1      33.715 -21.931 -19.455  0.00  0.00    +0.184 C 
BRANCH  19  20
ATOM     20  C   UNL     1      33.422 -20.866 -20.520  0.00  0.00    -0.017 C 
BRANCH  20  21
ATOM     21  N   UNL     1      32.150 -20.219 -20.188  0.00  0.00    +0.384 N 
ATOM     22  H   UNL     1      32.231 -19.753 -19.285  0.00  0.00    -0.089 HD
ATOM     23  H   UNL     1      31.412 -20.923 -20.142  0.00  0.00    -0.089 HD
ATOM     24  H   UNL     1      31.920 -19.532 -20.906  0.00  0.00    -0.089 HD
ENDBRANCH  20  21
BRANCH  20  25
ATOM     25  C   UNL     1      34.512 -19.777 -20.604  0.00  0.00    +0.008 C 
BRANCH  25  27
ATOM     26 BR   UNL     1      34.249 -16.263 -25.669  0.00  0.00    -0.049 Br
ATOM     27  C   UNL     1      34.449 -18.917 -21.843  0.00  0.00    -0.024 C 
ATOM     28  C   UNL     1      34.838 -17.589 -21.769  0.00  0.00    -0.004 C 
ATOM     29  C   UNL     1      34.002 -19.472 -23.030  0.00  0.00    -0.004 C 
ATOM     30  C   UNL     1      34.779 -16.795 -22.914  0.00  0.00    +0.006 C 
ATOM     31  C   UNL     1      33.942 -18.677 -24.175  0.00  0.00    +0.006 C 
ATOM     32  C   UNL     1      34.331 -17.340 -24.117  0.00  0.00    +0.035 C 
ENDBRANCH  25  27
ENDBRANCH  20  25
ENDBRANCH  19  20
ENDBRANCH  18  19
ENDBRANCH   3  18
TORSDOF 7
ENDMDL
MODEL 5
REMARK VINA RESULT:     -11.2      5.139     11.702
REMARK  Name = 16122642
REMARK  7 active torsions:
REMARK  status: ('A' for Active; 'I' for Inactive)
REMARK    1  A    between atoms: C_2  and  C_10
REMARK    2  A    between atoms: C_3  and  O_18
REMARK    3  A    between atoms: O_18  and  C_19
REMARK    4  A    between atoms: C_19  and  C_20
REMARK    5  A    between atoms: C_20  and  N_21
REMARK    6  A    between atoms: C_20  and  C_25
REMARK    7  A    between atoms: C_25  and  C_27
REMARK                            x       y       z     vdW  Elec       q    Type
REMARK                         _______ _______ _______ _____ _____    ______ ____
ROOT
ATOM      1  N   UNL     1      36.389 -22.090 -17.428  0.00  0.00    -0.239 NA
ATOM      2  C   UNL     1      34.081 -22.728 -17.143  0.00  0.00    +0.022 C 
ATOM      3  C   UNL     1      34.791 -21.727 -19.205  0.00  0.00    +0.158 C 
ATOM      4  C   UNL     1      33.783 -22.275 -18.419  0.00  0.00    +0.040 C 
ATOM      5  C   UNL     1      35.383 -22.618 -16.694  0.00  0.00    +0.099 C 
ATOM      6  C   UNL     1      36.067 -21.658 -18.667  0.00  0.00    +0.136 C 
ENDROOT
BRANCH   2  10
ATOM      7  N   UNL     1      29.089 -24.495 -14.779  0.00  0.00    -0.280 N 
ATOM      8  N   UNL     1      30.092 -24.902 -13.977  0.00  0.00    -0.173 NA
ATOM      9  C   UNL     1      30.850 -23.765 -15.792  0.00  0.00    +0.032 A 
ATOM     10  C   UNL     1      33.050 -23.305 -16.300  0.00  0.00    +0.002 C 
ATOM     11  C   UNL     1      31.210 -24.462 -14.581  0.00  0.00    +0.102 A 
ATOM     12  C   UNL     1      31.708 -23.161 -16.702  0.00  0.00    +0.003 C 
ATOM     13  C   UNL     1      29.487 -23.806 -15.887  0.00  0.00    +0.053 A 
ATOM     14  C   UNL     1      33.459 -23.986 -15.110  0.00  0.00    +0.002 C 
ATOM     15  C   UNL     1      32.560 -24.591 -14.205  0.00  0.00    +0.021 C 
ATOM     16  C   UNL     1      28.524 -23.287 -16.872  0.00  0.00    +0.051 C 
ATOM     17  H   UNL     1      28.143 -24.680 -14.581  0.00  0.00    +0.189 HD
ENDBRANCH   2  10
BRANCH   3  18
ATOM     18  O   UNL     1      34.534 -21.275 -20.456  0.00  0.00    -0.476 OA
BRANCH  18  19
ATOM     19  C   UNL     1      33.659 -20.152 -20.581  0.00  0.00    +0.184 C 
BRANCH  19  20
ATOM     20  C   UNL     1      34.359 -19.013 -21.333  0.00  0.00    -0.017 C 
BRANCH  20  21
ATOM     21  N   UNL     1      35.584 -18.664 -20.607  0.00  0.00    +0.384 N 
ATOM     22  H   UNL     1      36.127 -19.509 -20.432  0.00  0.00    -0.089 HD
ATOM     23  H   UNL     1      35.339 -18.228 -19.718  0.00  0.00    -0.089 HD
ATOM     24  H   UNL     1      36.136 -18.013 -21.165  0.00  0.00    -0.089 HD
ENDBRANCH  20  21
BRANCH  20  25
ATOM     25  C   UNL     1      34.745 -19.389 -22.780  0.00  0.00    +0.008 C 
BRANCH  25  27
ATOM     26 BR   UNL     1      32.766 -15.434 -27.083  0.00  0.00    -0.049 Br
ATOM     27  C   UNL     1      34.260 -18.422 -23.832  0.00  0.00    -0.024 C 
ATOM     28  C   UNL     1      33.650 -18.912 -24.976  0.00  0.00    -0.004 C 
ATOM     29  C   UNL     1      34.435 -17.062 -23.635  0.00  0.00    -0.004 C 
ATOM     30  C   UNL     1      33.203 -18.018 -25.949  0.00  0.00    +0.006 C 
ATOM     31  C   UNL     1      33.987 -16.168 -24.608  0.00  0.00    +0.006 C 
ATOM     32  C   UNL     1      33.371 -16.646 -25.764  0.00  0.00    +0.035 C 
ENDBRANCH  25  27
ENDBRANCH  20  25
ENDBRANCH  19  20
ENDBRANCH  18  19
ENDBRANCH   3  18
TORSDOF 7
ENDMDL
MODEL 6
REMARK VINA RESULT:     -11.1      6.235     13.092
REMARK  Name = 16122642
REMARK  7 active torsions:
REMARK  status: ('A' for Active; 'I' for Inactive)
REMARK    1  A    between atoms: C_2  and  C_10
REMARK    2  A    between atoms: C_3  and  O_18
REMARK    3  A    between atoms: O_18  and  C_19
REMARK    4  A    between atoms: C_19  and  C_20
REMARK    5  A    between atoms: C_20  and  N_21
REMARK    6  A    between atoms: C_20  and  C_25
REMARK    7  A    between atoms: C_25  and  C_27
REMARK                            x       y       z     vdW  Elec       q    Type
REMARK                         _______ _______ _______ _____ _____    ______ ____
ROOT
ATOM      1  N   UNL     1      30.685 -23.194 -15.341  0.00  0.00    -0.239 NA
ATOM      2  C   UNL     1      33.019 -23.722 -15.047  0.00  0.00    +0.022 C 
ATOM      3  C   UNL     1      32.228 -22.991 -17.191  0.00  0.00    +0.158 C 
ATOM      4  C   UNL     1      33.272 -23.412 -16.375  0.00  0.00    +0.040 C 
ATOM      5  C   UNL     1      31.725 -23.599 -14.579  0.00  0.00    +0.099 C 
ATOM      6  C   UNL     1      30.964 -22.899 -16.631  0.00  0.00    +0.136 C 
ENDROOT
BRANCH   2  10
ATOM      7  N   UNL     1      37.828 -26.023 -12.765  0.00  0.00    -0.280 N 
ATOM      8  N   UNL     1      37.136 -25.440 -11.767  0.00  0.00    -0.173 NA
ATOM      9  C   UNL     1      36.094 -25.229 -13.774  0.00  0.00    +0.032 A 
ATOM     10  C   UNL     1      34.088 -24.163 -14.171  0.00  0.00    +0.002 C 
ATOM     11  C   UNL     1      36.043 -24.931 -12.363  0.00  0.00    +0.102 A 
ATOM     12  C   UNL     1      35.159 -24.880 -14.741  0.00  0.00    +0.003 C 
ATOM     13  C   UNL     1      37.247 -25.926 -13.995  0.00  0.00    +0.053 A 
ATOM     14  C   UNL     1      33.992 -23.844 -12.780  0.00  0.00    +0.002 C 
ATOM     15  C   UNL     1      34.961 -24.213 -11.821  0.00  0.00    +0.021 C 
ATOM     16  C   UNL     1      37.867 -26.505 -15.199  0.00  0.00    +0.051 C 
ATOM     17  H   UNL     1      38.685 -26.483 -12.618  0.00  0.00    +0.189 HD
ENDBRANCH   2  10
BRANCH   3  18
ATOM     18  O   UNL     1      32.440 -22.681 -18.493  0.00  0.00    -0.476 OA
BRANCH  18  19
ATOM     19  C   UNL     1      33.738 -22.198 -18.849  0.00  0.00    +0.184 C 
BRANCH  19  20
ATOM     20  C   UNL     1      33.651 -21.308 -20.095  0.00  0.00    -0.017 C 
BRANCH  20  21
ATOM     21  N   UNL     1      32.433 -20.498 -19.999  0.00  0.00    +0.384 N 
ATOM     22  H   UNL     1      32.564 -19.771 -19.297  0.00  0.00    -0.089 HD
ATOM     23  H   UNL     1      31.649 -21.092 -19.731  0.00  0.00    -0.089 HD
ATOM     24  H   UNL     1      32.240 -20.066 -20.903  0.00  0.00    -0.089 HD
ENDBRANCH  20  21
BRANCH  20  25
ATOM     25  C   UNL     1      34.856 -20.356 -20.246  0.00  0.00    +0.008 C 
BRANCH  25  27
ATOM     26 BR   UNL     1      34.333 -16.236 -24.810  0.00  0.00    -0.049 Br
ATOM     27  C   UNL     1      34.727 -19.348 -21.362  0.00  0.00    -0.024 C 
ATOM     28  C   UNL     1      34.407 -19.785 -22.638  0.00  0.00    -0.004 C 
ATOM     29  C   UNL     1      34.932 -18.006 -21.091  0.00  0.00    -0.004 C 
ATOM     30  C   UNL     1      34.289 -18.854 -23.670  0.00  0.00    +0.006 C 
ATOM     31  C   UNL     1      34.814 -17.074 -22.122  0.00  0.00    +0.006 C 
ATOM     32  C   UNL     1      34.492 -17.498 -23.411  0.00  0.00    +0.035 C 
ENDBRANCH  25  27
ENDBRANCH  20  25
ENDBRANCH  19  20
ENDBRANCH  18  19
ENDBRANCH   3  18
TORSDOF 7
ENDMDL
MODEL 7
REMARK VINA RESULT:     -10.9      1.701      2.746
REMARK  Name = 16122642
REMARK  7 active torsions:
REMARK  status: ('A' for Active; 'I' for Inactive)
REMARK    1  A    between atoms: C_2  and  C_10
REMARK    2  A    between atoms: C_3  and  O_18
REMARK    3  A    between atoms: O_18  and  C_19
REMARK    4  A    between atoms: C_19  and  C_20
REMARK    5  A    between atoms: C_20  and  N_21
REMARK    6  A    between atoms: C_20  and  C_25
REMARK    7  A    between atoms: C_25  and  C_27
REMARK                            x       y       z     vdW  Elec       q    Type
REMARK                         _______ _______ _______ _____ _____    ______ ____
ROOT
ATOM      1  N   UNL     1      33.367 -15.479 -26.792  0.00  0.00    -0.239 NA
ATOM      2  C   UNL     1      33.374 -14.125 -24.797  0.00  0.00    +0.022 C 
ATOM      3  C   UNL     1      34.011 -16.435 -24.667  0.00  0.00    +0.158 C 
ATOM      4  C   UNL     1      33.800 -15.209 -24.045  0.00  0.00    +0.040 C 
ATOM      5  C   UNL     1      33.174 -14.304 -26.152  0.00  0.00    +0.099 C 
ATOM      6  C   UNL     1      33.783 -16.516 -26.032  0.00  0.00    +0.136 C 
ENDROOT
BRANCH   2  10
ATOM      7  N   UNL     1      33.380  -8.515 -23.326  0.00  0.00    -0.280 N 
ATOM      8  N   UNL     1      32.556  -9.163 -22.479  0.00  0.00    -0.173 NA
ATOM      9  C   UNL     1      33.494 -10.561 -24.005  0.00  0.00    +0.032 A 
ATOM     10  C   UNL     1      33.146 -12.833 -24.176  0.00  0.00    +0.002 C 
ATOM     11  C   UNL     1      32.602 -10.447 -22.875  0.00  0.00    +0.102 A 
ATOM     12  C   UNL     1      33.817 -11.714 -24.708  0.00  0.00    +0.003 C 
ATOM     13  C   UNL     1      33.971  -9.308 -24.265  0.00  0.00    +0.053 A 
ATOM     14  C   UNL     1      32.255 -12.774 -23.059  0.00  0.00    +0.002 C 
ATOM     15  C   UNL     1      31.946 -11.583 -22.365  0.00  0.00    +0.021 C 
ATOM     16  C   UNL     1      34.901  -8.767 -25.271  0.00  0.00    +0.051 C 
ATOM     17  H   UNL     1      33.542  -7.547 -23.270  0.00  0.00    +0.189 HD
ENDBRANCH   2  10
BRANCH   3  18
ATOM     18  O   UNL     1      34.428 -17.515 -23.962  0.00  0.00    -0.476 OA
BRANCH  18  19
ATOM     19  C   UNL     1      35.463 -17.309 -22.998  0.00  0.00    +0.184 C 
BRANCH  19  20
ATOM     20  C   UNL     1      35.207 -18.166 -21.752  0.00  0.00    -0.017 C 
BRANCH  20  21
ATOM     21  N   UNL     1      34.915 -17.272 -20.629  0.00  0.00    +0.384 N 
ATOM     22  H   UNL     1      34.426 -17.790 -19.900  0.00  0.00    -0.089 HD
ATOM     23  H   UNL     1      34.327 -16.503 -20.950  0.00  0.00    -0.089 HD
ATOM     24  H   UNL     1      35.788 -16.899 -20.254  0.00  0.00    -0.089 HD
ENDBRANCH  20  21
BRANCH  20  25
ATOM     25  C   UNL     1      34.021 -19.139 -21.918  0.00  0.00    +0.008 C 
BRANCH  25  27
ATOM     26 BR   UNL     1      33.417 -23.256 -17.362  0.00  0.00    -0.049 Br
ATOM     27  C   UNL     1      33.872 -20.147 -20.804  0.00  0.00    -0.024 C 
ATOM     28  C   UNL     1      32.608 -20.445 -20.321  0.00  0.00    -0.004 C 
ATOM     29  C   UNL     1      35.003 -20.754 -20.285  0.00  0.00    -0.004 C 
ATOM     30  C   UNL     1      32.471 -21.375 -19.291  0.00  0.00    +0.006 C 
ATOM     31  C   UNL     1      34.867 -21.684 -19.255  0.00  0.00    +0.006 C 
ATOM     32  C   UNL     1      33.601 -21.996 -18.758  0.00  0.00    +0.035 C 
ENDBRANCH  25  27
ENDBRANCH  20  25
ENDBRANCH  19  20
ENDBRANCH  18  19
ENDBRANCH   3  18
TORSDOF 7
ENDMDL
MODEL 8
REMARK VINA RESULT:     -10.8      3.512      6.173
REMARK  Name = 16122642
REMARK  7 active torsions:
REMARK  status: ('A' for Active; 'I' for Inactive)
REMARK    1  A    between atoms: C_2  and  C_10
REMARK    2  A    between atoms: C_3  and  O_18
REMARK    3  A    between atoms: O_18  and  C_19
REMARK    4  A    between atoms: C_19  and  C_20
REMARK    5  A    between atoms: C_20  and  N_21
REMARK    6  A    between atoms: C_20  and  C_25
REMARK    7  A    between atoms: C_25  and  C_27
REMARK                            x       y       z     vdW  Elec       q    Type
REMARK                         _______ _______ _______ _____ _____    ______ ____
ROOT
ATOM      1  N   UNL     1      36.508 -19.338 -20.654  0.00  0.00    -0.239 NA
ATOM      2  C   UNL     1      34.807 -18.929 -22.313  0.00  0.00    +0.022 C 
ATOM      3  C   UNL     1      34.364 -20.445 -20.506  0.00  0.00    +0.158 C 
ATOM      4  C   UNL     1      33.945 -19.801 -21.666  0.00  0.00    +0.040 C 
ATOM      5  C   UNL     1      36.065 -18.730 -21.777  0.00  0.00    +0.099 C 
ATOM      6  C   UNL     1      35.644 -20.181 -20.046  0.00  0.00    +0.136 C 
ENDROOT
BRANCH   2  10
ATOM      7  N   UNL     1      33.157 -15.037 -26.284  0.00  0.00    -0.280 N 
ATOM      8  N   UNL     1      33.239 -16.237 -26.891  0.00  0.00    -0.173 NA
ATOM      9  C   UNL     1      33.774 -16.351 -24.686  0.00  0.00    +0.032 A 
ATOM     10  C   UNL     1      34.397 -18.242 -23.524  0.00  0.00    +0.002 C 
ATOM     11  C   UNL     1      33.624 -17.084 -25.920  0.00  0.00    +0.102 A 
ATOM     12  C   UNL     1      34.156 -16.856 -23.449  0.00  0.00    +0.003 C 
ATOM     13  C   UNL     1      33.468 -15.047 -24.955  0.00  0.00    +0.053 A 
ATOM     14  C   UNL     1      34.262 -19.013 -24.721  0.00  0.00    +0.002 C 
ATOM     15  C   UNL     1      33.872 -18.469 -25.964  0.00  0.00    +0.021 C 
ATOM     16  C   UNL     1      33.432 -13.825 -24.136  0.00  0.00    +0.051 C 
ATOM     17  H   UNL     1      32.893 -14.218 -26.760  0.00  0.00    +0.189 HD
ENDBRANCH   2  10
BRANCH   3  18
ATOM     18  O   UNL     1      33.547 -21.303 -19.849  0.00  0.00    -0.476 OA
BRANCH  18  19
ATOM     19  C   UNL     1      34.159 -22.241 -18.961  0.00  0.00    +0.184 C 
BRANCH  19  20
ATOM     20  C   UNL     1      33.287 -22.440 -17.715  0.00  0.00    -0.017 C 
BRANCH  20  21
ATOM     21  N   UNL     1      31.880 -22.372 -18.120  0.00  0.00    +0.384 N 
ATOM     22  H   UNL     1      31.824 -22.239 -19.129  0.00  0.00    -0.089 HD
ATOM     23  H   UNL     1      31.428 -21.590 -17.648  0.00  0.00    -0.089 HD
ATOM     24  H   UNL     1      31.410 -23.241 -17.865  0.00  0.00    -0.089 HD
ENDBRANCH  20  21
BRANCH  20  25
ATOM     25  C   UNL     1      33.525 -23.797 -17.018  0.00  0.00    +0.008 C 
BRANCH  25  27
ATOM     26 BR   UNL     1      36.671 -23.450 -11.721  0.00  0.00    -0.049 Br
ATOM     27  C   UNL     1      34.294 -23.713 -15.722  0.00  0.00    -0.024 C 
ATOM     28  C   UNL     1      33.690 -24.127 -14.545  0.00  0.00    -0.004 C 
ATOM     29  C   UNL     1      35.590 -23.223 -15.734  0.00  0.00    -0.004 C 
ATOM     30  C   UNL     1      34.401 -24.048 -13.348  0.00  0.00    +0.006 C 
ATOM     31  C   UNL     1      36.301 -23.144 -14.536  0.00  0.00    +0.006 C 
ATOM     32  C   UNL     1      35.707 -23.557 -13.344  0.00  0.00    +0.035 C 
ENDBRANCH  25  27
ENDBRANCH  20  25
ENDBRANCH  19  20
ENDBRANCH  18  19
ENDBRANCH   3  18
TORSDOF 7
ENDMDL
MODEL 9
REMARK VINA RESULT:     -10.8      1.436      2.110
REMARK  Name = 16122642
REMARK  7 active torsions:
REMARK  status: ('A' for Active; 'I' for Inactive)
REMARK    1  A    between atoms: C_2  and  C_10
REMARK    2  A    between atoms: C_3  and  O_18
REMARK    3  A    between atoms: O_18  and  C_19
REMARK    4  A    between atoms: C_19  and  C_20
REMARK    5  A    between atoms: C_20  and  N_21
REMARK    6  A    between atoms: C_20  and  C_25
REMARK    7  A    between atoms: C_25  and  C_27
REMARK                            x       y       z     vdW  Elec       q    Type
REMARK                         _______ _______ _______ _____ _____    ______ ____
ROOT
ATOM      1  N   UNL     1      32.992 -14.964 -27.705  0.00  0.00    -0.239 NA
ATOM      2  C   UNL     1      33.226 -13.571 -25.750  0.00  0.00    +0.022 C 
ATOM      3  C   UNL     1      33.116 -15.955 -25.504  0.00  0.00    +0.158 C 
ATOM      4  C   UNL     1      33.231 -14.692 -24.934  0.00  0.00    +0.040 C 
ATOM      5  C   UNL     1      33.107 -13.753 -27.115  0.00  0.00    +0.099 C 
ATOM      6  C   UNL     1      33.001 -16.036 -26.882  0.00  0.00    +0.136 C 
ENDROOT
BRANCH   2  10
ATOM      7  N   UNL     1      32.767  -8.770 -22.530  0.00  0.00    -0.280 N 
ATOM      8  N   UNL     1      33.626  -8.512 -23.535  0.00  0.00    -0.173 NA
ATOM      9  C   UNL     1      32.821 -10.634 -23.616  0.00  0.00    +0.032 A 
ATOM     10  C   UNL     1      33.345 -12.240 -25.185  0.00  0.00    +0.002 C 
ATOM     11  C   UNL     1      33.685  -9.658 -24.236  0.00  0.00    +0.102 A 
ATOM     12  C   UNL     1      32.598 -11.942 -24.028  0.00  0.00    +0.003 C 
ATOM     13  C   UNL     1      32.252 -10.033 -22.530  0.00  0.00    +0.053 A 
ATOM     14  C   UNL     1      34.213 -11.309 -25.836  0.00  0.00    +0.002 C 
ATOM     15  C   UNL     1      34.419  -9.984 -25.391  0.00  0.00    +0.021 C 
ATOM     16  C   UNL     1      31.298 -10.487 -21.503  0.00  0.00    +0.051 C 
ATOM     17  H   UNL     1      32.529  -8.099 -21.850  0.00  0.00    +0.189 HD
ENDBRANCH   2  10
BRANCH   3  18
ATOM     18  O   UNL     1      33.118 -17.071 -24.735  0.00  0.00    -0.476 OA
BRANCH  18  19
ATOM     19  C   UNL     1      34.274 -17.311 -23.929  0.00  0.00    +0.184 C 
BRANCH  19  20
ATOM     20  C   UNL     1      34.164 -18.673 -23.233  0.00  0.00    -0.017 C 
BRANCH  20  21
ATOM     21  N   UNL     1      34.639 -19.704 -24.160  0.00  0.00    +0.384 N 
ATOM     22  H   UNL     1      34.431 -20.626 -23.778  0.00  0.00    -0.089 HD
ATOM     23  H   UNL     1      35.646 -19.609 -24.287  0.00  0.00    -0.089 HD
ATOM     24  H   UNL     1      34.171 -19.595 -25.059  0.00  0.00    -0.089 HD
ENDBRANCH  20  21
BRANCH  20  25
ATOM     25  C   UNL     1      35.000 -18.763 -21.939  0.00  0.00    +0.008 C 
BRANCH  25  27
ATOM     26 BR   UNL     1      33.085 -23.047 -17.932  0.00  0.00    -0.049 Br
ATOM     27  C   UNL     1      34.533 -19.810 -20.958  0.00  0.00    -0.024 C 
ATOM     28  C   UNL     1      35.469 -20.584 -20.291  0.00  0.00    -0.004 C 
ATOM     29  C   UNL     1      33.175 -19.980 -20.744  0.00  0.00    -0.004 C 
ATOM     30  C   UNL     1      35.036 -21.553 -19.386  0.00  0.00    +0.006 C 
ATOM     31  C   UNL     1      32.741 -20.948 -19.838  0.00  0.00    +0.006 C 
ATOM     32  C   UNL     1      33.672 -21.734 -19.159  0.00  0.00    +0.035 C 
ENDBRANCH  25  27
ENDBRANCH  20  25
ENDBRANCH  19  20
ENDBRANCH  18  19
ENDBRANCH   3  18
TORSDOF 7
ENDMDL
