MODEL 1
REMARK VINA RESULT:     -13.7      0.000      0.000
REMARK  Name = 4369496
REMARK  6 active torsions:
REMARK  status: ('A' for Active; 'I' for Inactive)
REMARK    1  A    between atoms: N_2  and  C_21
REMARK    2  A    between atoms: C_3  and  C_10
REMARK    3  A    between atoms: C_5  and  C_11
REMARK    4  A    between atoms: C_11  and  N_12
REMARK    5  A    between atoms: C_23  and  N_27
REMARK    6  A    between atoms: C_31  and  C_36
REMARK                            x       y       z     vdW  Elec       q    Type
REMARK                         _______ _______ _______ _____ _____    ______ ____
ROOT
ATOM      1  O   UNL     1      32.148 -20.762 -20.675  0.00  0.00    -0.270 OA
ATOM      2  N   UNL     1      34.350 -19.988 -20.446  0.00  0.00    -0.280 N 
ATOM      3  C   UNL     1      33.245 -20.776 -20.095  0.00  0.00    +0.249 C 
ATOM      4  H   UNL     1      35.154 -20.109 -19.891  0.00  0.00    +0.155 HD
ENDROOT
BRANCH   3  10
ATOM      5  C   UNL     1      33.766 -23.304 -16.745  0.00  0.00    -0.043 C 
ATOM      6  C   UNL     1      34.878 -22.751 -17.363  0.00  0.00    -0.006 C 
ATOM      7  C   UNL     1      32.485 -23.040 -17.208  0.00  0.00    -0.006 C 
ATOM      8  C   UNL     1      34.706 -21.917 -18.467  0.00  0.00    +0.004 C 
ATOM      9  C   UNL     1      32.313 -22.206 -18.312  0.00  0.00    +0.004 C 
ATOM     10  C   UNL     1      33.424 -21.644 -18.942  0.00  0.00    +0.054 C 
BRANCH   5  11
ATOM     11  C   UNL     1      33.951 -24.204 -15.551  0.00  0.00    -0.050 C 
BRANCH  11  12
ATOM     12  N   UNL     1      35.363 -24.488 -15.297  0.00  0.00    +0.387 N 
ATOM     13  N   UNL     1      37.526 -25.601 -13.736  0.00  0.00    +0.383 N 
ATOM     14  C   UNL     1      35.604 -25.935 -15.253  0.00  0.00    -0.100 C 
ATOM     15  C   UNL     1      35.804 -23.856 -14.048  0.00  0.00    -0.100 C 
ATOM     16  C   UNL     1      37.083 -26.233 -14.984  0.00  0.00    -0.101 C 
ATOM     17  C   UNL     1      37.284 -24.153 -13.779  0.00  0.00    -0.101 C 
ATOM     18  C   UNL     1      38.937 -25.884 -13.483  0.00  0.00    -0.101 C 
ATOM     19  H   UNL     1      35.906 -24.096 -16.066  0.00  0.00    -0.079 HD
ATOM     20  H   UNL     1      36.984 -25.995 -12.966  0.00  0.00    -0.080 HD
ENDBRANCH  11  12
ENDBRANCH   5  11
ENDBRANCH   3  10
BRANCH   2  21
ATOM     21  C   UNL     1      34.462 -19.042 -21.494  0.00  0.00    +0.052 C 
ATOM     22  C   UNL     1      33.697 -19.205 -22.636  0.00  0.00    +0.030 C 
ATOM     23  C   UNL     1      33.809 -18.274 -23.669  0.00  0.00    +0.059 C 
ATOM     24  C   UNL     1      35.336 -17.978 -21.352  0.00  0.00    +0.015 C 
ATOM     25  C   UNL     1      34.684 -17.195 -23.543  0.00  0.00    +0.015 C 
ATOM     26  C   UNL     1      35.447 -17.047 -22.385  0.00  0.00    +0.003 C 
BRANCH  23  27
ATOM     27  N   UNL     1      33.036 -18.422 -24.840  0.00  0.00    -0.247 N 
ATOM     28  N   UNL     1      33.013 -16.231 -25.678  0.00  0.00    -0.337 NA
ATOM     29  N   UNL     1      31.869 -18.010 -26.833  0.00  0.00    -0.170 NA
ATOM     30  C   UNL     1      32.620 -17.511 -25.829  0.00  0.00    +0.149 C 
ATOM     31  C   UNL     1      32.596 -15.386 -26.644  0.00  0.00    +0.147 C 
ATOM     32  C   UNL     1      31.825 -15.774 -27.721  0.00  0.00    +0.055 C 
ATOM     33  C   UNL     1      31.488 -17.110 -27.764  0.00  0.00    +0.114 C 
ATOM     34  H   UNL     1      32.725 -19.344 -24.994  0.00  0.00    +0.165 HD
BRANCH  31  36
ATOM     35  N   UNL     1      33.426 -12.139 -25.014  0.00  0.00    -0.242 NA
ATOM     36  C   UNL     1      33.018 -14.015 -26.483  0.00  0.00    +0.050 C 
ATOM     37  C   UNL     1      33.413 -13.252 -27.578  0.00  0.00    +0.006 C 
ATOM     38  C   UNL     1      33.042 -13.416 -25.234  0.00  0.00    +0.101 C 
ATOM     39  C   UNL     1      33.814 -11.934 -27.391  0.00  0.00    +0.021 C 
ATOM     40  C   UNL     1      33.803 -11.430 -26.101  0.00  0.00    +0.099 C 
ENDBRANCH  31  36
ENDBRANCH  23  27
ENDBRANCH   2  21
TORSDOF 6
ENDMDL
MODEL 2
REMARK VINA RESULT:     -13.6      2.227     12.942
REMARK  Name = 4369496
REMARK  6 active torsions:
REMARK  status: ('A' for Active; 'I' for Inactive)
REMARK    1  A    between atoms: N_2  and  C_21
REMARK    2  A    between atoms: C_3  and  C_10
REMARK    3  A    between atoms: C_5  and  C_11
REMARK    4  A    between atoms: C_11  and  N_12
REMARK    5  A    between atoms: C_23  and  N_27
REMARK    6  A    between atoms: C_31  and  C_36
REMARK                            x       y       z     vdW  Elec       q    Type
REMARK                         _______ _______ _______ _____ _____    ______ ____
ROOT
ATOM      1  O   UNL     1      35.650 -17.917 -20.696  0.00  0.00    -0.270 OA
ATOM      2  N   UNL     1      34.247 -19.630 -21.470  0.00  0.00    -0.280 N 
ATOM      3  C   UNL     1      34.898 -18.392 -21.562  0.00  0.00    +0.249 C 
ATOM      4  H   UNL     1      33.681 -19.872 -22.238  0.00  0.00    +0.155 HD
ENDROOT
BRANCH   3  10
ATOM      5  C   UNL     1      34.119 -16.147 -25.061  0.00  0.00    -0.043 C 
ATOM      6  C   UNL     1      34.180 -17.531 -25.137  0.00  0.00    -0.006 C 
ATOM      7  C   UNL     1      34.309 -15.488 -23.855  0.00  0.00    -0.006 C 
ATOM      8  C   UNL     1      34.436 -18.271 -23.983  0.00  0.00    +0.004 C 
ATOM      9  C   UNL     1      34.565 -16.228 -22.701  0.00  0.00    +0.004 C 
ATOM     10  C   UNL     1      34.629 -17.620 -22.764  0.00  0.00    +0.054 C 
BRANCH   5  11
ATOM     11  C   UNL     1      33.841 -15.347 -26.306  0.00  0.00    -0.050 C 
BRANCH  11  12
ATOM     12  N   UNL     1      32.407 -15.214 -26.559  0.00  0.00    +0.387 N 
ATOM     13  N   UNL     1      30.107 -15.000 -28.297  0.00  0.00    +0.383 N 
ATOM     14  C   UNL     1      31.898 -16.377 -27.296  0.00  0.00    -0.100 C 
ATOM     15  C   UNL     1      32.120 -13.977 -27.294  0.00  0.00    -0.100 C 
ATOM     16  C   UNL     1      30.396 -16.238 -27.564  0.00  0.00    -0.101 C 
ATOM     17  C   UNL     1      30.618 -13.836 -27.561  0.00  0.00    -0.101 C 
ATOM     18  C   UNL     1      28.674 -14.867 -28.548  0.00  0.00    -0.101 C 
ATOM     19  H   UNL     1      31.931 -15.172 -25.659  0.00  0.00    -0.079 HD
ATOM     20  H   UNL     1      30.582 -15.043 -29.200  0.00  0.00    -0.080 HD
ENDBRANCH  11  12
ENDBRANCH   5  11
ENDBRANCH   3  10
BRANCH   2  21
ATOM     21  C   UNL     1      34.297 -20.578 -20.419  0.00  0.00    +0.052 C 
ATOM     22  C   UNL     1      33.120 -20.962 -19.799  0.00  0.00    +0.030 C 
ATOM     23  C   UNL     1      33.170 -21.895 -18.762  0.00  0.00    +0.059 C 
ATOM     24  C   UNL     1      35.521 -21.097 -20.035  0.00  0.00    +0.015 C 
ATOM     25  C   UNL     1      34.395 -22.428 -18.362  0.00  0.00    +0.015 C 
ATOM     26  C   UNL     1      35.571 -22.029 -18.998  0.00  0.00    +0.003 C 
BRANCH  23  27
ATOM     27  N   UNL     1      31.981 -22.299 -18.120  0.00  0.00    -0.247 N 
ATOM     28  N   UNL     1      32.809 -23.276 -16.153  0.00  0.00    -0.337 NA
ATOM     29  N   UNL     1      30.441 -23.190 -16.591  0.00  0.00    -0.170 NA
ATOM     30  C   UNL     1      31.733 -22.953 -16.897  0.00  0.00    +0.149 C 
ATOM     31  C   UNL     1      32.534 -23.900 -14.989  0.00  0.00    +0.147 C 
ATOM     32  C   UNL     1      31.256 -24.199 -14.563  0.00  0.00    +0.055 C 
ATOM     33  C   UNL     1      30.239 -23.817 -15.413  0.00  0.00    +0.114 C 
ATOM     34  H   UNL     1      31.165 -22.083 -18.627  0.00  0.00    +0.165 HD
BRANCH  31  36
ATOM     35  N   UNL     1      34.686 -24.490 -12.004  0.00  0.00    -0.242 NA
ATOM     36  C   UNL     1      33.686 -24.245 -14.192  0.00  0.00    +0.050 C 
ATOM     37  C   UNL     1      34.875 -24.654 -14.788  0.00  0.00    +0.006 C 
ATOM     38  C   UNL     1      33.644 -24.180 -12.808  0.00  0.00    +0.101 C 
ATOM     39  C   UNL     1      35.968 -24.981 -13.993  0.00  0.00    +0.021 C 
ATOM     40  C   UNL     1      35.823 -24.883 -12.619  0.00  0.00    +0.099 C 
ENDBRANCH  31  36
ENDBRANCH  23  27
ENDBRANCH   2  21
TORSDOF 6
ENDMDL
MODEL 3
REMARK VINA RESULT:     -13.5      1.964     12.879
REMARK  Name = 4369496
REMARK  6 active torsions:
REMARK  status: ('A' for Active; 'I' for Inactive)
REMARK    1  A    between atoms: N_2  and  C_21
REMARK    2  A    between atoms: C_3  and  C_10
REMARK    3  A    between atoms: C_5  and  C_11
REMARK    4  A    between atoms: C_11  and  N_12
REMARK    5  A    between atoms: C_23  and  N_27
REMARK    6  A    between atoms: C_31  and  C_36
REMARK                            x       y       z     vdW  Elec       q    Type
REMARK                         _______ _______ _______ _____ _____    ______ ____
ROOT
ATOM      1  O   UNL     1      34.924 -19.984 -24.026  0.00  0.00    -0.270 OA
ATOM      2  N   UNL     1      33.833 -19.054 -22.170  0.00  0.00    -0.280 N 
ATOM      3  C   UNL     1      34.233 -19.090 -23.513  0.00  0.00    +0.249 C 
ATOM      4  H   UNL     1      33.286 -18.279 -21.908  0.00  0.00    +0.155 HD
ENDROOT
BRANCH   3  10
ATOM      5  C   UNL     1      33.005 -15.820 -25.898  0.00  0.00    -0.043 C 
ATOM      6  C   UNL     1      32.656 -17.109 -26.275  0.00  0.00    -0.006 C 
ATOM      7  C   UNL     1      33.750 -15.586 -24.751  0.00  0.00    -0.006 C 
ATOM      8  C   UNL     1      33.060 -18.187 -25.487  0.00  0.00    +0.004 C 
ATOM      9  C   UNL     1      34.154 -16.665 -23.964  0.00  0.00    +0.004 C 
ATOM     10  C   UNL     1      33.810 -17.966 -24.332  0.00  0.00    +0.054 C 
BRANCH   5  11
ATOM     11  C   UNL     1      32.567 -14.655 -26.747  0.00  0.00    -0.050 C 
BRANCH  11  12
ATOM     12  N   UNL     1      33.306 -13.437 -26.421  0.00  0.00    +0.387 N 
ATOM     13  N   UNL     1      33.650 -10.567 -26.379  0.00  0.00    +0.383 N 
ATOM     14  C   UNL     1      32.534 -12.590 -25.503  0.00  0.00    -0.100 C 
ATOM     15  C   UNL     1      33.647 -12.693 -27.639  0.00  0.00    -0.100 C 
ATOM     16  C   UNL     1      33.307 -11.311 -25.162  0.00  0.00    -0.101 C 
ATOM     17  C   UNL     1      34.420 -11.414 -27.299  0.00  0.00    -0.101 C 
ATOM     18  C   UNL     1      34.389  -9.349 -26.052  0.00  0.00    -0.101 C 
ATOM     19  H   UNL     1      34.171 -13.708 -25.956  0.00  0.00    -0.079 HD
ATOM     20  H   UNL     1      32.783 -10.293 -26.844  0.00  0.00    -0.080 HD
ENDBRANCH  11  12
ENDBRANCH   5  11
ENDBRANCH   3  10
BRANCH   2  21
ATOM     21  C   UNL     1      34.113 -19.985 -21.141  0.00  0.00    +0.052 C 
ATOM     22  C   UNL     1      33.064 -20.547 -20.433  0.00  0.00    +0.030 C 
ATOM     23  C   UNL     1      33.340 -21.463 -19.418  0.00  0.00    +0.059 C 
ATOM     24  C   UNL     1      35.430 -20.313 -20.866  0.00  0.00    +0.015 C 
ATOM     25  C   UNL     1      34.661 -21.805 -19.128  0.00  0.00    +0.015 C 
ATOM     26  C   UNL     1      35.706 -21.230 -19.851  0.00  0.00    +0.003 C 
BRANCH  23  27
ATOM     27  N   UNL     1      32.284 -22.046 -18.687  0.00  0.00    -0.247 N 
ATOM     28  N   UNL     1      33.392 -22.794 -16.759  0.00  0.00    -0.337 NA
ATOM     29  N   UNL     1      31.023 -23.138 -17.037  0.00  0.00    -0.170 NA
ATOM     30  C   UNL     1      32.231 -22.690 -17.436  0.00  0.00    +0.149 C 
ATOM     31  C   UNL     1      33.304 -23.415 -15.564  0.00  0.00    +0.147 C 
ATOM     32  C   UNL     1      32.128 -23.917 -15.046  0.00  0.00    +0.055 C 
ATOM     33  C   UNL     1      31.009 -23.749 -15.834  0.00  0.00    +0.114 C 
ATOM     34  H   UNL     1      31.412 -21.994 -19.143  0.00  0.00    +0.165 HD
BRANCH  31  36
ATOM     35  N   UNL     1      36.930 -23.127 -14.751  0.00  0.00    -0.242 NA
ATOM     36  C   UNL     1      34.547 -23.526 -14.839  0.00  0.00    +0.050 C 
ATOM     37  C   UNL     1      34.591 -24.108 -13.576  0.00  0.00    +0.006 C 
ATOM     38  C   UNL     1      35.734 -23.056 -15.377  0.00  0.00    +0.101 C 
ATOM     39  C   UNL     1      35.804 -24.201 -12.902  0.00  0.00    +0.021 C 
ATOM     40  C   UNL     1      36.934 -23.700 -13.527  0.00  0.00    +0.099 C 
ENDBRANCH  31  36
ENDBRANCH  23  27
ENDBRANCH   2  21
TORSDOF 6
ENDMDL
MODEL 4
REMARK VINA RESULT:     -13.5      2.368     12.577
REMARK  Name = 4369496
REMARK  6 active torsions:
REMARK  status: ('A' for Active; 'I' for Inactive)
REMARK    1  A    between atoms: N_2  and  C_21
REMARK    2  A    between atoms: C_3  and  C_10
REMARK    3  A    between atoms: C_5  and  C_11
REMARK    4  A    between atoms: C_11  and  N_12
REMARK    5  A    between atoms: C_23  and  N_27
REMARK    6  A    between atoms: C_31  and  C_36
REMARK                            x       y       z     vdW  Elec       q    Type
REMARK                         _______ _______ _______ _____ _____    ______ ____
ROOT
ATOM      1  O   UNL     1      35.334 -19.072 -23.620  0.00  0.00    -0.270 OA
ATOM      2  N   UNL     1      34.194 -18.603 -21.624  0.00  0.00    -0.280 N 
ATOM      3  C   UNL     1      34.647 -18.312 -22.918  0.00  0.00    +0.249 C 
ATOM      4  H   UNL     1      33.658 -17.901 -21.191  0.00  0.00    +0.155 HD
ENDROOT
BRANCH   3  10
ATOM      5  C   UNL     1      33.602 -14.500 -24.424  0.00  0.00    -0.043 C 
ATOM      6  C   UNL     1      34.244 -14.598 -23.199  0.00  0.00    -0.006 C 
ATOM      7  C   UNL     1      33.297 -15.634 -25.164  0.00  0.00    -0.006 C 
ATOM      8  C   UNL     1      34.590 -15.855 -22.702  0.00  0.00    +0.004 C 
ATOM      9  C   UNL     1      33.643 -16.891 -24.668  0.00  0.00    +0.004 C 
ATOM     10  C   UNL     1      34.289 -17.002 -23.437  0.00  0.00    +0.054 C 
BRANCH   5  11
ATOM     11  C   UNL     1      33.230 -13.144 -24.961  0.00  0.00    -0.050 C 
BRANCH  11  12
ATOM     12  N   UNL     1      33.119 -12.148 -23.896  0.00  0.00    +0.387 N 
ATOM     13  N   UNL     1      31.789  -9.977 -22.527  0.00  0.00    +0.383 N 
ATOM     14  C   UNL     1      31.916 -12.381 -23.089  0.00  0.00    -0.100 C 
ATOM     15  C   UNL     1      33.109 -10.790 -24.452  0.00  0.00    -0.100 C 
ATOM     16  C   UNL     1      31.798 -11.337 -21.973  0.00  0.00    -0.101 C 
ATOM     17  C   UNL     1      32.992  -9.745 -23.337  0.00  0.00    -0.101 C 
ATOM     18  C   UNL     1      31.680  -8.983 -21.462  0.00  0.00    -0.101 C 
ATOM     19  H   UNL     1      33.935 -12.243 -23.292  0.00  0.00    -0.079 HD
ATOM     20  H   UNL     1      30.971  -9.882 -23.132  0.00  0.00    -0.080 HD
ENDBRANCH  11  12
ENDBRANCH   5  11
ENDBRANCH   3  10
BRANCH   2  21
ATOM     21  C   UNL     1      34.406 -19.776 -20.858  0.00  0.00    +0.052 C 
ATOM     22  C   UNL     1      33.334 -20.358 -20.203  0.00  0.00    +0.030 C 
ATOM     23  C   UNL     1      33.544 -21.512 -19.446  0.00  0.00    +0.059 C 
ATOM     24  C   UNL     1      35.680 -20.312 -20.783  0.00  0.00    +0.015 C 
ATOM     25  C   UNL     1      34.821 -22.066 -19.359  0.00  0.00    +0.015 C 
ATOM     26  C   UNL     1      35.889 -21.466 -20.027  0.00  0.00    +0.003 C 
BRANCH  23  27
ATOM     27  N   UNL     1      32.464 -22.119 -18.773  0.00  0.00    -0.247 N 
ATOM     28  N   UNL     1      33.481 -22.828 -16.781  0.00  0.00    -0.337 NA
ATOM     29  N   UNL     1      31.142 -23.236 -17.189  0.00  0.00    -0.170 NA
ATOM     30  C   UNL     1      32.358 -22.758 -17.522  0.00  0.00    +0.149 C 
ATOM     31  C   UNL     1      33.343 -23.446 -15.589  0.00  0.00    +0.147 C 
ATOM     32  C   UNL     1      32.153 -23.976 -15.135  0.00  0.00    +0.055 C 
ATOM     33  C   UNL     1      31.076 -23.842 -15.985  0.00  0.00    +0.114 C 
ATOM     34  H   UNL     1      31.618 -22.092 -19.277  0.00  0.00    +0.165 HD
BRANCH  31  36
ATOM     35  N   UNL     1      36.927 -23.142 -14.611  0.00  0.00    -0.242 NA
ATOM     36  C   UNL     1      34.545 -23.521 -14.795  0.00  0.00    +0.050 C 
ATOM     37  C   UNL     1      34.517 -24.017 -13.495  0.00  0.00    +0.006 C 
ATOM     38  C   UNL     1      35.765 -23.101 -15.301  0.00  0.00    +0.101 C 
ATOM     39  C   UNL     1      35.693 -24.076 -12.754  0.00  0.00    +0.021 C 
ATOM     40  C   UNL     1      36.860 -23.630 -13.352  0.00  0.00    +0.099 C 
ENDBRANCH  31  36
ENDBRANCH  23  27
ENDBRANCH   2  21
TORSDOF 6
ENDMDL
MODEL 5
REMARK VINA RESULT:     -13.4      2.332      5.238
REMARK  Name = 4369496
REMARK  6 active torsions:
REMARK  status: ('A' for Active; 'I' for Inactive)
REMARK    1  A    between atoms: N_2  and  C_21
REMARK    2  A    between atoms: C_3  and  C_10
REMARK    3  A    between atoms: C_5  and  C_11
REMARK    4  A    between atoms: C_11  and  N_12
REMARK    5  A    between atoms: C_23  and  N_27
REMARK    6  A    between atoms: C_31  and  C_36
REMARK                            x       y       z     vdW  Elec       q    Type
REMARK                         _______ _______ _______ _____ _____    ______ ____
ROOT
ATOM      1  O   UNL     1      34.327 -16.289 -22.959  0.00  0.00    -0.270 OA
ATOM      2  N   UNL     1      33.536 -18.016 -24.334  0.00  0.00    -0.280 N 
ATOM      3  C   UNL     1      34.170 -17.497 -23.197  0.00  0.00    +0.249 C 
ATOM      4  H   UNL     1      33.486 -18.997 -24.385  0.00  0.00    +0.155 HD
ENDROOT
BRANCH   3  10
ATOM      5  C   UNL     1      35.693 -20.345 -20.466  0.00  0.00    -0.043 C 
ATOM      6  C   UNL     1      34.342 -20.354 -20.780  0.00  0.00    -0.006 C 
ATOM      7  C   UNL     1      36.553 -19.416 -21.034  0.00  0.00    -0.006 C 
ATOM      8  C   UNL     1      33.839 -19.415 -21.681  0.00  0.00    +0.004 C 
ATOM      9  C   UNL     1      36.051 -18.477 -21.936  0.00  0.00    +0.004 C 
ATOM     10  C   UNL     1      34.694 -18.476 -22.259  0.00  0.00    +0.054 C 
BRANCH   5  11
ATOM     11  C   UNL     1      36.236 -21.359 -19.494  0.00  0.00    -0.050 C 
BRANCH  11  12
ATOM     12  N   UNL     1      35.295 -21.631 -18.409  0.00  0.00    +0.387 N 
ATOM     13  N   UNL     1      33.973 -23.378 -16.522  0.00  0.00    +0.383 N 
ATOM     14  C   UNL     1      35.997 -22.145 -17.227  0.00  0.00    -0.100 C 
ATOM     15  C   UNL     1      34.259 -22.576 -18.842  0.00  0.00    -0.100 C 
ATOM     16  C   UNL     1      35.011 -22.433 -16.090  0.00  0.00    -0.101 C 
ATOM     17  C   UNL     1      33.272 -22.864 -17.705  0.00  0.00    -0.101 C 
ATOM     18  C   UNL     1      33.033 -23.648 -15.437  0.00  0.00    -0.101 C 
ATOM     19  H   UNL     1      34.843 -20.752 -18.156  0.00  0.00    -0.079 HD
ATOM     20  H   UNL     1      34.426 -24.258 -16.773  0.00  0.00    -0.080 HD
ENDBRANCH  11  12
ENDBRANCH   5  11
ENDBRANCH   3  10
BRANCH   2  21
ATOM     21  C   UNL     1      32.956 -17.314 -25.419  0.00  0.00    +0.052 C 
ATOM     22  C   UNL     1      33.396 -16.033 -25.708  0.00  0.00    +0.030 C 
ATOM     23  C   UNL     1      32.824 -15.341 -26.776  0.00  0.00    +0.059 C 
ATOM     24  C   UNL     1      31.964 -17.924 -26.166  0.00  0.00    +0.015 C 
ATOM     25  C   UNL     1      31.822 -15.941 -27.539  0.00  0.00    +0.015 C 
ATOM     26  C   UNL     1      31.392 -17.232 -27.234  0.00  0.00    +0.003 C 
BRANCH  23  27
ATOM     27  N   UNL     1      33.260 -14.035 -27.085  0.00  0.00    -0.247 N 
ATOM     28  N   UNL     1      32.870 -12.910 -25.063  0.00  0.00    -0.337 NA
ATOM     29  N   UNL     1      33.798 -11.755 -26.963  0.00  0.00    -0.170 NA
ATOM     30  C   UNL     1      33.311 -12.845 -26.335  0.00  0.00    +0.149 C 
ATOM     31  C   UNL     1      32.934 -11.752 -24.374  0.00  0.00    +0.147 C 
ATOM     32  C   UNL     1      33.411 -10.571 -24.904  0.00  0.00    +0.055 C 
ATOM     33  C   UNL     1      33.833 -10.632 -26.216  0.00  0.00    +0.114 C 
ATOM     34  H   UNL     1      33.593 -13.938 -28.006  0.00  0.00    +0.165 HD
BRANCH  31  36
ATOM     35  N   UNL     1      31.429 -10.719 -21.125  0.00  0.00    -0.242 NA
ATOM     36  C   UNL     1      32.462 -11.822 -23.012  0.00  0.00    +0.050 C 
ATOM     37  C   UNL     1      32.566 -12.998 -22.276  0.00  0.00    +0.006 C 
ATOM     38  C   UNL     1      31.891 -10.720 -22.395  0.00  0.00    +0.101 C 
ATOM     39  C   UNL     1      32.102 -13.034 -20.966  0.00  0.00    +0.021 C 
ATOM     40  C   UNL     1      31.547 -11.879 -20.442  0.00  0.00    +0.099 C 
ENDBRANCH  31  36
ENDBRANCH  23  27
ENDBRANCH   2  21
TORSDOF 6
ENDMDL
MODEL 6
REMARK VINA RESULT:     -12.8      3.315      7.421
REMARK  Name = 4369496
REMARK  6 active torsions:
REMARK  status: ('A' for Active; 'I' for Inactive)
REMARK    1  A    between atoms: N_2  and  C_21
REMARK    2  A    between atoms: C_3  and  C_10
REMARK    3  A    between atoms: C_5  and  C_11
REMARK    4  A    between atoms: C_11  and  N_12
REMARK    5  A    between atoms: C_23  and  N_27
REMARK    6  A    between atoms: C_31  and  C_36
REMARK                            x       y       z     vdW  Elec       q    Type
REMARK                         _______ _______ _______ _____ _____    ______ ____
ROOT
ATOM      1  O   UNL     1      33.509 -13.933 -22.790  0.00  0.00    -0.270 OA
ATOM      2  N   UNL     1      33.635 -14.970 -24.891  0.00  0.00    -0.280 N 
ATOM      3  C   UNL     1      33.817 -14.902 -23.502  0.00  0.00    +0.249 C 
ATOM      4  H   UNL     1      33.928 -15.805 -25.319  0.00  0.00    +0.155 HD
ENDROOT
BRANCH   3  10
ATOM      5  C   UNL     1      35.629 -18.276 -21.708  0.00  0.00    -0.043 C 
ATOM      6  C   UNL     1      35.174 -17.239 -20.908  0.00  0.00    -0.006 C 
ATOM      7  C   UNL     1      35.499 -18.224 -23.089  0.00  0.00    -0.006 C 
ATOM      8  C   UNL     1      34.575 -16.127 -21.499  0.00  0.00    +0.004 C 
ATOM      9  C   UNL     1      34.901 -17.112 -23.680  0.00  0.00    +0.004 C 
ATOM     10  C   UNL     1      34.439 -16.063 -22.886  0.00  0.00    +0.054 C 
BRANCH   5  11
ATOM     11  C   UNL     1      36.275 -19.478 -21.070  0.00  0.00    -0.050 C 
BRANCH  11  12
ATOM     12  N   UNL     1      35.400 -20.103 -20.080  0.00  0.00    +0.387 N 
ATOM     13  N   UNL     1      33.873 -22.321 -19.025  0.00  0.00    +0.383 N 
ATOM     14  C   UNL     1      36.061 -21.254 -19.454  0.00  0.00    -0.100 C 
ATOM     15  C   UNL     1      34.130 -20.512 -20.690  0.00  0.00    -0.100 C 
ATOM     16  C   UNL     1      35.145 -21.912 -18.416  0.00  0.00    -0.101 C 
ATOM     17  C   UNL     1      33.212 -21.170 -19.654  0.00  0.00    -0.101 C 
ATOM     18  C   UNL     1      32.999 -22.944 -18.034  0.00  0.00    -0.101 C 
ATOM     19  H   UNL     1      35.202 -19.414 -19.355  0.00  0.00    -0.079 HD
ATOM     20  H   UNL     1      34.071 -23.012 -19.750  0.00  0.00    -0.080 HD
ENDBRANCH  11  12
ENDBRANCH   5  11
ENDBRANCH   3  10
BRANCH   2  21
ATOM     21  C   UNL     1      33.084 -13.994 -25.757  0.00  0.00    +0.052 C 
ATOM     22  C   UNL     1      33.457 -12.669 -25.607  0.00  0.00    +0.030 C 
ATOM     23  C   UNL     1      32.913 -11.708 -26.459  0.00  0.00    +0.059 C 
ATOM     24  C   UNL     1      32.186 -14.388 -26.734  0.00  0.00    +0.015 C 
ATOM     25  C   UNL     1      32.006 -12.087 -27.449  0.00  0.00    +0.015 C 
ATOM     26  C   UNL     1      31.643 -13.426 -27.587  0.00  0.00    +0.003 C 
BRANCH  23  27
ATOM     27  N   UNL     1      33.282 -10.353 -26.321  0.00  0.00    -0.247 N 
ATOM     28  N   UNL     1      32.580  -9.888 -24.131  0.00  0.00    -0.337 NA
ATOM     29  N   UNL     1      33.628  -8.190 -25.482  0.00  0.00    -0.170 NA
ATOM     30  C   UNL     1      33.157  -9.434 -25.262  0.00  0.00    +0.149 C 
ATOM     31  C   UNL     1      32.477  -8.981 -23.138  0.00  0.00    +0.147 C 
ATOM     32  C   UNL     1      32.921  -7.679 -23.240  0.00  0.00    +0.055 C 
ATOM     33  C   UNL     1      33.493  -7.335 -24.447  0.00  0.00    +0.114 C 
ATOM     34  H   UNL     1      33.710  -9.977 -27.124  0.00  0.00    +0.165 HD
BRANCH  31  36
ATOM     35  N   UNL     1      31.228  -9.067 -19.627  0.00  0.00    -0.242 NA
ATOM     36  C   UNL     1      31.860  -9.466 -21.927  0.00  0.00    +0.050 C 
ATOM     37  C   UNL     1      31.313 -10.744 -21.862  0.00  0.00    +0.006 C 
ATOM     38  C   UNL     1      31.792  -8.675 -20.791  0.00  0.00    +0.101 C 
ATOM     39  C   UNL     1      30.725 -11.183 -20.681  0.00  0.00    +0.021 C 
ATOM     40  C   UNL     1      30.708 -10.314 -19.603  0.00  0.00    +0.099 C 
ENDBRANCH  31  36
ENDBRANCH  23  27
ENDBRANCH   2  21
TORSDOF 6
ENDMDL
MODEL 7
REMARK VINA RESULT:     -12.0      2.205     12.885
REMARK  Name = 4369496
REMARK  6 active torsions:
REMARK  status: ('A' for Active; 'I' for Inactive)
REMARK    1  A    between atoms: N_2  and  C_21
REMARK    2  A    between atoms: C_3  and  C_10
REMARK    3  A    between atoms: C_5  and  C_11
REMARK    4  A    between atoms: C_11  and  N_12
REMARK    5  A    between atoms: C_23  and  N_27
REMARK    6  A    between atoms: C_31  and  C_36
REMARK                            x       y       z     vdW  Elec       q    Type
REMARK                         _______ _______ _______ _____ _____    ______ ____
ROOT
ATOM      1  O   UNL     1      34.730 -19.811 -23.924  0.00  0.00    -0.270 OA
ATOM      2  N   UNL     1      33.378 -18.831 -22.278  0.00  0.00    -0.280 N 
ATOM      3  C   UNL     1      34.022 -18.874 -23.522  0.00  0.00    +0.249 C 
ATOM      4  H   UNL     1      32.849 -18.020 -22.099  0.00  0.00    +0.155 HD
ENDROOT
BRANCH   3  10
ATOM      5  C   UNL     1      33.507 -15.475 -25.986  0.00  0.00    -0.043 C 
ATOM      6  C   UNL     1      34.156 -15.343 -24.767  0.00  0.00    -0.006 C 
ATOM      7  C   UNL     1      33.024 -16.705 -26.410  0.00  0.00    -0.006 C 
ATOM      8  C   UNL     1      34.327 -16.464 -23.955  0.00  0.00    +0.004 C 
ATOM      9  C   UNL     1      33.195 -17.826 -25.598  0.00  0.00    +0.004 C 
ATOM     10  C   UNL     1      33.846 -17.706 -24.370  0.00  0.00    +0.054 C 
BRANCH   5  11
ATOM     11  C   UNL     1      33.323 -14.265 -26.864  0.00  0.00    -0.050 C 
BRANCH  11  12
ATOM     12  N   UNL     1      33.679 -13.030 -26.169  0.00  0.00    +0.387 N 
ATOM     13  N   UNL     1      33.206 -10.286 -25.387  0.00  0.00    +0.383 N 
ATOM     14  C   UNL     1      32.666 -12.688 -25.163  0.00  0.00    -0.100 C 
ATOM     15  C   UNL     1      33.848 -11.926 -27.121  0.00  0.00    -0.100 C 
ATOM     16  C   UNL     1      33.036 -11.391 -24.435  0.00  0.00    -0.101 C 
ATOM     17  C   UNL     1      34.219 -10.629 -26.394  0.00  0.00    -0.101 C 
ATOM     18  C   UNL     1      33.563  -9.052 -24.691  0.00  0.00    -0.101 C 
ATOM     19  H   UNL     1      34.566 -13.181 -25.691  0.00  0.00    -0.079 HD
ATOM     20  H   UNL     1      32.317 -10.133 -25.864  0.00  0.00    -0.080 HD
ENDBRANCH  11  12
ENDBRANCH   5  11
ENDBRANCH   3  10
BRANCH   2  21
ATOM     21  C   UNL     1      33.387 -19.799 -21.245  0.00  0.00    +0.052 C 
ATOM     22  C   UNL     1      34.574 -20.073 -20.586  0.00  0.00    +0.030 C 
ATOM     23  C   UNL     1      34.583 -21.029 -19.569  0.00  0.00    +0.059 C 
ATOM     24  C   UNL     1      32.210 -20.450 -20.918  0.00  0.00    +0.015 C 
ATOM     25  C   UNL     1      33.406 -21.695 -19.227  0.00  0.00    +0.015 C 
ATOM     26  C   UNL     1      32.220 -21.405 -19.901  0.00  0.00    +0.003 C 
BRANCH  23  27
ATOM     27  N   UNL     1      35.783 -21.320 -18.887  0.00  0.00    -0.247 N 
ATOM     28  N   UNL     1      34.988 -22.421 -16.973  0.00  0.00    -0.337 NA
ATOM     29  N   UNL     1      37.348 -22.072 -17.309  0.00  0.00    -0.170 NA
ATOM     30  C   UNL     1      36.052 -21.968 -17.665  0.00  0.00    +0.149 C 
ATOM     31  C   UNL     1      35.282 -23.036 -15.808  0.00  0.00    +0.147 C 
ATOM     32  C   UNL     1      36.567 -23.205 -15.335  0.00  0.00    +0.055 C 
ATOM     33  C   UNL     1      37.570 -22.698 -16.134  0.00  0.00    +0.114 C 
ATOM     34  H   UNL     1      36.590 -21.009 -19.356  0.00  0.00    +0.165 HD
BRANCH  31  36
ATOM     35  N   UNL     1      33.263 -24.494 -13.036  0.00  0.00    -0.242 NA
ATOM     36  C   UNL     1      34.144 -23.522 -15.067  0.00  0.00    +0.050 C 
ATOM     37  C   UNL     1      32.866 -23.500 -15.618  0.00  0.00    +0.006 C 
ATOM     38  C   UNL     1      34.287 -24.024 -13.784  0.00  0.00    +0.101 C 
ATOM     39  C   UNL     1      31.788 -23.975 -14.879  0.00  0.00    +0.021 C 
ATOM     40  C   UNL     1      32.038 -24.457 -13.604  0.00  0.00    +0.099 C 
ENDBRANCH  31  36
ENDBRANCH  23  27
ENDBRANCH   2  21
TORSDOF 6
ENDMDL
MODEL 8
REMARK VINA RESULT:     -11.7      3.704      7.307
REMARK  Name = 4369496
REMARK  6 active torsions:
REMARK  status: ('A' for Active; 'I' for Inactive)
REMARK    1  A    between atoms: N_2  and  C_21
REMARK    2  A    between atoms: C_3  and  C_10
REMARK    3  A    between atoms: C_5  and  C_11
REMARK    4  A    between atoms: C_11  and  N_12
REMARK    5  A    between atoms: C_23  and  N_27
REMARK    6  A    between atoms: C_31  and  C_36
REMARK                            x       y       z     vdW  Elec       q    Type
REMARK                         _______ _______ _______ _____ _____    ______ ____
ROOT
ATOM      1  O   UNL     1      34.015 -13.036 -23.196  0.00  0.00    -0.270 OA
ATOM      2  N   UNL     1      32.807 -13.281 -21.200  0.00  0.00    -0.280 N 
ATOM      3  C   UNL     1      33.684 -13.709 -22.206  0.00  0.00    +0.249 C 
ATOM      4  H   UNL     1      32.640 -13.927 -20.476  0.00  0.00    +0.155 HD
ENDROOT
BRANCH   3  10
ATOM      5  C   UNL     1      35.202 -17.634 -21.787  0.00  0.00    -0.043 C 
ATOM      6  C   UNL     1      34.953 -17.130 -23.055  0.00  0.00    -0.006 C 
ATOM      7  C   UNL     1      34.962 -16.870 -20.653  0.00  0.00    -0.006 C 
ATOM      8  C   UNL     1      34.453 -15.835 -23.194  0.00  0.00    +0.004 C 
ATOM      9  C   UNL     1      34.462 -15.575 -20.792  0.00  0.00    +0.004 C 
ATOM     10  C   UNL     1      34.207 -15.057 -22.062  0.00  0.00    +0.054 C 
BRANCH   5  11
ATOM     11  C   UNL     1      35.743 -19.031 -21.637  0.00  0.00    -0.050 C 
BRANCH  11  12
ATOM     12  N   UNL     1      35.091 -19.753 -20.546  0.00  0.00    +0.387 N 
ATOM     13  N   UNL     1      33.870 -22.098 -19.376  0.00  0.00    +0.383 N 
ATOM     14  C   UNL     1      35.900 -20.903 -20.124  0.00  0.00    -0.100 C 
ATOM     15  C   UNL     1      33.747 -20.190 -20.941  0.00  0.00    -0.100 C 
ATOM     16  C   UNL     1      35.216 -21.662 -18.982  0.00  0.00    -0.101 C 
ATOM     17  C   UNL     1      33.061 -20.949 -19.800  0.00  0.00    -0.101 C 
ATOM     18  C   UNL     1      33.218 -22.819 -18.285  0.00  0.00    -0.101 C 
ATOM     19  H   UNL     1      35.002 -19.116 -19.755  0.00  0.00    -0.079 HD
ATOM     20  H   UNL     1      33.959 -22.738 -20.167  0.00  0.00    -0.080 HD
ENDBRANCH  11  12
ENDBRANCH   5  11
ENDBRANCH   3  10
BRANCH   2  21
ATOM     21  C   UNL     1      32.130 -12.042 -21.087  0.00  0.00    +0.052 C 
ATOM     22  C   UNL     1      32.343 -11.066 -22.046  0.00  0.00    +0.030 C 
ATOM     23  C   UNL     1      31.677  -9.844 -21.933  0.00  0.00    +0.059 C 
ATOM     24  C   UNL     1      31.273 -11.835 -20.020  0.00  0.00    +0.015 C 
ATOM     25  C   UNL     1      30.809  -9.619 -20.865  0.00  0.00    +0.015 C 
ATOM     26  C   UNL     1      30.607 -10.614 -19.909  0.00  0.00    +0.003 C 
BRANCH  23  27
ATOM     27  N   UNL     1      31.881  -8.839 -22.901  0.00  0.00    -0.247 N 
ATOM     28  N   UNL     1      32.506 -10.102 -24.777  0.00  0.00    -0.337 NA
ATOM     29  N   UNL     1      32.369  -7.699 -24.893  0.00  0.00    -0.170 NA
ATOM     30  C   UNL     1      32.271  -8.883 -24.254  0.00  0.00    +0.149 C 
ATOM     31  C   UNL     1      32.877 -10.106 -26.074  0.00  0.00    +0.147 C 
ATOM     32  C   UNL     1      33.013  -8.964 -26.836  0.00  0.00    +0.055 C 
ATOM     33  C   UNL     1      32.744  -7.777 -26.187  0.00  0.00    +0.114 C 
ATOM     34  H   UNL     1      31.719  -7.928 -22.565  0.00  0.00    +0.165 HD
BRANCH  31  36
ATOM     35  N   UNL     1      34.449 -12.811 -28.100  0.00  0.00    -0.242 NA
ATOM     36  C   UNL     1      33.129 -11.412 -26.635  0.00  0.00    +0.050 C 
ATOM     37  C   UNL     1      32.344 -12.507 -26.286  0.00  0.00    +0.006 C 
ATOM     38  C   UNL     1      34.159 -11.616 -27.539  0.00  0.00    +0.101 C 
ATOM     39  C   UNL     1      32.611 -13.752 -26.844  0.00  0.00    +0.021 C 
ATOM     40  C   UNL     1      33.665 -13.851 -27.737  0.00  0.00    +0.099 C 
ENDBRANCH  31  36
ENDBRANCH  23  27
ENDBRANCH   2  21
TORSDOF 6
ENDMDL
MODEL 9
REMARK VINA RESULT:     -11.4      6.437     12.000
REMARK  Name = 4369496
REMARK  6 active torsions:
REMARK  status: ('A' for Active; 'I' for Inactive)
REMARK    1  A    between atoms: N_2  and  C_21
REMARK    2  A    between atoms: C_3  and  C_10
REMARK    3  A    between atoms: C_5  and  C_11
REMARK    4  A    between atoms: C_11  and  N_12
REMARK    5  A    between atoms: C_23  and  N_27
REMARK    6  A    between atoms: C_31  and  C_36
REMARK                            x       y       z     vdW  Elec       q    Type
REMARK                         _______ _______ _______ _____ _____    ______ ____
ROOT
ATOM      1  O   UNL     1      35.100  -9.742 -26.215  0.00  0.00    -0.270 OA
ATOM      2  N   UNL     1      32.803  -9.276 -26.108  0.00  0.00    -0.280 N 
ATOM      3  C   UNL     1      33.917 -10.116 -26.251  0.00  0.00    +0.249 C 
ATOM      4  H   UNL     1      31.926  -9.718 -26.159  0.00  0.00    +0.155 HD
ENDROOT
BRANCH   3  10
ATOM      5  C   UNL     1      33.069 -14.203 -26.932  0.00  0.00    -0.043 C 
ATOM      6  C   UNL     1      33.764 -13.481 -27.891  0.00  0.00    -0.006 C 
ATOM      7  C   UNL     1      32.648 -13.606 -25.752  0.00  0.00    -0.006 C 
ATOM      8  C   UNL     1      34.044 -12.133 -27.666  0.00  0.00    +0.004 C 
ATOM      9  C   UNL     1      32.929 -12.258 -25.527  0.00  0.00    +0.004 C 
ATOM     10  C   UNL     1      33.626 -11.521 -26.484  0.00  0.00    +0.054 C 
BRANCH   5  11
ATOM     11  C   UNL     1      32.767 -15.659 -27.173  0.00  0.00    -0.050 C 
BRANCH  11  12
ATOM     12  N   UNL     1      33.009 -16.470 -25.981  0.00  0.00    +0.387 N 
ATOM     13  N   UNL     1      34.328 -18.601 -24.540  0.00  0.00    +0.383 N 
ATOM     14  C   UNL     1      34.402 -16.341 -25.538  0.00  0.00    -0.100 C 
ATOM     15  C   UNL     1      32.680 -17.878 -26.233  0.00  0.00    -0.100 C 
ATOM     16  C   UNL     1      34.658 -17.193 -24.290  0.00  0.00    -0.101 C 
ATOM     17  C   UNL     1      32.935 -18.730 -24.985  0.00  0.00    -0.101 C 
ATOM     18  C   UNL     1      34.569 -19.411 -23.347  0.00  0.00    -0.101 C 
ATOM     19  H   UNL     1      32.403 -16.126 -25.238  0.00  0.00    -0.079 HD
ATOM     20  H   UNL     1      34.936 -18.947 -25.283  0.00  0.00    -0.080 HD
ENDBRANCH  11  12
ENDBRANCH   5  11
ENDBRANCH   3  10
BRANCH   2  21
ATOM     21  C   UNL     1      32.776  -7.876 -25.898  0.00  0.00    +0.052 C 
ATOM     22  C   UNL     1      32.565  -7.387 -24.620  0.00  0.00    +0.030 C 
ATOM     23  C   UNL     1      32.536  -6.007 -24.414  0.00  0.00    +0.059 C 
ATOM     24  C   UNL     1      32.960  -7.028 -26.976  0.00  0.00    +0.015 C 
ATOM     25  C   UNL     1      32.720  -5.138 -25.489  0.00  0.00    +0.015 C 
ATOM     26  C   UNL     1      32.931  -5.648 -26.770  0.00  0.00    +0.003 C 
BRANCH  23  27
ATOM     27  N   UNL     1      32.324  -5.492 -23.118  0.00  0.00    -0.247 N 
ATOM     28  N   UNL     1      31.993  -7.454 -21.873  0.00  0.00    -0.337 NA
ATOM     29  N   UNL     1      31.908  -5.289 -20.818  0.00  0.00    -0.170 NA
ATOM     30  C   UNL     1      32.062  -6.107 -21.879  0.00  0.00    +0.149 C 
ATOM     31  C   UNL     1      31.741  -8.009 -20.669  0.00  0.00    +0.147 C 
ATOM     32  C   UNL     1      31.564  -7.280 -19.511  0.00  0.00    +0.055 C 
ATOM     33  C   UNL     1      31.659  -5.910 -19.647  0.00  0.00    +0.114 C 
ATOM     34  H   UNL     1      32.366  -4.510 -23.072  0.00  0.00    +0.165 HD
BRANCH  31  36
ATOM     35  N   UNL     1      31.554 -11.518 -21.910  0.00  0.00    -0.242 NA
ATOM     36  C   UNL     1      31.668  -9.450 -20.662  0.00  0.00    +0.050 C 
ATOM     37  C   UNL     1      31.640 -10.162 -19.467  0.00  0.00    +0.006 C 
ATOM     38  C   UNL     1      31.623 -10.169 -21.846  0.00  0.00    +0.101 C 
ATOM     39  C   UNL     1      31.569 -11.550 -19.493  0.00  0.00    +0.021 C 
ATOM     40  C   UNL     1      31.529 -12.175 -20.729  0.00  0.00    +0.099 C 
ENDBRANCH  31  36
ENDBRANCH  23  27
ENDBRANCH   2  21
TORSDOF 6
ENDMDL
