MODEL 1
REMARK VINA RESULT:     -13.7      0.000      0.000
REMARK  Name = 6105620
REMARK  4 active torsions:
REMARK  status: ('A' for Active; 'I' for Inactive)
REMARK    1  A    between atoms: N_2  and  C_7
REMARK    2  A    between atoms: N_3  and  C_21
REMARK    3  A    between atoms: C_9  and  C_29
REMARK    4  A    between atoms: C_30  and  C_31
REMARK                            x       y       z     vdW  Elec       q    Type
REMARK                         _______ _______ _______ _____ _____    ______ ____
ROOT
ATOM      1  N   UNL     1      35.512 -22.291 -17.186  0.00  0.00    -0.086 NA
ATOM      2  N   UNL     1      34.135 -22.490 -17.624  0.00  0.00    -0.132 N 
ATOM      3  N   UNL     1      36.111 -21.449 -18.166  0.00  0.00    -0.240 N 
ATOM      4  N   UNL     1      33.969 -21.872 -18.857  0.00  0.00    -0.146 NA
ATOM      5  C   UNL     1      35.130 -21.293 -19.120  0.00  0.00    +0.162 C 
ATOM      6  H   UNL     1      37.018 -21.066 -18.162  0.00  0.00    +0.170 HD
ENDROOT
BRANCH   2  11
ATOM      7  O   UNL     1      33.217 -24.697 -13.114  0.00  0.00    -0.220 OA
ATOM      8  O   UNL     1      28.493 -24.296 -15.247  0.00  0.00    -0.220 OA
ATOM      9  N   UNL     1      30.964 -25.037 -13.003  0.00  0.00    -0.062 NA
ATOM     10  N   UNL     1      29.830 -24.941 -13.515  0.00  0.00    -0.062 NA
ATOM     11  C   UNL     1      33.004 -22.958 -16.923  0.00  0.00    +0.089 C 
ATOM     12  C   UNL     1      33.136 -23.533 -15.646  0.00  0.00    +0.030 C 
ATOM     13  C   UNL     1      31.718 -22.858 -17.484  0.00  0.00    +0.019 C 
ATOM     14  C   UNL     1      32.009 -23.993 -14.959  0.00  0.00    +0.097 C 
ATOM     15  C   UNL     1      30.754 -23.888 -15.526  0.00  0.00    +0.096 C 
ATOM     16  C   UNL     1      30.597 -23.319 -16.793  0.00  0.00    +0.014 C 
ATOM     17  C   UNL     1      32.106 -24.600 -13.627  0.00  0.00    +0.174 C 
ATOM     18  C   UNL     1      29.613 -24.388 -14.753  0.00  0.00    +0.174 C 
ENDBRANCH   2  11
BRANCH   1  21
ATOM     19  S   UNL     1      35.616 -22.665 -14.538  0.00  0.00    -0.074 S 
ATOM     20  N   UNL     1      37.258 -23.620 -16.344  0.00  0.00    -0.310 N 
ATOM     21  C   UNL     1      36.165 -22.864 -16.199  0.00  0.00    +0.222 C 
ATOM     22  C   UNL     1      37.728 -24.087 -15.158  0.00  0.00    +0.052 C 
ATOM     23  C   UNL     1      36.983 -23.689 -14.043  0.00  0.00    +0.041 C 
ATOM     24  C   UNL     1      38.846 -24.895 -15.007  0.00  0.00    +0.015 C 
ATOM     25  C   UNL     1      37.334 -24.083 -12.763  0.00  0.00    +0.007 C 
ATOM     26  C   UNL     1      39.209 -25.300 -13.721  0.00  0.00    +0.001 C 
ATOM     27  C   UNL     1      38.459 -24.896 -12.607  0.00  0.00    +0.001 C 
ATOM     28  H   UNL     1      37.676 -23.817 -17.214  0.00  0.00    +0.149 HD
ENDBRANCH   1  21
BRANCH   5  29
ATOM     29  C   UNL     1      35.329 -20.541 -20.368  0.00  0.00    +0.037 C 
ATOM     30  C   UNL     1      34.437 -19.668 -20.806  0.00  0.00    +0.003 C 
BRANCH  30  31
ATOM     31  C   UNL     1      34.587 -18.899 -22.054  0.00  0.00    +0.000 C 
ATOM     32  C   UNL     1      34.918 -17.555 -21.987  0.00  0.00    +0.000 C 
ATOM     33  C   UNL     1      34.395 -19.534 -23.270  0.00  0.00    +0.000 C 
ATOM     34  C   UNL     1      35.061 -16.827 -23.168  0.00  0.00    +0.000 C 
ATOM     35  C   UNL     1      34.537 -18.806 -24.451  0.00  0.00    +0.000 C 
ATOM     36  C   UNL     1      34.870 -17.453 -24.401  0.00  0.00    +0.000 C 
ENDBRANCH  30  31
ENDBRANCH   5  29
TORSDOF 4
ENDMDL
MODEL 2
REMARK VINA RESULT:     -13.7      1.942      5.385
REMARK  Name = 6105620
REMARK  4 active torsions:
REMARK  status: ('A' for Active; 'I' for Inactive)
REMARK    1  A    between atoms: N_2  and  C_7
REMARK    2  A    between atoms: N_3  and  C_21
REMARK    3  A    between atoms: C_9  and  C_29
REMARK    4  A    between atoms: C_30  and  C_31
REMARK                            x       y       z     vdW  Elec       q    Type
REMARK                         _______ _______ _______ _____ _____    ______ ____
ROOT
ATOM      1  N   UNL     1      33.415 -22.573 -17.758  0.00  0.00    -0.086 NA
ATOM      2  N   UNL     1      34.759 -22.271 -17.278  0.00  0.00    -0.132 N 
ATOM      3  N   UNL     1      33.340 -22.020 -19.068  0.00  0.00    -0.240 N 
ATOM      4  N   UNL     1      35.404 -21.490 -18.229  0.00  0.00    -0.146 NA
ATOM      5  C   UNL     1      34.546 -21.376 -19.231  0.00  0.00    +0.162 C 
ATOM      6  H   UNL     1      32.596 -22.083 -19.710  0.00  0.00    +0.170 HD
ENDROOT
BRANCH   2  11
ATOM      7  O   UNL     1      33.764 -24.032 -12.591  0.00  0.00    -0.220 OA
ATOM      8  O   UNL     1      38.909 -24.628 -13.039  0.00  0.00    -0.220 OA
ATOM      9  N   UNL     1      35.761 -24.688 -11.706  0.00  0.00    -0.062 NA
ATOM     10  N   UNL     1      36.996 -24.831 -11.813  0.00  0.00    -0.062 NA
ATOM     11  C   UNL     1      35.500 -22.818 -16.209  0.00  0.00    +0.089 C 
ATOM     12  C   UNL     1      34.863 -23.207 -15.017  0.00  0.00    +0.030 C 
ATOM     13  C   UNL     1      36.893 -22.986 -16.312  0.00  0.00    +0.019 C 
ATOM     14  C   UNL     1      35.606 -23.749 -13.964  0.00  0.00    +0.097 C 
ATOM     15  C   UNL     1      36.973 -23.907 -14.083  0.00  0.00    +0.096 C 
ATOM     16  C   UNL     1      37.629 -23.527 -15.258  0.00  0.00    +0.014 C 
ATOM     17  C   UNL     1      34.979 -24.167 -12.706  0.00  0.00    +0.174 C 
ATOM     18  C   UNL     1      37.694 -24.481 -12.942  0.00  0.00    +0.174 C 
ENDBRANCH   2  11
BRANCH   1  21
ATOM     19  S   UNL     1      32.639 -24.467 -16.033  0.00  0.00    -0.074 S 
ATOM     20  N   UNL     1      31.134 -22.667 -17.200  0.00  0.00    -0.310 N 
ATOM     21  C   UNL     1      32.397 -23.097 -17.112  0.00  0.00    +0.222 C 
ATOM     22  C   UNL     1      30.283 -23.389 -16.426  0.00  0.00    +0.052 C 
ATOM     23  C   UNL     1      30.893 -24.420 -15.703  0.00  0.00    +0.041 C 
ATOM     24  C   UNL     1      28.918 -23.166 -16.321  0.00  0.00    +0.015 C 
ATOM     25  C   UNL     1      30.160 -25.246 -14.867  0.00  0.00    +0.007 C 
ATOM     26  C   UNL     1      28.168 -23.992 -15.481  0.00  0.00    +0.001 C 
ATOM     27  C   UNL     1      28.785 -25.025 -14.760  0.00  0.00    +0.001 C 
ATOM     28  H   UNL     1      30.851 -21.910 -17.765  0.00  0.00    +0.149 HD
ENDBRANCH   1  21
BRANCH   5  29
ATOM     29  C   UNL     1      34.890 -20.596 -20.429  0.00  0.00    +0.037 C 
ATOM     30  C   UNL     1      34.117 -19.618 -20.871  0.00  0.00    +0.003 C 
BRANCH  30  31
ATOM     31  C   UNL     1      34.415 -18.816 -22.070  0.00  0.00    +0.000 C 
ATOM     32  C   UNL     1      34.781 -17.487 -21.925  0.00  0.00    +0.000 C 
ATOM     33  C   UNL     1      34.322 -19.405 -23.320  0.00  0.00    +0.000 C 
ATOM     34  C   UNL     1      35.063 -16.728 -23.061  0.00  0.00    +0.000 C 
ATOM     35  C   UNL     1      34.604 -18.646 -24.457  0.00  0.00    +0.000 C 
ATOM     36  C   UNL     1      34.974 -17.307 -24.327  0.00  0.00    +0.000 C 
ENDBRANCH  30  31
ENDBRANCH   5  29
TORSDOF 4
ENDMDL
MODEL 3
REMARK VINA RESULT:     -13.6      2.258      5.605
REMARK  Name = 6105620
REMARK  4 active torsions:
REMARK  status: ('A' for Active; 'I' for Inactive)
REMARK    1  A    between atoms: N_2  and  C_7
REMARK    2  A    between atoms: N_3  and  C_21
REMARK    3  A    between atoms: C_9  and  C_29
REMARK    4  A    between atoms: C_30  and  C_31
REMARK                            x       y       z     vdW  Elec       q    Type
REMARK                         _______ _______ _______ _____ _____    ______ ____
ROOT
ATOM      1  N   UNL     1      33.400 -22.609 -17.696  0.00  0.00    -0.086 NA
ATOM      2  N   UNL     1      34.776 -22.377 -17.270  0.00  0.00    -0.132 N 
ATOM      3  N   UNL     1      33.294 -22.029 -18.992  0.00  0.00    -0.240 N 
ATOM      4  N   UNL     1      35.414 -21.610 -18.236  0.00  0.00    -0.146 NA
ATOM      5  C   UNL     1      34.521 -21.437 -19.197  0.00  0.00    +0.162 C 
ATOM      6  H   UNL     1      32.520 -22.046 -19.601  0.00  0.00    +0.170 HD
ENDROOT
BRANCH   2  11
ATOM      7  O   UNL     1      35.977 -27.127 -15.836  0.00  0.00    -0.220 OA
ATOM      8  O   UNL     1      38.404 -24.155 -12.328  0.00  0.00    -0.220 OA
ATOM      9  N   UNL     1      37.297 -26.933 -13.986  0.00  0.00    -0.062 NA
ATOM     10  N   UNL     1      37.879 -26.220 -13.143  0.00  0.00    -0.062 NA
ATOM     11  C   UNL     1      35.536 -22.977 -16.245  0.00  0.00    +0.089 C 
ATOM     12  C   UNL     1      35.648 -24.377 -16.157  0.00  0.00    +0.030 C 
ATOM     13  C   UNL     1      36.199 -22.189 -15.287  0.00  0.00    +0.019 C 
ATOM     14  C   UNL     1      36.404 -24.962 -15.137  0.00  0.00    +0.097 C 
ATOM     15  C   UNL     1      37.048 -24.172 -14.204  0.00  0.00    +0.096 C 
ATOM     16  C   UNL     1      36.952 -22.779 -14.270  0.00  0.00    +0.014 C 
ATOM     17  C   UNL     1      36.545 -26.416 -15.011  0.00  0.00    +0.174 C 
ATOM     18  C   UNL     1      37.825 -24.848 -13.160  0.00  0.00    +0.174 C 
ENDBRANCH   2  11
BRANCH   1  21
ATOM     19  S   UNL     1      32.670 -24.026 -15.546  0.00  0.00    -0.074 S 
ATOM     20  N   UNL     1      31.100 -22.948 -17.346  0.00  0.00    -0.310 N 
ATOM     21  C   UNL     1      32.387 -23.097 -17.015  0.00  0.00    +0.222 C 
ATOM     22  C   UNL     1      30.262 -23.554 -16.466  0.00  0.00    +0.052 C 
ATOM     23  C   UNL     1      30.907 -24.202 -15.406  0.00  0.00    +0.041 C 
ATOM     24  C   UNL     1      28.878 -23.562 -16.560  0.00  0.00    +0.015 C 
ATOM     25  C   UNL     1      30.191 -24.867 -14.425  0.00  0.00    +0.007 C 
ATOM     26  C   UNL     1      28.145 -24.230 -15.576  0.00  0.00    +0.001 C 
ATOM     27  C   UNL     1      28.797 -24.877 -14.516  0.00  0.00    +0.001 C 
ATOM     28  H   UNL     1      30.793 -22.453 -18.141  0.00  0.00    +0.149 HD
ENDBRANCH   1  21
BRANCH   5  29
ATOM     29  C   UNL     1      34.848 -20.652 -20.396  0.00  0.00    +0.037 C 
ATOM     30  C   UNL     1      34.095 -19.641 -20.795  0.00  0.00    +0.003 C 
BRANCH  30  31
ATOM     31  C   UNL     1      34.377 -18.832 -21.994  0.00  0.00    +0.000 C 
ATOM     32  C   UNL     1      34.190 -19.391 -23.249  0.00  0.00    +0.000 C 
ATOM     33  C   UNL     1      34.824 -17.530 -21.844  0.00  0.00    +0.000 C 
ATOM     34  C   UNL     1      34.457 -18.625 -24.384  0.00  0.00    +0.000 C 
ATOM     35  C   UNL     1      35.091 -16.764 -22.979  0.00  0.00    +0.000 C 
ATOM     36  C   UNL     1      34.907 -17.311 -24.249  0.00  0.00    +0.000 C 
ENDBRANCH  30  31
ENDBRANCH   5  29
TORSDOF 4
ENDMDL
MODEL 4
REMARK VINA RESULT:     -13.2      1.099      2.056
REMARK  Name = 6105620
REMARK  4 active torsions:
REMARK  status: ('A' for Active; 'I' for Inactive)
REMARK    1  A    between atoms: N_2  and  C_7
REMARK    2  A    between atoms: N_3  and  C_21
REMARK    3  A    between atoms: C_9  and  C_29
REMARK    4  A    between atoms: C_30  and  C_31
REMARK                            x       y       z     vdW  Elec       q    Type
REMARK                         _______ _______ _______ _____ _____    ______ ____
ROOT
ATOM      1  N   UNL     1      35.334 -22.496 -17.017  0.00  0.00    -0.086 NA
ATOM      2  N   UNL     1      33.959 -22.766 -17.426  0.00  0.00    -0.132 N 
ATOM      3  N   UNL     1      35.879 -21.654 -18.029  0.00  0.00    -0.240 N 
ATOM      4  N   UNL     1      33.746 -22.188 -18.671  0.00  0.00    -0.146 NA
ATOM      5  C   UNL     1      34.876 -21.566 -18.969  0.00  0.00    +0.162 C 
ATOM      6  H   UNL     1      36.768 -21.232 -18.051  0.00  0.00    +0.170 HD
ENDROOT
BRANCH   2  11
ATOM      7  O   UNL     1      28.882 -22.255 -17.540  0.00  0.00    -0.220 OA
ATOM      8  O   UNL     1      29.679 -25.514 -13.569  0.00  0.00    -0.220 OA
ATOM      9  N   UNL     1      28.060 -23.541 -15.845  0.00  0.00    -0.062 NA
ATOM     10  N   UNL     1      28.252 -24.323 -14.892  0.00  0.00    -0.062 NA
ATOM     11  C   UNL     1      32.862 -23.264 -16.693  0.00  0.00    +0.089 C 
ATOM     12  C   UNL     1      31.547 -22.890 -17.023  0.00  0.00    +0.030 C 
ATOM     13  C   UNL     1      33.059 -24.146 -15.615  0.00  0.00    +0.019 C 
ATOM     14  C   UNL     1      30.466 -23.388 -16.291  0.00  0.00    +0.097 C 
ATOM     15  C   UNL     1      30.678 -24.254 -15.235  0.00  0.00    +0.096 C 
ATOM     16  C   UNL     1      31.976 -24.641 -14.887  0.00  0.00    +0.014 C 
ATOM     17  C   UNL     1      29.081 -23.022 -16.603  0.00  0.00    +0.174 C 
ATOM     18  C   UNL     1      29.501 -24.742 -14.507  0.00  0.00    +0.174 C 
ENDBRANCH   2  11
BRANCH   1  21
ATOM     19  S   UNL     1      35.530 -22.748 -14.360  0.00  0.00    -0.074 S 
ATOM     20  N   UNL     1      37.127 -23.761 -16.175  0.00  0.00    -0.310 N 
ATOM     21  C   UNL     1      36.027 -23.014 -16.028  0.00  0.00    +0.222 C 
ATOM     22  C   UNL     1      37.642 -24.167 -14.986  0.00  0.00    +0.052 C 
ATOM     23  C   UNL     1      36.928 -23.729 -13.866  0.00  0.00    +0.041 C 
ATOM     24  C   UNL     1      38.777 -24.952 -14.836  0.00  0.00    +0.015 C 
ATOM     25  C   UNL     1      37.327 -24.059 -12.582  0.00  0.00    +0.007 C 
ATOM     26  C   UNL     1      39.189 -25.292 -13.546  0.00  0.00    +0.001 C 
ATOM     27  C   UNL     1      38.469 -24.848 -12.427  0.00  0.00    +0.001 C 
ATOM     28  H   UNL     1      37.519 -23.992 -17.049  0.00  0.00    +0.149 HD
ENDBRANCH   1  21
BRANCH   5  29
ATOM     29  C   UNL     1      35.021 -20.839 -20.239  0.00  0.00    +0.037 C 
ATOM     30  C   UNL     1      34.364 -19.717 -20.479  0.00  0.00    +0.003 C 
BRANCH  30  31
ATOM     31  C   UNL     1      34.469 -18.959 -21.738  0.00  0.00    +0.000 C 
ATOM     32  C   UNL     1      34.128 -19.576 -22.932  0.00  0.00    +0.000 C 
ATOM     33  C   UNL     1      34.906 -17.645 -21.705  0.00  0.00    +0.000 C 
ATOM     34  C   UNL     1      34.228 -18.858 -24.124  0.00  0.00    +0.000 C 
ATOM     35  C   UNL     1      35.006 -16.927 -22.897  0.00  0.00    +0.000 C 
ATOM     36  C   UNL     1      34.666 -17.534 -24.107  0.00  0.00    +0.000 C 
ENDBRANCH  30  31
ENDBRANCH   5  29
TORSDOF 4
ENDMDL
MODEL 5
REMARK VINA RESULT:     -12.2     11.344     16.674
REMARK  Name = 6105620
REMARK  4 active torsions:
REMARK  status: ('A' for Active; 'I' for Inactive)
REMARK    1  A    between atoms: N_2  and  C_7
REMARK    2  A    between atoms: N_3  and  C_21
REMARK    3  A    between atoms: C_9  and  C_29
REMARK    4  A    between atoms: C_30  and  C_31
REMARK                            x       y       z     vdW  Elec       q    Type
REMARK                         _______ _______ _______ _____ _____    ______ ____
ROOT
ATOM      1  N   UNL     1      32.866 -10.651 -23.574  0.00  0.00    -0.086 NA
ATOM      2  N   UNL     1      33.061 -10.455 -25.007  0.00  0.00    -0.132 N 
ATOM      3  N   UNL     1      32.927 -12.058 -23.365  0.00  0.00    -0.240 N 
ATOM      4  N   UNL     1      33.133 -11.700 -25.618  0.00  0.00    -0.146 NA
ATOM      5  C   UNL     1      33.050 -12.582 -24.633  0.00  0.00    +0.162 C 
ATOM      6  H   UNL     1      32.890 -12.546 -22.510  0.00  0.00    +0.170 HD
ENDROOT
BRANCH   2  11
ATOM      7  O   UNL     1      30.561  -6.711 -27.413  0.00  0.00    -0.220 OA
ATOM      8  O   UNL     1      35.561  -5.490 -28.143  0.00  0.00    -0.220 OA
ATOM      9  N   UNL     1      32.149  -5.326 -28.287  0.00  0.00    -0.062 NA
ATOM     10  N   UNL     1      33.349  -5.033 -28.463  0.00  0.00    -0.062 NA
ATOM     11  C   UNL     1      33.403  -9.300 -25.740  0.00  0.00    +0.089 C 
ATOM     12  C   UNL     1      32.405  -8.468 -26.279  0.00  0.00    +0.030 C 
ATOM     13  C   UNL     1      34.750  -8.954 -25.948  0.00  0.00    +0.019 C 
ATOM     14  C   UNL     1      32.755  -7.325 -27.004  0.00  0.00    +0.097 C 
ATOM     15  C   UNL     1      34.083  -7.001 -27.199  0.00  0.00    +0.096 C 
ATOM     16  C   UNL     1      35.093  -7.812 -26.672  0.00  0.00    +0.014 C 
ATOM     17  C   UNL     1      31.745  -6.433 -27.582  0.00  0.00    +0.174 C 
ATOM     18  C   UNL     1      34.383  -5.788 -27.967  0.00  0.00    +0.174 C 
ENDBRANCH   2  11
BRANCH   1  21
ATOM     19  S   UNL     1      31.537 -10.257 -21.285  0.00  0.00    -0.074 S 
ATOM     20  N   UNL     1      32.917  -8.492 -22.645  0.00  0.00    -0.310 N 
ATOM     21  C   UNL     1      32.540  -9.775 -22.649  0.00  0.00    +0.222 C 
ATOM     22  C   UNL     1      32.439  -7.814 -21.570  0.00  0.00    +0.052 C 
ATOM     23  C   UNL     1      31.662  -8.584 -20.698  0.00  0.00    +0.041 C 
ATOM     24  C   UNL     1      32.671  -6.471 -21.308  0.00  0.00    +0.015 C 
ATOM     25  C   UNL     1      31.103  -8.037 -19.556  0.00  0.00    +0.007 C 
ATOM     26  C   UNL     1      32.112  -5.908 -20.159  0.00  0.00    +0.001 C 
ATOM     27  C   UNL     1      31.334  -6.685 -19.289  0.00  0.00    +0.001 C 
ATOM     28  H   UNL     1      33.479  -8.084 -23.343  0.00  0.00    +0.149 HD
ENDBRANCH   1  21
BRANCH   5  29
ATOM     29  C   UNL     1      33.084 -14.025 -24.912  0.00  0.00    +0.037 C 
ATOM     30  C   UNL     1      33.791 -14.862 -24.171  0.00  0.00    +0.003 C 
BRANCH  30  31
ATOM     31  C   UNL     1      33.863 -16.313 -24.416  0.00  0.00    +0.000 C 
ATOM     32  C   UNL     1      34.514 -17.125 -23.500  0.00  0.00    +0.000 C 
ATOM     33  C   UNL     1      33.281 -16.838 -25.558  0.00  0.00    +0.000 C 
ATOM     34  C   UNL     1      34.583 -18.498 -23.732  0.00  0.00    +0.000 C 
ATOM     35  C   UNL     1      33.350 -18.212 -25.790  0.00  0.00    +0.000 C 
ATOM     36  C   UNL     1      34.001 -19.042 -24.877  0.00  0.00    +0.000 C 
ENDBRANCH  30  31
ENDBRANCH   5  29
TORSDOF 4
ENDMDL
MODEL 6
REMARK VINA RESULT:     -11.8     11.624     15.986
REMARK  Name = 6105620
REMARK  4 active torsions:
REMARK  status: ('A' for Active; 'I' for Inactive)
REMARK    1  A    between atoms: N_2  and  C_7
REMARK    2  A    between atoms: N_3  and  C_21
REMARK    3  A    between atoms: C_9  and  C_29
REMARK    4  A    between atoms: C_30  and  C_31
REMARK                            x       y       z     vdW  Elec       q    Type
REMARK                         _______ _______ _______ _____ _____    ______ ____
ROOT
ATOM      1  N   UNL     1      33.284 -10.155 -25.980  0.00  0.00    -0.086 NA
ATOM      2  N   UNL     1      33.197 -10.561 -24.581  0.00  0.00    -0.132 N 
ATOM      3  N   UNL     1      33.146 -11.353 -26.738  0.00  0.00    -0.240 N 
ATOM      4  N   UNL     1      33.112 -11.946 -24.526  0.00  0.00    -0.146 NA
ATOM      5  C   UNL     1      33.088 -12.348 -25.788  0.00  0.00    +0.162 C 
ATOM      6  H   UNL     1      33.102 -11.448 -27.717  0.00  0.00    +0.170 HD
ENDROOT
BRANCH   2  11
ATOM      7  O   UNL     1      30.265 -10.973 -20.423  0.00  0.00    -0.220 OA
ATOM      8  O   UNL     1      32.789  -6.488 -19.683  0.00  0.00    -0.220 OA
ATOM      9  N   UNL     1      30.678  -9.125 -19.151  0.00  0.00    -0.062 NA
ATOM     10  N   UNL     1      31.283  -8.048 -18.973  0.00  0.00    -0.062 NA
ATOM     11  C   UNL     1      32.958  -9.803 -23.416  0.00  0.00    +0.089 C 
ATOM     12  C   UNL     1      32.042 -10.245 -22.445  0.00  0.00    +0.030 C 
ATOM     13  C   UNL     1      33.631  -8.587 -23.199  0.00  0.00    +0.019 C 
ATOM     14  C   UNL     1      31.812  -9.487 -21.293  0.00  0.00    +0.097 C 
ATOM     15  C   UNL     1      32.482  -8.295 -21.097  0.00  0.00    +0.096 C 
ATOM     16  C   UNL     1      33.398  -7.834 -22.047  0.00  0.00    +0.014 C 
ATOM     17  C   UNL     1      30.865  -9.914 -20.259  0.00  0.00    +0.174 C 
ATOM     18  C   UNL     1      32.196  -7.548 -19.868  0.00  0.00    +0.174 C 
ENDBRANCH   2  11
BRANCH   1  21
ATOM     19  S   UNL     1      32.347  -7.737 -26.640  0.00  0.00    -0.074 S 
ATOM     20  N   UNL     1      34.795  -8.627 -26.930  0.00  0.00    -0.310 N 
ATOM     21  C   UNL     1      33.583  -8.982 -26.491  0.00  0.00    +0.222 C 
ATOM     22  C   UNL     1      34.823  -7.356 -27.408  0.00  0.00    +0.052 C 
ATOM     23  C   UNL     1      33.596  -6.687 -27.345  0.00  0.00    +0.041 C 
ATOM     24  C   UNL     1      35.945  -6.724 -27.926  0.00  0.00    +0.015 C 
ATOM     25  C   UNL     1      33.462  -5.383 -27.793  0.00  0.00    +0.007 C 
ATOM     26  C   UNL     1      35.821  -5.410 -28.381  0.00  0.00    +0.001 C 
ATOM     27  C   UNL     1      34.588  -4.744 -28.316  0.00  0.00    +0.001 C 
ATOM     28  H   UNL     1      35.581  -9.220 -26.908  0.00  0.00    +0.149 HD
ENDBRANCH   1  21
BRANCH   5  29
ATOM     29  C   UNL     1      33.010 -13.779 -26.119  0.00  0.00    +0.037 C 
ATOM     30  C   UNL     1      33.149 -14.717 -25.198  0.00  0.00    +0.003 C 
BRANCH  30  31
ATOM     31  C   UNL     1      33.088 -16.161 -25.483  0.00  0.00    +0.000 C 
ATOM     32  C   UNL     1      32.068 -16.653 -26.283  0.00  0.00    +0.000 C 
ATOM     33  C   UNL     1      34.050 -17.000 -24.945  0.00  0.00    +0.000 C 
ATOM     34  C   UNL     1      32.011 -18.020 -26.553  0.00  0.00    +0.000 C 
ATOM     35  C   UNL     1      33.993 -18.368 -25.216  0.00  0.00    +0.000 C 
ATOM     36  C   UNL     1      32.973 -18.878 -26.020  0.00  0.00    +0.000 C 
ENDBRANCH  30  31
ENDBRANCH   5  29
TORSDOF 4
ENDMDL
MODEL 7
REMARK VINA RESULT:     -11.4     11.253     16.613
REMARK  Name = 6105620
REMARK  4 active torsions:
REMARK  status: ('A' for Active; 'I' for Inactive)
REMARK    1  A    between atoms: N_2  and  C_7
REMARK    2  A    between atoms: N_3  and  C_21
REMARK    3  A    between atoms: C_9  and  C_29
REMARK    4  A    between atoms: C_30  and  C_31
REMARK                            x       y       z     vdW  Elec       q    Type
REMARK                         _______ _______ _______ _____ _____    ______ ____
ROOT
ATOM      1  N   UNL     1      32.993 -10.122 -25.053  0.00  0.00    -0.086 NA
ATOM      2  N   UNL     1      32.818 -10.199 -23.606  0.00  0.00    -0.132 N 
ATOM      3  N   UNL     1      33.054 -11.471 -25.507  0.00  0.00    -0.240 N 
ATOM      4  N   UNL     1      32.874 -11.534 -23.224  0.00  0.00    -0.146 NA
ATOM      5  C   UNL     1      33.012 -12.217 -24.350  0.00  0.00    +0.162 C 
ATOM      6  H   UNL     1      33.114 -11.795 -26.434  0.00  0.00    +0.170 HD
ENDROOT
BRANCH   2  11
ATOM      7  O   UNL     1      30.357  -5.731 -23.778  0.00  0.00    -0.220 OA
ATOM      8  O   UNL     1      31.289  -6.403 -18.708  0.00  0.00    -0.220 OA
ATOM      9  N   UNL     1      30.200  -4.991 -21.626  0.00  0.00    -0.062 NA
ATOM     10  N   UNL     1      30.424  -5.152 -20.410  0.00  0.00    -0.062 NA
ATOM     11  C   UNL     1      32.391  -9.228 -22.678  0.00  0.00    +0.089 C 
ATOM     12  C   UNL     1      31.713  -8.072 -23.105  0.00  0.00    +0.030 C 
ATOM     13  C   UNL     1      32.635  -9.392 -21.302  0.00  0.00    +0.019 C 
ATOM     14  C   UNL     1      31.294  -7.115 -22.177  0.00  0.00    +0.097 C 
ATOM     15  C   UNL     1      31.542  -7.293 -20.830  0.00  0.00    +0.096 C 
ATOM     16  C   UNL     1      32.214  -8.433 -20.380  0.00  0.00    +0.014 C 
ATOM     17  C   UNL     1      30.584  -5.898 -22.584  0.00  0.00    +0.174 C 
ATOM     18  C   UNL     1      31.075  -6.252 -19.908  0.00  0.00    +0.174 C 
ENDBRANCH   2  11
BRANCH   1  21
ATOM     19  S   UNL     1      34.859  -8.499 -26.076  0.00  0.00    -0.074 S 
ATOM     20  N   UNL     1      32.266  -8.363 -26.432  0.00  0.00    -0.310 N 
ATOM     21  C   UNL     1      33.215  -9.072 -25.811  0.00  0.00    +0.222 C 
ATOM     22  C   UNL     1      32.775  -7.329 -27.150  0.00  0.00    +0.052 C 
ATOM     23  C   UNL     1      34.169  -7.218 -27.097  0.00  0.00    +0.041 C 
ATOM     24  C   UNL     1      32.024  -6.430 -27.893  0.00  0.00    +0.015 C 
ATOM     25  C   UNL     1      34.839  -6.215 -27.777  0.00  0.00    +0.007 C 
ATOM     26  C   UNL     1      32.689  -5.414 -28.584  0.00  0.00    +0.001 C 
ATOM     27  C   UNL     1      34.087  -5.308 -28.526  0.00  0.00    +0.001 C 
ATOM     28  H   UNL     1      31.304  -8.568 -26.374  0.00  0.00    +0.149 HD
ENDBRANCH   1  21
BRANCH   5  29
ATOM     29  C   UNL     1      33.115 -13.684 -24.330  0.00  0.00    +0.037 C 
ATOM     30  C   UNL     1      34.079 -14.306 -23.672  0.00  0.00    +0.003 C 
BRANCH  30  31
ATOM     31  C   UNL     1      34.230 -15.771 -23.632  0.00  0.00    +0.000 C 
ATOM     32  C   UNL     1      33.819 -16.526 -24.719  0.00  0.00    +0.000 C 
ATOM     33  C   UNL     1      34.780 -16.366 -22.508  0.00  0.00    +0.000 C 
ATOM     34  C   UNL     1      33.962 -17.913 -24.681  0.00  0.00    +0.000 C 
ATOM     35  C   UNL     1      34.923 -17.753 -22.470  0.00  0.00    +0.000 C 
ATOM     36  C   UNL     1      34.514 -18.527 -23.556  0.00  0.00    +0.000 C 
ENDBRANCH  30  31
ENDBRANCH   5  29
TORSDOF 4
ENDMDL
MODEL 8
REMARK VINA RESULT:     -11.3     10.439     15.156
REMARK  Name = 6105620
REMARK  4 active torsions:
REMARK  status: ('A' for Active; 'I' for Inactive)
REMARK    1  A    between atoms: N_2  and  C_7
REMARK    2  A    between atoms: N_3  and  C_21
REMARK    3  A    between atoms: C_9  and  C_29
REMARK    4  A    between atoms: C_30  and  C_31
REMARK                            x       y       z     vdW  Elec       q    Type
REMARK                         _______ _______ _______ _____ _____    ______ ____
ROOT
ATOM      1  N   UNL     1      33.157 -11.546 -25.224  0.00  0.00    -0.086 NA
ATOM      2  N   UNL     1      32.911 -11.942 -23.841  0.00  0.00    -0.132 N 
ATOM      3  N   UNL     1      33.269 -12.761 -25.959  0.00  0.00    -0.240 N 
ATOM      4  N   UNL     1      32.976 -13.326 -23.759  0.00  0.00    -0.146 NA
ATOM      5  C   UNL     1      33.185 -13.744 -24.998  0.00  0.00    +0.162 C 
ATOM      6  H   UNL     1      33.382 -12.872 -26.931  0.00  0.00    +0.170 HD
ENDROOT
BRANCH   2  11
ATOM      7  O   UNL     1      33.290  -7.149 -22.127  0.00  0.00    -0.220 OA
ATOM      8  O   UNL     1      30.223  -9.449 -18.616  0.00  0.00    -0.220 OA
ATOM      9  N   UNL     1      32.056  -7.044 -20.212  0.00  0.00    -0.062 NA
ATOM     10  N   UNL     1      31.320  -7.596 -19.369  0.00  0.00    -0.062 NA
ATOM     11  C   UNL     1      32.418 -11.202 -22.746  0.00  0.00    +0.089 C 
ATOM     12  C   UNL     1      32.744  -9.843 -22.589  0.00  0.00    +0.030 C 
ATOM     13  C   UNL     1      31.587 -11.808 -21.786  0.00  0.00    +0.019 C 
ATOM     14  C   UNL     1      32.250  -9.119 -21.501  0.00  0.00    +0.097 C 
ATOM     15  C   UNL     1      31.436  -9.731 -20.567  0.00  0.00    +0.096 C 
ATOM     16  C   UNL     1      31.096 -11.080 -20.701  0.00  0.00    +0.014 C 
ATOM     17  C   UNL     1      32.568  -7.702 -21.302  0.00  0.00    +0.174 C 
ATOM     18  C   UNL     1      30.950  -8.915 -19.449  0.00  0.00    +0.174 C 
ENDBRANCH   2  11
BRANCH   1  21
ATOM     19  S   UNL     1      35.047  -9.829 -26.025  0.00  0.00    -0.074 S 
ATOM     20  N   UNL     1      32.453  -9.454 -26.033  0.00  0.00    -0.310 N 
ATOM     21  C   UNL     1      33.394 -10.352 -25.721  0.00  0.00    +0.222 C 
ATOM     22  C   UNL     1      32.977  -8.303 -26.528  0.00  0.00    +0.052 C 
ATOM     23  C   UNL     1      34.374  -8.292 -26.611  0.00  0.00    +0.041 C 
ATOM     24  C   UNL     1      32.238  -7.201 -26.934  0.00  0.00    +0.015 C 
ATOM     25  C   UNL     1      35.059  -7.191 -27.097  0.00  0.00    +0.007 C 
ATOM     26  C   UNL     1      32.918  -6.084 -27.425  0.00  0.00    +0.001 C 
ATOM     27  C   UNL     1      34.318  -6.079 -27.506  0.00  0.00    +0.001 C 
ATOM     28  H   UNL     1      31.488  -9.609 -25.916  0.00  0.00    +0.149 HD
ENDBRANCH   1  21
BRANCH   5  29
ATOM     29  C   UNL     1      33.320 -15.178 -25.295  0.00  0.00    +0.037 C 
ATOM     30  C   UNL     1      33.878 -16.018 -24.440  0.00  0.00    +0.003 C 
BRANCH  30  31
ATOM     31  C   UNL     1      34.044 -17.459 -24.697  0.00  0.00    +0.000 C 
ATOM     32  C   UNL     1      34.682 -18.248 -23.752  0.00  0.00    +0.000 C 
ATOM     33  C   UNL     1      33.561 -17.998 -25.878  0.00  0.00    +0.000 C 
ATOM     34  C   UNL     1      34.838 -19.613 -23.996  0.00  0.00    +0.000 C 
ATOM     35  C   UNL     1      33.717 -19.363 -26.121  0.00  0.00    +0.000 C 
ATOM     36  C   UNL     1      34.356 -20.170 -25.180  0.00  0.00    +0.000 C 
ENDBRANCH  30  31
ENDBRANCH   5  29
TORSDOF 4
ENDMDL
MODEL 9
REMARK VINA RESULT:     -11.3     11.591     16.394
REMARK  Name = 6105620
REMARK  4 active torsions:
REMARK  status: ('A' for Active; 'I' for Inactive)
REMARK    1  A    between atoms: N_2  and  C_7
REMARK    2  A    between atoms: N_3  and  C_21
REMARK    3  A    between atoms: C_9  and  C_29
REMARK    4  A    between atoms: C_30  and  C_31
REMARK                            x       y       z     vdW  Elec       q    Type
REMARK                         _______ _______ _______ _____ _____    ______ ____
ROOT
ATOM      1  N   UNL     1      33.055 -10.214 -25.765  0.00  0.00    -0.086 NA
ATOM      2  N   UNL     1      32.930 -10.592 -24.361  0.00  0.00    -0.132 N 
ATOM      3  N   UNL     1      33.048 -11.436 -26.496  0.00  0.00    -0.240 N 
ATOM      4  N   UNL     1      32.949 -11.978 -24.273  0.00  0.00    -0.146 NA
ATOM      5  C   UNL     1      33.020 -12.410 -25.523  0.00  0.00    +0.162 C 
ATOM      6  H   UNL     1      33.062 -11.557 -27.473  0.00  0.00    +0.170 HD
ENDROOT
BRANCH   2  11
ATOM      7  O   UNL     1      32.746  -5.640 -23.136  0.00  0.00    -0.220 OA
ATOM      8  O   UNL     1      31.121  -8.017 -18.808  0.00  0.00    -0.220 OA
ATOM      9  N   UNL     1      32.008  -5.530 -20.981  0.00  0.00    -0.062 NA
ATOM     10  N   UNL     1      31.618  -6.101 -19.942  0.00  0.00    -0.062 NA
ATOM     11  C   UNL     1      32.574  -9.828 -23.230  0.00  0.00    +0.089 C 
ATOM     12  C   UNL     1      32.652  -8.424 -23.256  0.00  0.00    +0.030 C 
ATOM     13  C   UNL     1      32.133 -10.454 -22.050  0.00  0.00    +0.019 C 
ATOM     14  C   UNL     1      32.297  -7.676 -22.131  0.00  0.00    +0.097 C 
ATOM     15  C   UNL     1      31.866  -8.307 -20.980  0.00  0.00    +0.096 C 
ATOM     16  C   UNL     1      31.779  -9.702 -20.929  0.00  0.00    +0.014 C 
ATOM     17  C   UNL     1      32.366  -6.211 -22.118  0.00  0.00    +0.174 C 
ATOM     18  C   UNL     1      31.508  -7.465 -19.834  0.00  0.00    +0.174 C 
ENDBRANCH   2  11
BRANCH   1  21
ATOM     19  S   UNL     1      31.953  -7.948 -26.667  0.00  0.00    -0.074 S 
ATOM     20  N   UNL     1      34.502  -8.554 -26.587  0.00  0.00    -0.310 N 
ATOM     21  C   UNL     1      33.288  -9.033 -26.293  0.00  0.00    +0.222 C 
ATOM     22  C   UNL     1      34.453  -7.307 -27.123  0.00  0.00    +0.052 C 
ATOM     23  C   UNL     1      33.161  -6.785 -27.256  0.00  0.00    +0.041 C 
ATOM     24  C   UNL     1      35.557  -6.567 -27.521  0.00  0.00    +0.015 C 
ATOM     25  C   UNL     1      32.945  -5.524 -27.785  0.00  0.00    +0.007 C 
ATOM     26  C   UNL     1      35.350  -5.294 -28.057  0.00  0.00    +0.001 C 
ATOM     27  C   UNL     1      34.053  -4.776 -28.188  0.00  0.00    +0.001 C 
ATOM     28  H   UNL     1      35.339  -9.050 -26.432  0.00  0.00    +0.149 HD
ENDBRANCH   1  21
BRANCH   5  29
ATOM     29  C   UNL     1      33.069 -13.850 -25.819  0.00  0.00    +0.037 C 
ATOM     30  C   UNL     1      33.240 -14.752 -24.867  0.00  0.00    +0.003 C 
BRANCH  30  31
ATOM     31  C   UNL     1      33.306 -16.202 -25.115  0.00  0.00    +0.000 C 
ATOM     32  C   UNL     1      32.384 -16.787 -25.969  0.00  0.00    +0.000 C 
ATOM     33  C   UNL     1      34.287 -16.954 -24.490  0.00  0.00    +0.000 C 
ATOM     34  C   UNL     1      32.446 -18.161 -26.204  0.00  0.00    +0.000 C 
ATOM     35  C   UNL     1      34.350 -18.328 -24.726  0.00  0.00    +0.000 C 
ATOM     36  C   UNL     1      33.429 -18.931 -25.583  0.00  0.00    +0.000 C 
ENDBRANCH  30  31
ENDBRANCH   5  29
TORSDOF 4
ENDMDL
