MODEL 1
REMARK VINA RESULT:     -12.3      0.000      0.000
REMARK  Name = 23586145
REMARK  7 active torsions:
REMARK  status: ('A' for Active; 'I' for Inactive)
REMARK    1  A    between atoms: C_5  and  O_24
REMARK    2  A    between atoms: C_7  and  N_10
REMARK    3  A    between atoms: N_10  and  C_12
REMARK    4  A    between atoms: C_15  and  S_18
REMARK    5  A    between atoms: S_18  and  N_21
REMARK    6  A    between atoms: O_24  and  C_25
REMARK    7  A    between atoms: C_25  and  C_26
REMARK                            x       y       z     vdW  Elec       q    Type
REMARK                         _______ _______ _______ _____ _____    ______ ____
ROOT
ATOM      1  N   UNL     1      32.200 -23.491 -14.315  0.00  0.00    -0.299 NA
ATOM      2  N   UNL     1      31.258 -23.037 -16.481  0.00  0.00    -0.106 N 
ATOM      3  N   UNL     1      30.033 -22.803 -17.021  0.00  0.00    -0.139 NA
ATOM      4  N   UNL     1      29.844 -23.131 -14.775  0.00  0.00    -0.145 NA
ATOM      5  C   UNL     1      33.339 -23.535 -14.929  0.00  0.00    +0.291 C 
ATOM      6  C   UNL     1      33.596 -23.341 -16.372  0.00  0.00    +0.105 C 
ATOM      7  C   UNL     1      32.506 -23.091 -17.120  0.00  0.00    +0.142 C 
ATOM      8  C   UNL     1      31.116 -23.235 -15.102  0.00  0.00    +0.178 C 
ATOM      9  C   UNL     1      29.235 -22.871 -15.960  0.00  0.00    +0.230 C 
ENDROOT
BRANCH   7  10
ATOM     10  N   UNL     1      32.535 -22.883 -18.469  0.00  0.00    -0.299 N 
ATOM     11  H   UNL     1      31.961 -23.476 -19.006  0.00  0.00    +0.153 HD
BRANCH  10  12
ATOM     12  C   UNL     1      33.277 -21.938 -19.186  0.00  0.00    +0.049 C 
ATOM     13  C   UNL     1      34.676 -22.006 -19.213  0.00  0.00    +0.016 C 
ATOM     14  C   UNL     1      32.629 -20.912 -19.886  0.00  0.00    +0.016 C 
ATOM     15  C   UNL     1      34.761 -20.045 -20.622  0.00  0.00    +0.122 C 
ATOM     16  C   UNL     1      35.414 -21.063 -19.928  0.00  0.00    +0.021 C 
ATOM     17  C   UNL     1      33.368 -19.970 -20.602  0.00  0.00    +0.021 C 
BRANCH  15  18
ATOM     18  S   UNL     1      35.686 -18.865 -21.518  0.00  0.00    +0.057 S 
ATOM     19  O   UNL     1      37.090 -19.019 -21.165  0.00  0.00    -0.153 OA
ATOM     20  O   UNL     1      35.280 -18.924 -22.915  0.00  0.00    -0.153 OA
BRANCH  18  21
ATOM     21  N   UNL     1      35.101 -17.411 -20.838  0.00  0.00    -0.203 NA
ATOM     22  H   UNL     1      34.798 -17.583 -19.879  0.00  0.00    +0.144 HD
ATOM     23  H   UNL     1      34.313 -17.071 -21.388  0.00  0.00    +0.144 HD
ENDBRANCH  18  21
ENDBRANCH  15  18
ENDBRANCH  10  12
ENDBRANCH   7  10
BRANCH   5  24
ATOM     24  O   UNL     1      34.453 -23.778 -14.246  0.00  0.00    -0.451 OA
BRANCH  24  25
ATOM     25  C   UNL     1      35.618 -23.153 -14.750  0.00  0.00    +0.208 C 
BRANCH  25  26
ATOM     26  C   UNL     1      36.838 -23.810 -14.106  0.00  0.00    +0.044 C 
ATOM     27  C   UNL     1      36.414 -25.004 -13.239  0.00  0.00    +0.004 C 
ATOM     28  C   UNL     1      37.848 -24.244 -15.176  0.00  0.00    +0.004 C 
ATOM     29  C   UNL     1      37.621 -25.711 -12.625  0.00  0.00    +0.000 C 
ATOM     30  C   UNL     1      39.053 -24.952 -14.559  0.00  0.00    +0.000 C 
ATOM     31  C   UNL     1      38.628 -26.132 -13.691  0.00  0.00    +0.000 C 
ENDBRANCH  25  26
ENDBRANCH  24  25
ENDBRANCH   5  24
TORSDOF 7
ENDMDL
MODEL 2
REMARK VINA RESULT:     -11.9      3.419      7.078
REMARK  Name = 23586145
REMARK  7 active torsions:
REMARK  status: ('A' for Active; 'I' for Inactive)
REMARK    1  A    between atoms: C_5  and  O_24
REMARK    2  A    between atoms: C_7  and  N_10
REMARK    3  A    between atoms: N_10  and  C_12
REMARK    4  A    between atoms: C_15  and  S_18
REMARK    5  A    between atoms: S_18  and  N_21
REMARK    6  A    between atoms: O_24  and  C_25
REMARK    7  A    between atoms: C_25  and  C_26
REMARK                            x       y       z     vdW  Elec       q    Type
REMARK                         _______ _______ _______ _____ _____    ______ ____
ROOT
ATOM      1  N   UNL     1      30.920 -23.488 -16.430  0.00  0.00    -0.299 NA
ATOM      2  N   UNL     1      31.747 -24.418 -14.371  0.00  0.00    -0.106 N 
ATOM      3  N   UNL     1      31.243 -25.015 -13.259  0.00  0.00    -0.139 NA
ATOM      4  N   UNL     1      29.552 -24.482 -14.688  0.00  0.00    -0.145 NA
ATOM      5  C   UNL     1      32.160 -23.231 -16.696  0.00  0.00    +0.291 C 
ATOM      6  C   UNL     1      33.345 -23.524 -15.860  0.00  0.00    +0.105 C 
ATOM      7  C   UNL     1      33.082 -24.127 -14.687  0.00  0.00    +0.142 C 
ATOM      8  C   UNL     1      30.690 -24.100 -15.233  0.00  0.00    +0.178 C 
ATOM      9  C   UNL     1      29.938 -25.026 -13.506  0.00  0.00    +0.230 C 
ENDROOT
BRANCH   7  10
ATOM     10  N   UNL     1      34.038 -24.480 -13.778  0.00  0.00    -0.299 N 
ATOM     11  H   UNL     1      33.740 -24.531 -12.841  0.00  0.00    +0.153 HD
BRANCH  10  12
ATOM     12  C   UNL     1      35.387 -24.776 -14.005  0.00  0.00    +0.049 C 
ATOM     13  C   UNL     1      35.748 -25.837 -14.846  0.00  0.00    +0.016 C 
ATOM     14  C   UNL     1      36.392 -24.015 -13.395  0.00  0.00    +0.016 C 
ATOM     15  C   UNL     1      38.087 -25.368 -14.460  0.00  0.00    +0.122 C 
ATOM     16  C   UNL     1      37.092 -26.131 -15.072  0.00  0.00    +0.021 C 
ATOM     17  C   UNL     1      37.736 -24.309 -13.621  0.00  0.00    +0.021 C 
BRANCH  15  18
ATOM     18  S   UNL     1      39.769 -25.737 -14.743  0.00  0.00    +0.057 S 
ATOM     19  O   UNL     1      40.572 -24.629 -14.247  0.00  0.00    -0.153 OA
ATOM     20  O   UNL     1      40.032 -27.089 -14.270  0.00  0.00    -0.153 OA
BRANCH  18  21
ATOM     21  N   UNL     1      39.819 -25.735 -16.451  0.00  0.00    -0.203 NA
ATOM     22  H   UNL     1      39.751 -26.693 -16.794  0.00  0.00    +0.144 HD
ATOM     23  H   UNL     1      40.697 -25.323 -16.765  0.00  0.00    +0.144 HD
ENDBRANCH  18  21
ENDBRANCH  15  18
ENDBRANCH  10  12
ENDBRANCH   7  10
BRANCH   5  24
ATOM     24  O   UNL     1      32.485 -22.636 -17.840  0.00  0.00    -0.451 OA
BRANCH  24  25
ATOM     25  C   UNL     1      33.844 -22.753 -18.216  0.00  0.00    +0.208 C 
BRANCH  25  26
ATOM     26  C   UNL     1      34.064 -21.944 -19.494  0.00  0.00    +0.044 C 
ATOM     27  C   UNL     1      32.909 -20.958 -19.715  0.00  0.00    +0.004 C 
ATOM     28  C   UNL     1      35.409 -21.208 -19.444  0.00  0.00    +0.004 C 
ATOM     29  C   UNL     1      33.132 -20.100 -20.959  0.00  0.00    +0.000 C 
ATOM     30  C   UNL     1      35.628 -20.349 -20.689  0.00  0.00    +0.000 C 
ATOM     31  C   UNL     1      34.474 -19.377 -20.910  0.00  0.00    +0.000 C 
ENDBRANCH  25  26
ENDBRANCH  24  25
ENDBRANCH   5  24
TORSDOF 7
ENDMDL
MODEL 3
REMARK VINA RESULT:     -11.7      5.237     10.796
REMARK  Name = 23586145
REMARK  7 active torsions:
REMARK  status: ('A' for Active; 'I' for Inactive)
REMARK    1  A    between atoms: C_5  and  O_24
REMARK    2  A    between atoms: C_7  and  N_10
REMARK    3  A    between atoms: N_10  and  C_12
REMARK    4  A    between atoms: C_15  and  S_18
REMARK    5  A    between atoms: S_18  and  N_21
REMARK    6  A    between atoms: O_24  and  C_25
REMARK    7  A    between atoms: C_25  and  C_26
REMARK                            x       y       z     vdW  Elec       q    Type
REMARK                         _______ _______ _______ _____ _____    ______ ____
ROOT
ATOM      1  N   UNL     1      33.711 -15.701 -24.335  0.00  0.00    -0.299 NA
ATOM      2  N   UNL     1      34.504 -17.921 -23.857  0.00  0.00    -0.106 N 
ATOM      3  N   UNL     1      34.478 -19.149 -24.437  0.00  0.00    -0.139 NA
ATOM      4  N   UNL     1      33.392 -17.644 -25.756  0.00  0.00    -0.145 NA
ATOM      5  C   UNL     1      34.253 -15.371 -23.208  0.00  0.00    +0.291 C 
ATOM      6  C   UNL     1      34.982 -16.246 -22.264  0.00  0.00    +0.105 C 
ATOM      7  C   UNL     1      35.083 -17.534 -22.638  0.00  0.00    +0.142 C 
ATOM      8  C   UNL     1      33.832 -17.014 -24.685  0.00  0.00    +0.178 C 
ATOM      9  C   UNL     1      33.805 -18.922 -25.560  0.00  0.00    +0.230 C 
ENDROOT
BRANCH   7  10
ATOM     10  N   UNL     1      35.717 -18.496 -21.906  0.00  0.00    -0.299 N 
ATOM     11  H   UNL     1      36.701 -18.478 -21.935  0.00  0.00    +0.153 HD
BRANCH  10  12
ATOM     12  C   UNL     1      35.148 -19.506 -21.121  0.00  0.00    +0.049 C 
ATOM     13  C   UNL     1      33.757 -19.629 -21.023  0.00  0.00    +0.016 C 
ATOM     14  C   UNL     1      35.965 -20.406 -20.425  0.00  0.00    +0.016 C 
ATOM     15  C   UNL     1      34.012 -21.527 -19.550  0.00  0.00    +0.122 C 
ATOM     16  C   UNL     1      33.191 -20.635 -20.240  0.00  0.00    +0.021 C 
ATOM     17  C   UNL     1      35.400 -21.413 -19.643  0.00  0.00    +0.021 C 
BRANCH  15  18
ATOM     18  S   UNL     1      33.303 -22.787 -18.571  0.00  0.00    +0.057 S 
ATOM     19  O   UNL     1      31.986 -22.346 -18.137  0.00  0.00    -0.153 OA
ATOM     20  O   UNL     1      33.446 -24.055 -19.274  0.00  0.00    -0.153 OA
BRANCH  18  21
ATOM     21  N   UNL     1      34.358 -22.785 -17.226  0.00  0.00    -0.203 NA
ATOM     22  H   UNL     1      33.963 -23.364 -16.485  0.00  0.00    +0.144 HD
ATOM     23  H   UNL     1      34.473 -21.830 -16.887  0.00  0.00    +0.144 HD
ENDBRANCH  18  21
ENDBRANCH  15  18
ENDBRANCH  10  12
ENDBRANCH   7  10
BRANCH   5  24
ATOM     24  O   UNL     1      34.188 -14.113 -22.782  0.00  0.00    -0.451 OA
BRANCH  24  25
ATOM     25  C   UNL     1      33.341 -13.265 -23.533  0.00  0.00    +0.208 C 
BRANCH  25  26
ATOM     26  C   UNL     1      32.251 -12.726 -22.609  0.00  0.00    +0.044 C 
ATOM     27  C   UNL     1      32.481 -13.200 -21.167  0.00  0.00    +0.004 C 
ATOM     28  C   UNL     1      32.189 -11.195 -22.677  0.00  0.00    +0.004 C 
ATOM     29  C   UNL     1      31.432 -12.633 -20.213  0.00  0.00    +0.000 C 
ATOM     30  C   UNL     1      31.140 -10.630 -21.720  0.00  0.00    +0.000 C 
ATOM     31  C   UNL     1      31.367 -11.111 -20.290  0.00  0.00    +0.000 C 
ENDBRANCH  25  26
ENDBRANCH  24  25
ENDBRANCH   5  24
TORSDOF 7
ENDMDL
MODEL 4
REMARK VINA RESULT:     -11.3      6.303     11.810
REMARK  Name = 23586145
REMARK  7 active torsions:
REMARK  status: ('A' for Active; 'I' for Inactive)
REMARK    1  A    between atoms: C_5  and  O_24
REMARK    2  A    between atoms: C_7  and  N_10
REMARK    3  A    between atoms: N_10  and  C_12
REMARK    4  A    between atoms: C_15  and  S_18
REMARK    5  A    between atoms: S_18  and  N_21
REMARK    6  A    between atoms: O_24  and  C_25
REMARK    7  A    between atoms: C_25  and  C_26
REMARK                            x       y       z     vdW  Elec       q    Type
REMARK                         _______ _______ _______ _____ _____    ______ ____
ROOT
ATOM      1  N   UNL     1      33.324 -15.253 -24.739  0.00  0.00    -0.299 NA
ATOM      2  N   UNL     1      34.340 -17.368 -24.211  0.00  0.00    -0.106 N 
ATOM      3  N   UNL     1      34.458 -18.600 -24.772  0.00  0.00    -0.139 NA
ATOM      4  N   UNL     1      33.244 -17.237 -26.135  0.00  0.00    -0.145 NA
ATOM      5  C   UNL     1      33.804 -14.852 -23.606  0.00  0.00    +0.291 C 
ATOM      6  C   UNL     1      34.602 -15.631 -22.635  0.00  0.00    +0.105 C 
ATOM      7  C   UNL     1      34.848 -16.905 -22.987  0.00  0.00    +0.142 C 
ATOM      8  C   UNL     1      33.592 -16.550 -25.066  0.00  0.00    +0.178 C 
ATOM      9  C   UNL     1      33.788 -18.460 -25.911  0.00  0.00    +0.230 C 
ENDROOT
BRANCH   7  10
ATOM     10  N   UNL     1      35.566 -17.784 -22.228  0.00  0.00    -0.299 N 
ATOM     11  H   UNL     1      36.538 -17.633 -22.202  0.00  0.00    +0.153 HD
BRANCH  10  12
ATOM     12  C   UNL     1      35.098 -18.874 -21.485  0.00  0.00    +0.049 C 
ATOM     13  C   UNL     1      35.997 -19.725 -20.831  0.00  0.00    +0.016 C 
ATOM     14  C   UNL     1      33.723 -19.125 -21.386  0.00  0.00    +0.016 C 
ATOM     15  C   UNL     1      34.160 -21.054 -19.998  0.00  0.00    +0.122 C 
ATOM     16  C   UNL     1      35.530 -20.811 -20.091  0.00  0.00    +0.021 C 
ATOM     17  C   UNL     1      33.256 -20.211 -20.645  0.00  0.00    +0.021 C 
BRANCH  15  18
ATOM     18  S   UNL     1      33.575 -22.413 -19.070  0.00  0.00    +0.057 S 
ATOM     19  O   UNL     1      32.255 -22.083 -18.554  0.00  0.00    -0.153 OA
ATOM     20  O   UNL     1      33.762 -23.624 -19.857  0.00  0.00    -0.153 OA
BRANCH  18  21
ATOM     21  N   UNL     1      34.689 -22.425 -17.774  0.00  0.00    -0.203 NA
ATOM     22  H   UNL     1      35.594 -22.087 -18.102  0.00  0.00    +0.144 HD
ATOM     23  H   UNL     1      34.788 -23.375 -17.419  0.00  0.00    +0.144 HD
ENDBRANCH  18  21
ENDBRANCH  15  18
ENDBRANCH  10  12
ENDBRANCH   7  10
BRANCH   5  24
ATOM     24  O   UNL     1      33.595 -13.603 -23.200  0.00  0.00    -0.451 OA
BRANCH  24  25
ATOM     25  C   UNL     1      33.149 -12.709 -24.203  0.00  0.00    +0.208 C 
BRANCH  25  26
ATOM     26  C   UNL     1      34.002 -11.443 -24.137  0.00  0.00    +0.044 C 
ATOM     27  C   UNL     1      34.703 -11.192 -25.479  0.00  0.00    +0.004 C 
ATOM     28  C   UNL     1      33.147 -10.235 -23.733  0.00  0.00    +0.004 C 
ATOM     29  C   UNL     1      35.522  -9.902 -25.454  0.00  0.00    +0.000 C 
ATOM     30  C   UNL     1      33.968  -8.946 -23.712  0.00  0.00    +0.000 C 
ATOM     31  C   UNL     1      34.670  -8.705 -25.044  0.00  0.00    +0.000 C 
ENDBRANCH  25  26
ENDBRANCH  24  25
ENDBRANCH   5  24
TORSDOF 7
ENDMDL
MODEL 5
REMARK VINA RESULT:     -11.1      5.157     11.317
REMARK  Name = 23586145
REMARK  7 active torsions:
REMARK  status: ('A' for Active; 'I' for Inactive)
REMARK    1  A    between atoms: C_5  and  O_24
REMARK    2  A    between atoms: C_7  and  N_10
REMARK    3  A    between atoms: N_10  and  C_12
REMARK    4  A    between atoms: C_15  and  S_18
REMARK    5  A    between atoms: S_18  and  N_21
REMARK    6  A    between atoms: O_24  and  C_25
REMARK    7  A    between atoms: C_25  and  C_26
REMARK                            x       y       z     vdW  Elec       q    Type
REMARK                         _______ _______ _______ _____ _____    ______ ____
ROOT
ATOM      1  N   UNL     1      34.034 -15.457 -24.067  0.00  0.00    -0.299 NA
ATOM      2  N   UNL     1      34.830 -16.324 -21.969  0.00  0.00    -0.106 N 
ATOM      3  N   UNL     1      34.873 -15.936 -20.668  0.00  0.00    -0.139 NA
ATOM      4  N   UNL     1      33.864 -14.327 -21.925  0.00  0.00    -0.145 NA
ATOM      5  C   UNL     1      34.481 -16.558 -24.578  0.00  0.00    +0.291 C 
ATOM      6  C   UNL     1      35.150 -17.675 -23.877  0.00  0.00    +0.105 C 
ATOM      7  C   UNL     1      35.305 -17.508 -22.552  0.00  0.00    +0.142 C 
ATOM      8  C   UNL     1      34.207 -15.320 -22.721  0.00  0.00    +0.178 C 
ATOM      9  C   UNL     1      34.285 -14.745 -20.704  0.00  0.00    +0.230 C 
ENDROOT
BRANCH   7  10
ATOM     10  N   UNL     1      35.897 -18.423 -21.730  0.00  0.00    -0.299 N 
ATOM     11  H   UNL     1      36.874 -18.348 -21.637  0.00  0.00    +0.153 HD
BRANCH  10  12
ATOM     12  C   UNL     1      35.294 -19.456 -21.002  0.00  0.00    +0.049 C 
ATOM     13  C   UNL     1      33.900 -19.593 -20.988  0.00  0.00    +0.016 C 
ATOM     14  C   UNL     1      36.078 -20.364 -20.279  0.00  0.00    +0.016 C 
ATOM     15  C   UNL     1      34.088 -21.522 -19.545  0.00  0.00    +0.122 C 
ATOM     16  C   UNL     1      33.300 -20.622 -20.263  0.00  0.00    +0.021 C 
ATOM     17  C   UNL     1      35.478 -21.393 -19.554  0.00  0.00    +0.021 C 
BRANCH  15  18
ATOM     18  S   UNL     1      33.336 -22.811 -18.638  0.00  0.00    +0.057 S 
ATOM     19  O   UNL     1      32.010 -22.371 -18.230  0.00  0.00    -0.153 OA
ATOM     20  O   UNL     1      33.490 -24.052 -19.383  0.00  0.00    -0.153 OA
BRANCH  18  21
ATOM     21  N   UNL     1      34.346 -22.869 -17.260  0.00  0.00    -0.203 NA
ATOM     22  H   UNL     1      35.232 -22.408 -17.470  0.00  0.00    +0.144 HD
ATOM     23  H   UNL     1      34.520 -23.841 -17.008  0.00  0.00    +0.144 HD
ENDBRANCH  18  21
ENDBRANCH  15  18
ENDBRANCH  10  12
ENDBRANCH   7  10
BRANCH   5  24
ATOM     24  O   UNL     1      34.358 -16.783 -25.883  0.00  0.00    -0.451 OA
BRANCH  24  25
ATOM     25  C   UNL     1      33.098 -17.277 -26.295  0.00  0.00    +0.208 C 
BRANCH  25  26
ATOM     26  C   UNL     1      32.447 -16.241 -27.209  0.00  0.00    +0.044 C 
ATOM     27  C   UNL     1      30.917 -16.304 -27.096  0.00  0.00    +0.004 C 
ATOM     28  C   UNL     1      32.961 -14.833 -26.886  0.00  0.00    +0.004 C 
ATOM     29  C   UNL     1      30.243 -15.242 -27.963  0.00  0.00    +0.000 C 
ATOM     30  C   UNL     1      32.284 -13.772 -27.753  0.00  0.00    +0.000 C 
ATOM     31  C   UNL     1      30.764 -13.844 -27.644  0.00  0.00    +0.000 C 
ENDBRANCH  25  26
ENDBRANCH  24  25
ENDBRANCH   5  24
TORSDOF 7
ENDMDL
MODEL 6
REMARK VINA RESULT:     -11.0      3.715      7.494
REMARK  Name = 23586145
REMARK  7 active torsions:
REMARK  status: ('A' for Active; 'I' for Inactive)
REMARK    1  A    between atoms: C_5  and  O_24
REMARK    2  A    between atoms: C_7  and  N_10
REMARK    3  A    between atoms: N_10  and  C_12
REMARK    4  A    between atoms: C_15  and  S_18
REMARK    5  A    between atoms: S_18  and  N_21
REMARK    6  A    between atoms: O_24  and  C_25
REMARK    7  A    between atoms: C_25  and  C_26
REMARK                            x       y       z     vdW  Elec       q    Type
REMARK                         _______ _______ _______ _____ _____    ______ ____
ROOT
ATOM      1  N   UNL     1      32.805 -21.643 -19.551  0.00  0.00    -0.299 NA
ATOM      2  N   UNL     1      35.120 -21.389 -18.951  0.00  0.00    -0.106 N 
ATOM      3  N   UNL     1      36.220 -20.744 -19.421  0.00  0.00    -0.139 NA
ATOM      4  N   UNL     1      34.435 -20.323 -20.772  0.00  0.00    -0.145 NA
ATOM      5  C   UNL     1      32.718 -22.396 -18.502  0.00  0.00    +0.291 C 
ATOM      6  C   UNL     1      33.793 -22.747 -17.549  0.00  0.00    +0.105 C 
ATOM      7  C   UNL     1      34.997 -22.210 -17.820  0.00  0.00    +0.142 C 
ATOM      8  C   UNL     1      34.038 -21.115 -19.797  0.00  0.00    +0.178 C 
ATOM      9  C   UNL     1      35.751 -20.129 -20.502  0.00  0.00    +0.230 C 
ENDROOT
BRANCH   7  10
ATOM     10  N   UNL     1      36.113 -22.413 -17.061  0.00  0.00    -0.299 N 
ATOM     11  H   UNL     1      36.954 -22.061 -17.433  0.00  0.00    +0.153 HD
BRANCH  10  12
ATOM     12  C   UNL     1      36.217 -23.057 -15.823  0.00  0.00    +0.049 C 
ATOM     13  C   UNL     1      37.390 -23.738 -15.475  0.00  0.00    +0.016 C 
ATOM     14  C   UNL     1      35.148 -23.028 -14.918  0.00  0.00    +0.016 C 
ATOM     15  C   UNL     1      36.424 -24.347 -13.345  0.00  0.00    +0.122 C 
ATOM     16  C   UNL     1      37.492 -24.381 -14.241  0.00  0.00    +0.021 C 
ATOM     17  C   UNL     1      35.251 -23.671 -13.684  0.00  0.00    +0.021 C 
BRANCH  15  18
ATOM     18  S   UNL     1      36.552 -25.151 -11.801  0.00  0.00    +0.057 S 
ATOM     19  O   UNL     1      36.737 -26.576 -12.039  0.00  0.00    -0.153 OA
ATOM     20  O   UNL     1      37.511 -24.425 -10.980  0.00  0.00    -0.153 OA
BRANCH  18  21
ATOM     21  N   UNL     1      34.985 -24.895 -11.170  0.00  0.00    -0.203 NA
ATOM     22  H   UNL     1      35.055 -24.608 -10.194  0.00  0.00    +0.144 HD
ATOM     23  H   UNL     1      34.448 -25.759 -11.233  0.00  0.00    +0.144 HD
ENDBRANCH  18  21
ENDBRANCH  15  18
ENDBRANCH  10  12
ENDBRANCH   7  10
BRANCH   5  24
ATOM     24  O   UNL     1      31.557 -22.957 -18.180  0.00  0.00    -0.451 OA
BRANCH  24  25
ATOM     25  C   UNL     1      30.989 -22.512 -16.963  0.00  0.00    +0.208 C 
BRANCH  25  26
ATOM     26  C   UNL     1      30.990 -23.676 -15.973  0.00  0.00    +0.044 C 
ATOM     27  C   UNL     1      31.596 -23.244 -14.630  0.00  0.00    +0.004 C 
ATOM     28  C   UNL     1      29.571 -24.225 -15.781  0.00  0.00    +0.004 C 
ATOM     29  C   UNL     1      31.561 -24.377 -13.606  0.00  0.00    +0.000 C 
ATOM     30  C   UNL     1      29.538 -25.356 -14.754  0.00  0.00    +0.000 C 
ATOM     31  C   UNL     1      30.149 -24.926 -13.425  0.00  0.00    +0.000 C 
ENDBRANCH  25  26
ENDBRANCH  24  25
ENDBRANCH   5  24
TORSDOF 7
ENDMDL
MODEL 7
REMARK VINA RESULT:     -11.0      2.449      5.269
REMARK  Name = 23586145
REMARK  7 active torsions:
REMARK  status: ('A' for Active; 'I' for Inactive)
REMARK    1  A    between atoms: C_5  and  O_24
REMARK    2  A    between atoms: C_7  and  N_10
REMARK    3  A    between atoms: N_10  and  C_12
REMARK    4  A    between atoms: C_15  and  S_18
REMARK    5  A    between atoms: S_18  and  N_21
REMARK    6  A    between atoms: O_24  and  C_25
REMARK    7  A    between atoms: C_25  and  C_26
REMARK                            x       y       z     vdW  Elec       q    Type
REMARK                         _______ _______ _______ _____ _____    ______ ____
ROOT
ATOM      1  N   UNL     1      34.541 -23.349 -14.600  0.00  0.00    -0.299 NA
ATOM      2  N   UNL     1      35.206 -22.774 -16.839  0.00  0.00    -0.106 N 
ATOM      3  N   UNL     1      36.317 -22.321 -17.477  0.00  0.00    -0.139 NA
ATOM      4  N   UNL     1      36.740 -22.554 -15.251  0.00  0.00    -0.145 NA
ATOM      5  C   UNL     1      33.388 -23.624 -15.119  0.00  0.00    +0.291 C 
ATOM      6  C   UNL     1      32.986 -23.517 -16.539  0.00  0.00    +0.105 C 
ATOM      7  C   UNL     1      33.946 -23.080 -17.374  0.00  0.00    +0.142 C 
ATOM      8  C   UNL     1      35.491 -22.908 -15.474  0.00  0.00    +0.178 C 
ATOM      9  C   UNL     1      37.193 -22.210 -16.484  0.00  0.00    +0.230 C 
ENDROOT
BRANCH   7  10
ATOM     10  N   UNL     1      33.773 -22.914 -18.718  0.00  0.00    -0.299 N 
ATOM     11  H   UNL     1      33.448 -23.703 -19.209  0.00  0.00    +0.153 HD
BRANCH  10  12
ATOM     12  C   UNL     1      34.001 -21.768 -19.489  0.00  0.00    +0.049 C 
ATOM     13  C   UNL     1      32.930 -20.967 -19.902  0.00  0.00    +0.016 C 
ATOM     14  C   UNL     1      35.305 -21.410 -19.856  0.00  0.00    +0.016 C 
ATOM     15  C   UNL     1      34.458 -19.476 -21.031  0.00  0.00    +0.122 C 
ATOM     16  C   UNL     1      33.158 -19.825 -20.670  0.00  0.00    +0.021 C 
ATOM     17  C   UNL     1      35.533 -20.268 -20.624  0.00  0.00    +0.021 C 
BRANCH  15  18
ATOM     18  S   UNL     1      34.743 -18.046 -21.993  0.00  0.00    +0.057 S 
ATOM     19  O   UNL     1      33.793 -18.037 -23.095  0.00  0.00    -0.153 OA
ATOM     20  O   UNL     1      34.828 -16.898 -21.101  0.00  0.00    -0.153 OA
BRANCH  18  21
ATOM     21  N   UNL     1      36.302 -18.376 -22.611  0.00  0.00    -0.203 NA
ATOM     22  H   UNL     1      36.322 -19.321 -22.994  0.00  0.00    +0.144 HD
ATOM     23  H   UNL     1      36.988 -18.299 -21.861  0.00  0.00    +0.144 HD
ENDBRANCH  18  21
ENDBRANCH  15  18
ENDBRANCH  10  12
ENDBRANCH   7  10
BRANCH   5  24
ATOM     24  O   UNL     1      32.398 -24.060 -14.347  0.00  0.00    -0.451 OA
BRANCH  24  25
ATOM     25  C   UNL     1      31.553 -23.053 -13.822  0.00  0.00    +0.208 C 
BRANCH  25  26
ATOM     26  C   UNL     1      30.113 -23.377 -14.214  0.00  0.00    +0.044 C 
ATOM     27  C   UNL     1      29.646 -22.468 -15.360  0.00  0.00    +0.004 C 
ATOM     28  C   UNL     1      29.974 -24.855 -14.598  0.00  0.00    +0.004 C 
ATOM     29  C   UNL     1      28.225 -22.807 -15.805  0.00  0.00    +0.000 C 
ATOM     30  C   UNL     1      28.552 -25.191 -15.045  0.00  0.00    +0.000 C 
ATOM     31  C   UNL     1      28.089 -24.280 -16.177  0.00  0.00    +0.000 C 
ENDBRANCH  25  26
ENDBRANCH  24  25
ENDBRANCH   5  24
TORSDOF 7
ENDMDL
MODEL 8
REMARK VINA RESULT:     -10.9      3.368      7.355
REMARK  Name = 23586145
REMARK  7 active torsions:
REMARK  status: ('A' for Active; 'I' for Inactive)
REMARK    1  A    between atoms: C_5  and  O_24
REMARK    2  A    between atoms: C_7  and  N_10
REMARK    3  A    between atoms: N_10  and  C_12
REMARK    4  A    between atoms: C_15  and  S_18
REMARK    5  A    between atoms: S_18  and  N_21
REMARK    6  A    between atoms: O_24  and  C_25
REMARK    7  A    between atoms: C_25  and  C_26
REMARK                            x       y       z     vdW  Elec       q    Type
REMARK                         _______ _______ _______ _____ _____    ______ ____
ROOT
ATOM      1  N   UNL     1      31.682 -22.213 -18.211  0.00  0.00    -0.299 NA
ATOM      2  N   UNL     1      31.882 -23.335 -16.093  0.00  0.00    -0.106 N 
ATOM      3  N   UNL     1      31.067 -23.732 -15.080  0.00  0.00    -0.139 NA
ATOM      4  N   UNL     1      29.843 -22.708 -16.705  0.00  0.00    -0.145 NA
ATOM      5  C   UNL     1      32.964 -22.364 -18.299  0.00  0.00    +0.291 C 
ATOM      6  C   UNL     1      33.870 -23.006 -17.322  0.00  0.00    +0.105 C 
ATOM      7  C   UNL     1      33.271 -23.483 -16.216  0.00  0.00    +0.142 C 
ATOM      8  C   UNL     1      31.108 -22.709 -17.078  0.00  0.00    +0.178 C 
ATOM      9  C   UNL     1      29.872 -23.333 -15.500  0.00  0.00    +0.230 C 
ENDROOT
BRANCH   7  10
ATOM     10  N   UNL     1      33.932 -24.109 -15.198  0.00  0.00    -0.299 N 
ATOM     11  H   UNL     1      33.387 -24.342 -14.412  0.00  0.00    +0.153 HD
BRANCH  10  12
ATOM     12  C   UNL     1      35.285 -24.462 -15.128  0.00  0.00    +0.049 C 
ATOM     13  C   UNL     1      35.662 -25.804 -15.000  0.00  0.00    +0.016 C 
ATOM     14  C   UNL     1      36.277 -23.475 -15.185  0.00  0.00    +0.016 C 
ATOM     15  C   UNL     1      37.993 -25.165 -14.987  0.00  0.00    +0.122 C 
ATOM     16  C   UNL     1      37.011 -26.154 -14.929  0.00  0.00    +0.021 C 
ATOM     17  C   UNL     1      37.626 -23.825 -15.114  0.00  0.00    +0.021 C 
BRANCH  15  18
ATOM     18  S   UNL     1      39.680 -25.603 -14.899  0.00  0.00    +0.057 S 
ATOM     19  O   UNL     1      40.204 -25.688 -16.255  0.00  0.00    -0.153 OA
ATOM     20  O   UNL     1      40.332 -24.740 -13.924  0.00  0.00    -0.153 OA
BRANCH  18  21
ATOM     21  N   UNL     1      39.573 -27.180 -14.249  0.00  0.00    -0.203 NA
ATOM     22  H   UNL     1      38.930 -27.736 -14.813  0.00  0.00    +0.144 HD
ATOM     23  H   UNL     1      39.228 -27.130 -13.291  0.00  0.00    +0.144 HD
ENDBRANCH  18  21
ENDBRANCH  15  18
ENDBRANCH  10  12
ENDBRANCH   7  10
BRANCH   5  24
ATOM     24  O   UNL     1      33.615 -21.913 -19.368  0.00  0.00    -0.451 OA
BRANCH  24  25
ATOM     25  C   UNL     1      32.888 -21.012 -20.181  0.00  0.00    +0.208 C 
BRANCH  25  26
ATOM     26  C   UNL     1      33.821 -19.877 -20.601  0.00  0.00    +0.044 C 
ATOM     27  C   UNL     1      35.288 -20.317 -20.498  0.00  0.00    +0.004 C 
ATOM     28  C   UNL     1      33.491 -19.401 -22.022  0.00  0.00    +0.004 C 
ATOM     29  C   UNL     1      36.240 -19.216 -20.962  0.00  0.00    +0.000 C 
ATOM     30  C   UNL     1      34.446 -18.302 -22.484  0.00  0.00    +0.000 C 
ATOM     31  C   UNL     1      35.903 -18.739 -22.372  0.00  0.00    +0.000 C 
ENDBRANCH  25  26
ENDBRANCH  24  25
ENDBRANCH   5  24
TORSDOF 7
ENDMDL
MODEL 9
REMARK VINA RESULT:     -10.9      6.409     10.060
REMARK  Name = 23586145
REMARK  7 active torsions:
REMARK  status: ('A' for Active; 'I' for Inactive)
REMARK    1  A    between atoms: C_5  and  O_24
REMARK    2  A    between atoms: C_7  and  N_10
REMARK    3  A    between atoms: N_10  and  C_12
REMARK    4  A    between atoms: C_15  and  S_18
REMARK    5  A    between atoms: S_18  and  N_21
REMARK    6  A    between atoms: O_24  and  C_25
REMARK    7  A    between atoms: C_25  and  C_26
REMARK                            x       y       z     vdW  Elec       q    Type
REMARK                         _______ _______ _______ _____ _____    ______ ____
ROOT
ATOM      1  N   UNL     1      33.180 -18.463 -24.889  0.00  0.00    -0.299 NA
ATOM      2  N   UNL     1      33.382 -16.101 -25.297  0.00  0.00    -0.106 N 
ATOM      3  N   UNL     1      33.004 -15.205 -26.246  0.00  0.00    -0.139 NA
ATOM      4  N   UNL     1      32.291 -17.290 -26.820  0.00  0.00    -0.145 NA
ATOM      5  C   UNL     1      33.845 -18.231 -23.803  0.00  0.00    +0.291 C 
ATOM      6  C   UNL     1      34.362 -16.933 -23.318  0.00  0.00    +0.105 C 
ATOM      7  C   UNL     1      34.101 -15.880 -24.113  0.00  0.00    +0.142 C 
ATOM      8  C   UNL     1      32.933 -17.374 -25.672  0.00  0.00    +0.178 C 
ATOM      9  C   UNL     1      32.361 -15.969 -27.123  0.00  0.00    +0.230 C 
ENDROOT
BRANCH   7  10
ATOM     10  N   UNL     1      34.492 -14.601 -23.841  0.00  0.00    -0.299 N 
ATOM     11  H   UNL     1      35.434 -14.390 -24.035  0.00  0.00    +0.153 HD
BRANCH  10  12
ATOM     12  C   UNL     1      33.727 -13.551 -23.320  0.00  0.00    +0.049 C 
ATOM     13  C   UNL     1      33.617 -12.341 -24.016  0.00  0.00    +0.016 C 
ATOM     14  C   UNL     1      33.062 -13.698 -22.096  0.00  0.00    +0.016 C 
ATOM     15  C   UNL     1      32.196 -11.450 -22.277  0.00  0.00    +0.122 C 
ATOM     16  C   UNL     1      32.854 -11.295 -23.497  0.00  0.00    +0.021 C 
ATOM     17  C   UNL     1      32.300 -12.653 -21.576  0.00  0.00    +0.021 C 
BRANCH  15  18
ATOM     18  S   UNL     1      31.241 -10.141 -21.627  0.00  0.00    +0.057 S 
ATOM     19  O   UNL     1      32.028  -9.461 -20.607  0.00  0.00    -0.153 OA
ATOM     20  O   UNL     1      30.683  -9.380 -22.736  0.00  0.00    -0.153 OA
BRANCH  18  21
ATOM     21  N   UNL     1      29.979 -11.006 -20.865  0.00  0.00    -0.203 NA
ATOM     22  H   UNL     1      29.083 -10.586 -21.113  0.00  0.00    +0.144 HD
ATOM     23  H   UNL     1      30.104 -10.970 -19.854  0.00  0.00    +0.144 HD
ENDBRANCH  18  21
ENDBRANCH  15  18
ENDBRANCH  10  12
ENDBRANCH   7  10
BRANCH   5  24
ATOM     24  O   UNL     1      34.134 -19.230 -22.975  0.00  0.00    -0.451 OA
BRANCH  24  25
ATOM     25  C   UNL     1      34.977 -18.890 -21.890  0.00  0.00    +0.208 C 
BRANCH  25  26
ATOM     26  C   UNL     1      34.519 -19.668 -20.658  0.00  0.00    +0.044 C 
ATOM     27  C   UNL     1      33.081 -20.173 -20.841  0.00  0.00    +0.004 C 
ATOM     28  C   UNL     1      35.474 -20.833 -20.366  0.00  0.00    +0.004 C 
ATOM     29  C   UNL     1      32.617 -21.000 -19.643  0.00  0.00    +0.000 C 
ATOM     30  C   UNL     1      35.006 -21.659 -19.169  0.00  0.00    +0.000 C 
ATOM     31  C   UNL     1      33.574 -22.151 -19.351  0.00  0.00    +0.000 C 
ENDBRANCH  25  26
ENDBRANCH  24  25
ENDBRANCH   5  24
TORSDOF 7
ENDMDL
