MODEL 1
REMARK VINA RESULT:     -12.5      0.000      0.000
REMARK  Name = 22479942
REMARK  4 active torsions:
REMARK  status: ('A' for Active; 'I' for Inactive)
REMARK    1  A    between atoms: C_4  and  C_17
REMARK    2  A    between atoms: C_7  and  C_14
REMARK    3  A    between atoms: C_20  and  N_24
REMARK    4  A    between atoms: C_25  and  C_28
REMARK                            x       y       z     vdW  Elec       q    Type
REMARK                         _______ _______ _______ _____ _____    ______ ____
ROOT
ATOM      1  N   UNL     1      30.909 -23.072 -17.219  0.00  0.00    -0.276 N 
ATOM      2  N   UNL     1      31.689 -22.493 -18.148  0.00  0.00    -0.173 NA
ATOM      3  C   UNL     1      32.918 -23.178 -16.344  0.00  0.00    +0.036 A 
ATOM      4  C   UNL     1      32.909 -22.559 -17.612  0.00  0.00    +0.102 A 
ATOM      5  C   UNL     1      31.587 -23.505 -16.110  0.00  0.00    +0.075 A 
ATOM      6  C   UNL     1      33.885 -23.496 -15.375  0.00  0.00    +0.006 C 
ATOM      7  C   UNL     1      33.469 -24.138 -14.201  0.00  0.00    +0.033 C 
ATOM      8  C   UNL     1      31.151 -24.144 -14.947  0.00  0.00    +0.019 C 
ATOM      9  C   UNL     1      32.125 -24.455 -13.993  0.00  0.00    +0.004 C 
ATOM     10  H   UNL     1      29.937 -23.176 -17.326  0.00  0.00    +0.189 HD
ENDROOT
BRANCH   7  14
ATOM     11  N   UNL     1      35.411 -25.412 -13.378  0.00  0.00    -0.218 N 
ATOM     12  N   UNL     1      34.557 -23.956 -11.991  0.00  0.00    -0.206 NA
ATOM     13  N   UNL     1      36.187 -25.533 -12.290  0.00  0.00    -0.157 NA
ATOM     14  C   UNL     1      34.445 -24.473 -13.193  0.00  0.00    +0.149 C 
ATOM     15  C   UNL     1      35.629 -24.630 -11.480  0.00  0.00    +0.218 C 
ATOM     16  H   UNL     1      35.527 -25.936 -14.204  0.00  0.00    +0.176 HD
ENDBRANCH   7  14
BRANCH   4  17
ATOM     17  C   UNL     1      34.042 -22.030 -18.328  0.00  0.00    +0.021 C 
ATOM     18  C   UNL     1      33.847 -21.308 -19.506  0.00  0.00    +0.016 C 
ATOM     19  C   UNL     1      35.332 -22.239 -17.843  0.00  0.00    +0.002 C 
ATOM     20  C   UNL     1      34.944 -20.796 -20.199  0.00  0.00    +0.051 C 
ATOM     21  C   UNL     1      36.429 -21.726 -18.536  0.00  0.00    +0.001 C 
ATOM     22  C   UNL     1      36.236 -21.005 -19.714  0.00  0.00    +0.015 C 
BRANCH  20  24
ATOM     23  O   UNL     1      35.068 -17.874 -20.678  0.00  0.00    -0.266 OA
ATOM     24  N   UNL     1      34.751 -20.073 -21.377  0.00  0.00    -0.278 N 
ATOM     25  C   UNL     1      34.818 -18.679 -21.571  0.00  0.00    +0.284 C 
ATOM     26  H   UNL     1      34.542 -20.608 -22.177  0.00  0.00    +0.155 HD
BRANCH  25  28
ATOM     27  O   UNL     1      34.553 -16.888 -23.187  0.00  0.00    -0.446 OA
ATOM     28  C   UNL     1      34.521 -18.224 -22.940  0.00  0.00    +0.199 C 
ATOM     29  C   UNL     1      34.200 -18.918 -24.083  0.00  0.00    +0.045 C 
ATOM     30  C   UNL     1      34.024 -17.946 -25.097  0.00  0.00    +0.044 C 
ATOM     31  C   UNL     1      34.250 -16.727 -24.501  0.00  0.00    +0.180 C 
ENDBRANCH  25  28
ENDBRANCH  20  24
ENDBRANCH   4  17
TORSDOF 4
ENDMDL
MODEL 2
REMARK VINA RESULT:     -11.7      1.654      2.305
REMARK  Name = 22479942
REMARK  4 active torsions:
REMARK  status: ('A' for Active; 'I' for Inactive)
REMARK    1  A    between atoms: C_4  and  C_17
REMARK    2  A    between atoms: C_7  and  C_14
REMARK    3  A    between atoms: C_20  and  N_24
REMARK    4  A    between atoms: C_25  and  C_28
REMARK                            x       y       z     vdW  Elec       q    Type
REMARK                         _______ _______ _______ _____ _____    ______ ____
ROOT
ATOM      1  N   UNL     1      31.900 -22.512 -18.288  0.00  0.00    -0.276 N 
ATOM      2  N   UNL     1      32.443 -21.732 -19.238  0.00  0.00    -0.173 NA
ATOM      3  C   UNL     1      34.025 -22.446 -17.747  0.00  0.00    +0.036 A 
ATOM      4  C   UNL     1      33.735 -21.695 -18.906  0.00  0.00    +0.102 A 
ATOM      5  C   UNL     1      32.798 -22.972 -17.361  0.00  0.00    +0.075 A 
ATOM      6  C   UNL     1      35.169 -22.738 -16.986  0.00  0.00    +0.006 C 
ATOM      7  C   UNL     1      35.031 -23.558 -15.858  0.00  0.00    +0.033 C 
ATOM      8  C   UNL     1      32.637 -23.791 -16.240  0.00  0.00    +0.019 C 
ATOM      9  C   UNL     1      33.785 -24.073 -15.494  0.00  0.00    +0.004 C 
ATOM     10  H   UNL     1      30.942 -22.733 -18.260  0.00  0.00    +0.189 HD
ENDROOT
BRANCH   7  14
ATOM     11  N   UNL     1      37.463 -23.797 -15.541  0.00  0.00    -0.218 N 
ATOM     12  N   UNL     1      36.217 -24.259 -13.807  0.00  0.00    -0.206 NA
ATOM     13  N   UNL     1      38.359 -24.139 -14.602  0.00  0.00    -0.157 NA
ATOM     14  C   UNL     1      36.193 -23.870 -15.061  0.00  0.00    +0.149 C 
ATOM     15  C   UNL     1      37.553 -24.409 -13.572  0.00  0.00    +0.218 C 
ATOM     16  H   UNL     1      37.697 -23.527 -16.459  0.00  0.00    +0.176 HD
ENDBRANCH   7  14
BRANCH   4  17
ATOM     17  C   UNL     1      34.666 -20.941 -19.708  0.00  0.00    +0.021 C 
ATOM     18  C   UNL     1      34.194 -20.083 -20.702  0.00  0.00    +0.016 C 
ATOM     19  C   UNL     1      36.036 -21.069 -19.490  0.00  0.00    +0.002 C 
ATOM     20  C   UNL     1      35.094 -19.353 -21.477  0.00  0.00    +0.051 C 
ATOM     21  C   UNL     1      36.937 -20.340 -20.267  0.00  0.00    +0.001 C 
ATOM     22  C   UNL     1      36.467 -19.481 -21.260  0.00  0.00    +0.015 C 
BRANCH  20  24
ATOM     23  O   UNL     1      34.634 -19.853 -24.362  0.00  0.00    -0.266 OA
ATOM     24  N   UNL     1      34.624 -18.493 -22.471  0.00  0.00    -0.278 N 
ATOM     25  C   UNL     1      34.415 -18.763 -23.838  0.00  0.00    +0.284 C 
ATOM     26  H   UNL     1      34.409 -17.578 -22.177  0.00  0.00    +0.155 HD
BRANCH  25  28
ATOM     27  O   UNL     1      33.868 -16.407 -24.027  0.00  0.00    -0.446 OA
ATOM     28  C   UNL     1      33.945 -17.619 -24.637  0.00  0.00    +0.199 C 
ATOM     29  C   UNL     1      33.547 -17.525 -25.950  0.00  0.00    +0.045 C 
ATOM     30  C   UNL     1      33.203 -16.168 -26.160  0.00  0.00    +0.044 C 
ATOM     31  C   UNL     1      33.416 -15.529 -24.960  0.00  0.00    +0.180 C 
ENDBRANCH  25  28
ENDBRANCH  20  24
ENDBRANCH   4  17
TORSDOF 4
ENDMDL
MODEL 3
REMARK VINA RESULT:     -11.7      7.264     11.516
REMARK  Name = 22479942
REMARK  4 active torsions:
REMARK  status: ('A' for Active; 'I' for Inactive)
REMARK    1  A    between atoms: C_4  and  C_17
REMARK    2  A    between atoms: C_7  and  C_14
REMARK    3  A    between atoms: C_20  and  N_24
REMARK    4  A    between atoms: C_25  and  C_28
REMARK                            x       y       z     vdW  Elec       q    Type
REMARK                         _______ _______ _______ _____ _____    ______ ____
ROOT
ATOM      1  N   UNL     1      31.223 -16.514 -27.785  0.00  0.00    -0.276 N 
ATOM      2  N   UNL     1      31.530 -15.212 -27.914  0.00  0.00    -0.173 NA
ATOM      3  C   UNL     1      32.704 -16.177 -26.204  0.00  0.00    +0.036 A 
ATOM      4  C   UNL     1      32.431 -15.011 -26.951  0.00  0.00    +0.102 A 
ATOM      5  C   UNL     1      31.894 -17.151 -26.776  0.00  0.00    +0.075 A 
ATOM      6  C   UNL     1      33.533 -16.519 -25.122  0.00  0.00    +0.006 C 
ATOM      7  C   UNL     1      33.513 -17.841 -24.656  0.00  0.00    +0.033 C 
ATOM      8  C   UNL     1      31.858 -18.473 -26.327  0.00  0.00    +0.019 C 
ATOM      9  C   UNL     1      32.688 -18.798 -25.250  0.00  0.00    +0.004 C 
ATOM     10  H   UNL     1      30.573 -16.970 -28.366  0.00  0.00    +0.189 HD
ENDROOT
BRANCH   7  14
ATOM     11  N   UNL     1      35.628 -17.761 -23.394  0.00  0.00    -0.218 N 
ATOM     12  N   UNL     1      34.050 -19.013 -22.549  0.00  0.00    -0.206 NA
ATOM     13  N   UNL     1      36.193 -18.257 -22.283  0.00  0.00    -0.157 NA
ATOM     14  C   UNL     1      34.355 -18.214 -23.545  0.00  0.00    +0.149 C 
ATOM     15  C   UNL     1      35.196 -19.008 -21.808  0.00  0.00    +0.218 C 
ATOM     16  H   UNL     1      36.078 -17.146 -24.019  0.00  0.00    +0.176 HD
ENDBRANCH   7  14
BRANCH   4  17
ATOM     17  C   UNL     1      33.014 -13.706 -26.767  0.00  0.00    +0.021 C 
ATOM     18  C   UNL     1      32.776 -12.995 -25.590  0.00  0.00    +0.016 C 
ATOM     19  C   UNL     1      33.815 -13.153 -27.765  0.00  0.00    +0.002 C 
ATOM     20  C   UNL     1      33.341 -11.732 -25.412  0.00  0.00    +0.051 C 
ATOM     21  C   UNL     1      34.379 -11.889 -27.587  0.00  0.00    +0.001 C 
ATOM     22  C   UNL     1      34.142 -11.179 -26.411  0.00  0.00    +0.015 C 
BRANCH  20  24
ATOM     23  O   UNL     1      32.258  -9.000 -25.026  0.00  0.00    -0.266 OA
ATOM     24  N   UNL     1      33.105 -11.021 -24.235  0.00  0.00    -0.278 N 
ATOM     25  C   UNL     1      32.587  -9.719 -24.085  0.00  0.00    +0.284 C 
ATOM     26  H   UNL     1      33.329 -11.492 -23.399  0.00  0.00    +0.155 HD
BRANCH  25  28
ATOM     27  O   UNL     1      31.798  -9.989 -21.806  0.00  0.00    -0.446 OA
ATOM     28  C   UNL     1      32.499  -9.237 -22.696  0.00  0.00    +0.199 C 
ATOM     29  C   UNL     1      33.011  -8.117 -22.084  0.00  0.00    +0.045 C 
ATOM     30  C   UNL     1      32.599  -8.185 -20.731  0.00  0.00    +0.044 C 
ATOM     31  C   UNL     1      31.865  -9.342 -20.613  0.00  0.00    +0.180 C 
ENDBRANCH  25  28
ENDBRANCH  20  24
ENDBRANCH   4  17
TORSDOF 4
ENDMDL
MODEL 4
REMARK VINA RESULT:     -11.3      6.545     12.045
REMARK  Name = 22479942
REMARK  4 active torsions:
REMARK  status: ('A' for Active; 'I' for Inactive)
REMARK    1  A    between atoms: C_4  and  C_17
REMARK    2  A    between atoms: C_7  and  C_14
REMARK    3  A    between atoms: C_20  and  N_24
REMARK    4  A    between atoms: C_25  and  C_28
REMARK                            x       y       z     vdW  Elec       q    Type
REMARK                         _______ _______ _______ _____ _____    ______ ____
ROOT
ATOM      1  N   UNL     1      33.923 -12.585 -27.814  0.00  0.00    -0.276 N 
ATOM      2  N   UNL     1      33.714 -13.906 -27.948  0.00  0.00    -0.173 NA
ATOM      3  C   UNL     1      33.069 -13.170 -25.880  0.00  0.00    +0.036 A 
ATOM      4  C   UNL     1      33.194 -14.257 -26.771  0.00  0.00    +0.102 A 
ATOM      5  C   UNL     1      33.558 -12.082 -26.594  0.00  0.00    +0.075 A 
ATOM      6  C   UNL     1      32.605 -12.980 -24.567  0.00  0.00    +0.006 C 
ATOM      7  C   UNL     1      32.652 -11.691 -24.022  0.00  0.00    +0.033 C 
ATOM      8  C   UNL     1      33.613 -10.789 -26.069  0.00  0.00    +0.019 C 
ATOM      9  C   UNL     1      33.148 -10.616 -24.762  0.00  0.00    +0.004 C 
ATOM     10  H   UNL     1      34.306 -12.029 -28.529  0.00  0.00    +0.189 HD
ENDROOT
BRANCH   7  14
ATOM     11  N   UNL     1      32.010 -12.480 -21.777  0.00  0.00    -0.218 N 
ATOM     12  N   UNL     1      31.856 -10.328 -22.121  0.00  0.00    -0.206 NA
ATOM     13  N   UNL     1      31.564 -12.013 -20.601  0.00  0.00    -0.157 NA
ATOM     14  C   UNL     1      32.181 -11.473 -22.675  0.00  0.00    +0.149 C 
ATOM     15  C   UNL     1      31.487 -10.705 -20.862  0.00  0.00    +0.218 C 
ATOM     16  H   UNL     1      32.190 -13.430 -21.965  0.00  0.00    +0.176 HD
ENDBRANCH   7  14
BRANCH   4  17
ATOM     17  C   UNL     1      32.825 -15.629 -26.524  0.00  0.00    +0.021 C 
ATOM     18  C   UNL     1      33.321 -16.293 -25.401  0.00  0.00    +0.016 C 
ATOM     19  C   UNL     1      31.974 -16.291 -27.407  0.00  0.00    +0.002 C 
ATOM     20  C   UNL     1      32.964 -17.620 -25.163  0.00  0.00    +0.051 C 
ATOM     21  C   UNL     1      31.617 -17.619 -27.168  0.00  0.00    +0.001 C 
ATOM     22  C   UNL     1      32.112 -18.283 -26.046  0.00  0.00    +0.015 C 
BRANCH  20  24
ATOM     23  O   UNL     1      34.983 -16.752 -23.174  0.00  0.00    -0.266 OA
ATOM     24  N   UNL     1      33.458 -18.285 -24.040  0.00  0.00    -0.278 N 
ATOM     25  C   UNL     1      34.421 -17.843 -23.111  0.00  0.00    +0.284 C 
ATOM     26  H   UNL     1      33.083 -19.180 -23.875  0.00  0.00    +0.155 HD
BRANCH  25  28
ATOM     27  O   UNL     1      36.037 -18.833 -21.596  0.00  0.00    -0.446 OA
ATOM     28  C   UNL     1      34.757 -18.808 -22.051  0.00  0.00    +0.199 C 
ATOM     29  C   UNL     1      33.992 -19.741 -21.391  0.00  0.00    +0.045 C 
ATOM     30  C   UNL     1      34.858 -20.381 -20.471  0.00  0.00    +0.044 C 
ATOM     31  C   UNL     1      36.091 -19.792 -20.635  0.00  0.00    +0.180 C 
ENDBRANCH  25  28
ENDBRANCH  20  24
ENDBRANCH   4  17
TORSDOF 4
ENDMDL
MODEL 5
REMARK VINA RESULT:     -11.0      8.773     13.244
REMARK  Name = 22479942
REMARK  4 active torsions:
REMARK  status: ('A' for Active; 'I' for Inactive)
REMARK    1  A    between atoms: C_4  and  C_17
REMARK    2  A    between atoms: C_7  and  C_14
REMARK    3  A    between atoms: C_20  and  N_24
REMARK    4  A    between atoms: C_25  and  C_28
REMARK                            x       y       z     vdW  Elec       q    Type
REMARK                         _______ _______ _______ _____ _____    ______ ____
ROOT
ATOM      1  N   UNL     1      31.570 -12.981 -27.920  0.00  0.00    -0.276 N 
ATOM      2  N   UNL     1      32.072 -11.816 -27.475  0.00  0.00    -0.173 NA
ATOM      3  C   UNL     1      32.921 -13.589 -26.302  0.00  0.00    +0.036 A 
ATOM      4  C   UNL     1      32.893 -12.190 -26.492  0.00  0.00    +0.102 A 
ATOM      5  C   UNL     1      32.039 -14.083 -27.256  0.00  0.00    +0.075 A 
ATOM      6  C   UNL     1      33.581 -14.485 -25.444  0.00  0.00    +0.006 C 
ATOM      7  C   UNL     1      33.324 -15.855 -25.584  0.00  0.00    +0.033 C 
ATOM      8  C   UNL     1      31.769 -15.445 -27.412  0.00  0.00    +0.019 C 
ATOM      9  C   UNL     1      32.434 -16.324 -26.552  0.00  0.00    +0.004 C 
ATOM     10  H   UNL     1      30.922 -13.036 -28.658  0.00  0.00    +0.189 HD
ENDROOT
BRANCH   7  14
ATOM     11  N   UNL     1      34.917 -16.420 -23.790  0.00  0.00    -0.218 N 
ATOM     12  N   UNL     1      33.823 -18.095 -24.670  0.00  0.00    -0.206 NA
ATOM     13  N   UNL     1      35.383 -17.481 -23.112  0.00  0.00    -0.157 NA
ATOM     14  C   UNL     1      33.990 -16.793 -24.713  0.00  0.00    +0.149 C 
ATOM     15  C   UNL     1      34.689 -18.469 -23.683  0.00  0.00    +0.218 C 
ATOM     16  H   UNL     1      35.207 -15.492 -23.637  0.00  0.00    +0.176 HD
ENDBRANCH   7  14
BRANCH   4  17
ATOM     17  C   UNL     1      33.637 -11.199 -25.755  0.00  0.00    +0.021 C 
ATOM     18  C   UNL     1      33.031 -10.515 -24.700  0.00  0.00    +0.016 C 
ATOM     19  C   UNL     1      34.960 -10.925 -26.095  0.00  0.00    +0.002 C 
ATOM     20  C   UNL     1      33.750  -9.557 -23.987  0.00  0.00    +0.051 C 
ATOM     21  C   UNL     1      35.680  -9.966 -25.382  0.00  0.00    +0.001 C 
ATOM     22  C   UNL     1      35.075  -9.282 -24.328  0.00  0.00    +0.015 C 
BRANCH  20  24
ATOM     23  O   UNL     1      32.702  -6.786 -23.870  0.00  0.00    -0.266 OA
ATOM     24  N   UNL     1      33.146  -8.872 -22.931  0.00  0.00    -0.278 N 
ATOM     25  C   UNL     1      32.657  -7.551 -22.908  0.00  0.00    +0.284 C 
ATOM     26  H   UNL     1      33.049  -9.380 -22.094  0.00  0.00    +0.155 HD
BRANCH  25  28
ATOM     27  O   UNL     1      31.519  -5.887 -21.558  0.00  0.00    -0.446 OA
ATOM     28  C   UNL     1      32.109  -7.109 -21.615  0.00  0.00    +0.199 C 
ATOM     29  C   UNL     1      32.072  -7.720 -20.383  0.00  0.00    +0.045 C 
ATOM     30  C   UNL     1      31.417  -6.816 -19.514  0.00  0.00    +0.044 C 
ATOM     31  C   UNL     1      31.099  -5.715 -20.277  0.00  0.00    +0.180 C 
ENDBRANCH  25  28
ENDBRANCH  20  24
ENDBRANCH   4  17
TORSDOF 4
ENDMDL
MODEL 6
REMARK VINA RESULT:     -10.8      8.311     13.339
REMARK  Name = 22479942
REMARK  4 active torsions:
REMARK  status: ('A' for Active; 'I' for Inactive)
REMARK    1  A    between atoms: C_4  and  C_17
REMARK    2  A    between atoms: C_7  and  C_14
REMARK    3  A    between atoms: C_20  and  N_24
REMARK    4  A    between atoms: C_25  and  C_28
REMARK                            x       y       z     vdW  Elec       q    Type
REMARK                         _______ _______ _______ _____ _____    ______ ____
ROOT
ATOM      1  N   UNL     1      34.561  -8.923 -26.144  0.00  0.00    -0.276 N 
ATOM      2  N   UNL     1      34.350 -10.091 -26.774  0.00  0.00    -0.173 NA
ATOM      3  C   UNL     1      33.329 -10.055 -24.727  0.00  0.00    +0.036 A 
ATOM      4  C   UNL     1      33.601 -10.776 -25.909  0.00  0.00    +0.102 A 
ATOM      5  C   UNL     1      33.975  -8.838 -24.909  0.00  0.00    +0.075 A 
ATOM      6  C   UNL     1      32.622 -10.287 -23.535  0.00  0.00    +0.006 C 
ATOM      7  C   UNL     1      32.591  -9.274 -22.568  0.00  0.00    +0.033 C 
ATOM      8  C   UNL     1      33.958  -7.815 -23.958  0.00  0.00    +0.019 C 
ATOM      9  C   UNL     1      33.249  -8.061 -22.778  0.00  0.00    +0.004 C 
ATOM     10  H   UNL     1      35.090  -8.192 -26.536  0.00  0.00    +0.189 HD
ENDROOT
BRANCH   7  14
ATOM     11  N   UNL     1      32.243  -8.937 -20.151  0.00  0.00    -0.218 N 
ATOM     12  N   UNL     1      30.794 -10.223 -21.163  0.00  0.00    -0.206 NA
ATOM     13  N   UNL     1      31.409  -9.296 -19.163  0.00  0.00    -0.157 NA
ATOM     14  C   UNL     1      31.871  -9.491 -21.336  0.00  0.00    +0.149 C 
ATOM     15  C   UNL     1      30.551 -10.074 -19.827  0.00  0.00    +0.218 C 
ATOM     16  H   UNL     1      33.023  -8.347 -20.033  0.00  0.00    +0.176 HD
ENDBRANCH   7  14
BRANCH   4  17
ATOM     17  C   UNL     1      33.158 -12.109 -26.235  0.00  0.00    +0.021 C 
ATOM     18  C   UNL     1      33.505 -13.180 -25.410  0.00  0.00    +0.016 C 
ATOM     19  C   UNL     1      32.382 -12.327 -27.372  0.00  0.00    +0.002 C 
ATOM     20  C   UNL     1      33.076 -14.469 -25.725  0.00  0.00    +0.051 C 
ATOM     21  C   UNL     1      31.953 -13.617 -27.687  0.00  0.00    +0.001 C 
ATOM     22  C   UNL     1      32.300 -14.688 -26.864  0.00  0.00    +0.015 C 
BRANCH  20  24
ATOM     23  O   UNL     1      34.596 -16.935 -26.352  0.00  0.00    -0.266 OA
ATOM     24  N   UNL     1      33.422 -15.541 -24.901  0.00  0.00    -0.278 N 
ATOM     25  C   UNL     1      34.148 -16.703 -25.231  0.00  0.00    +0.284 C 
ATOM     26  H   UNL     1      33.119 -15.476 -23.967  0.00  0.00    +0.155 HD
BRANCH  25  28
ATOM     27  O   UNL     1      34.568 -17.188 -22.892  0.00  0.00    -0.446 OA
ATOM     28  C   UNL     1      34.310 -17.672 -24.135  0.00  0.00    +0.199 C 
ATOM     29  C   UNL     1      34.248 -19.046 -24.114  0.00  0.00    +0.045 C 
ATOM     30  C   UNL     1      34.484 -19.431 -22.772  0.00  0.00    +0.044 C 
ATOM     31  C   UNL     1      34.672 -18.263 -22.068  0.00  0.00    +0.180 C 
ENDBRANCH  25  28
ENDBRANCH  20  24
ENDBRANCH   4  17
TORSDOF 4
ENDMDL
MODEL 7
REMARK VINA RESULT:     -10.6      1.954      4.569
REMARK  Name = 22479942
REMARK  4 active torsions:
REMARK  status: ('A' for Active; 'I' for Inactive)
REMARK    1  A    between atoms: C_4  and  C_17
REMARK    2  A    between atoms: C_7  and  C_14
REMARK    3  A    between atoms: C_20  and  N_24
REMARK    4  A    between atoms: C_25  and  C_28
REMARK                            x       y       z     vdW  Elec       q    Type
REMARK                         _______ _______ _______ _____ _____    ______ ____
ROOT
ATOM      1  N   UNL     1      33.576 -24.732 -12.842  0.00  0.00    -0.276 N 
ATOM      2  N   UNL     1      34.647 -24.261 -13.504  0.00  0.00    -0.173 NA
ATOM      3  C   UNL     1      32.721 -23.922 -14.693  0.00  0.00    +0.036 A 
ATOM      4  C   UNL     1      34.123 -23.769 -14.628  0.00  0.00    +0.102 A 
ATOM      5  C   UNL     1      32.389 -24.560 -13.503  0.00  0.00    +0.075 A 
ATOM      6  C   UNL     1      31.705 -23.599 -15.608  0.00  0.00    +0.006 C 
ATOM      7  C   UNL     1      30.384 -23.935 -15.286  0.00  0.00    +0.033 C 
ATOM      8  C   UNL     1      31.079 -24.903 -13.163  0.00  0.00    +0.019 C 
ATOM      9  C   UNL     1      30.079 -24.576 -14.084  0.00  0.00    +0.004 C 
ATOM     10  H   UNL     1      33.639 -25.164 -11.960  0.00  0.00    +0.189 HD
ENDROOT
BRANCH   7  14
ATOM     11  N   UNL     1      28.321 -24.478 -16.521  0.00  0.00    -0.218 N 
ATOM     12  N   UNL     1      29.163 -22.493 -16.878  0.00  0.00    -0.206 NA
ATOM     13  N   UNL     1      27.469 -23.938 -17.405  0.00  0.00    -0.157 NA
ATOM     14  C   UNL     1      29.325 -23.614 -16.212  0.00  0.00    +0.149 C 
ATOM     15  C   UNL     1      28.023 -22.737 -17.589  0.00  0.00    +0.218 C 
ATOM     16  H   UNL     1      28.231 -25.383 -16.143  0.00  0.00    +0.176 HD
ENDBRANCH   7  14
BRANCH   4  17
ATOM     17  C   UNL     1      34.977 -23.160 -15.617  0.00  0.00    +0.021 C 
ATOM     18  C   UNL     1      34.420 -22.595 -16.765  0.00  0.00    +0.016 C 
ATOM     19  C   UNL     1      36.357 -23.134 -15.425  0.00  0.00    +0.002 C 
ATOM     20  C   UNL     1      35.247 -22.006 -17.722  0.00  0.00    +0.051 C 
ATOM     21  C   UNL     1      37.183 -22.544 -16.382  0.00  0.00    +0.001 C 
ATOM     22  C   UNL     1      36.629 -21.980 -17.530  0.00  0.00    +0.015 C 
BRANCH  20  24
ATOM     23  O   UNL     1      36.454 -20.165 -19.707  0.00  0.00    -0.266 OA
ATOM     24  N   UNL     1      34.692 -21.440 -18.871  0.00  0.00    -0.278 N 
ATOM     25  C   UNL     1      35.295 -20.566 -19.797  0.00  0.00    +0.284 C 
ATOM     26  H   UNL     1      33.757 -21.685 -19.059  0.00  0.00    +0.155 HD
BRANCH  25  28
ATOM     27  O   UNL     1      35.005 -19.566 -21.988  0.00  0.00    -0.446 OA
ATOM     28  C   UNL     1      34.420 -20.112 -20.891  0.00  0.00    +0.199 C 
ATOM     29  C   UNL     1      33.052 -20.132 -21.032  0.00  0.00    +0.045 C 
ATOM     30  C   UNL     1      32.779 -19.561 -22.298  0.00  0.00    +0.044 C 
ATOM     31  C   UNL     1      34.001 -19.234 -22.841  0.00  0.00    +0.180 C 
ENDBRANCH  25  28
ENDBRANCH  20  24
ENDBRANCH   4  17
TORSDOF 4
ENDMDL
MODEL 8
REMARK VINA RESULT:     -10.4      4.206     11.301
REMARK  Name = 22479942
REMARK  4 active torsions:
REMARK  status: ('A' for Active; 'I' for Inactive)
REMARK    1  A    between atoms: C_4  and  C_17
REMARK    2  A    between atoms: C_7  and  C_14
REMARK    3  A    between atoms: C_20  and  N_24
REMARK    4  A    between atoms: C_25  and  C_28
REMARK                            x       y       z     vdW  Elec       q    Type
REMARK                         _______ _______ _______ _____ _____    ______ ____
ROOT
ATOM      1  N   UNL     1      34.547 -14.028 -20.847  0.00  0.00    -0.276 N 
ATOM      2  N   UNL     1      34.818 -15.337 -20.709  0.00  0.00    -0.173 NA
ATOM      3  C   UNL     1      34.026 -14.871 -22.804  0.00  0.00    +0.036 A 
ATOM      4  C   UNL     1      34.500 -15.845 -21.901  0.00  0.00    +0.102 A 
ATOM      5  C   UNL     1      34.067 -13.683 -22.082  0.00  0.00    +0.075 A 
ATOM      6  C   UNL     1      33.570 -14.853 -24.133  0.00  0.00    +0.006 C 
ATOM      7  C   UNL     1      33.172 -13.629 -24.687  0.00  0.00    +0.033 C 
ATOM      8  C   UNL     1      33.675 -12.453 -22.615  0.00  0.00    +0.019 C 
ATOM      9  C   UNL     1      33.224 -12.452 -23.939  0.00  0.00    +0.004 C 
ATOM     10  H   UNL     1      34.682 -13.375 -20.124  0.00  0.00    +0.189 HD
ENDROOT
BRANCH   7  14
ATOM     11  N   UNL     1      32.187 -14.673 -26.691  0.00  0.00    -0.218 N 
ATOM     12  N   UNL     1      32.688 -12.553 -26.857  0.00  0.00    -0.206 NA
ATOM     13  N   UNL     1      31.823 -14.370 -27.946  0.00  0.00    -0.157 NA
ATOM     14  C   UNL     1      32.700 -13.589 -26.050  0.00  0.00    +0.149 C 
ATOM     15  C   UNL     1      32.147 -13.075 -27.997  0.00  0.00    +0.218 C 
ATOM     16  H   UNL     1      32.093 -15.566 -26.286  0.00  0.00    +0.176 HD
ENDBRANCH   7  14
BRANCH   4  17
ATOM     17  C   UNL     1      34.659 -17.256 -22.150  0.00  0.00    +0.021 C 
ATOM     18  C   UNL     1      34.419 -18.176 -21.129  0.00  0.00    +0.016 C 
ATOM     19  C   UNL     1      35.052 -17.701 -23.411  0.00  0.00    +0.002 C 
ATOM     20  C   UNL     1      34.573 -19.541 -21.370  0.00  0.00    +0.051 C 
ATOM     21  C   UNL     1      35.207 -19.067 -23.653  0.00  0.00    +0.001 C 
ATOM     22  C   UNL     1      34.967 -19.987 -22.633  0.00  0.00    +0.015 C 
BRANCH  20  24
ATOM     23  O   UNL     1      32.038 -20.830 -20.532  0.00  0.00    -0.266 OA
ATOM     24  N   UNL     1      34.332 -20.463 -20.351  0.00  0.00    -0.278 N 
ATOM     25  C   UNL     1      33.110 -21.058 -19.977  0.00  0.00    +0.284 C 
ATOM     26  H   UNL     1      35.119 -20.733 -19.824  0.00  0.00    +0.155 HD
BRANCH  25  28
ATOM     27  O   UNL     1      32.019 -22.387 -18.265  0.00  0.00    -0.446 OA
ATOM     28  C   UNL     1      33.186 -21.968 -18.821  0.00  0.00    +0.199 C 
ATOM     29  C   UNL     1      34.260 -22.509 -18.154  0.00  0.00    +0.045 C 
ATOM     30  C   UNL     1      33.719 -23.312 -17.122  0.00  0.00    +0.044 C 
ATOM     31  C   UNL     1      32.352 -23.205 -17.232  0.00  0.00    +0.180 C 
ENDBRANCH  25  28
ENDBRANCH  20  24
ENDBRANCH   4  17
TORSDOF 4
ENDMDL
MODEL 9
REMARK VINA RESULT:      -9.9     10.841     15.162
REMARK  Name = 22479942
REMARK  4 active torsions:
REMARK  status: ('A' for Active; 'I' for Inactive)
REMARK    1  A    between atoms: C_4  and  C_17
REMARK    2  A    between atoms: C_7  and  C_14
REMARK    3  A    between atoms: C_20  and  N_24
REMARK    4  A    between atoms: C_25  and  C_28
REMARK                            x       y       z     vdW  Elec       q    Type
REMARK                         _______ _______ _______ _____ _____    ______ ____
ROOT
ATOM      1  N   UNL     1      31.404  -6.952 -19.732  0.00  0.00    -0.276 N 
ATOM      2  N   UNL     1      31.558  -8.257 -19.452  0.00  0.00    -0.173 NA
ATOM      3  C   UNL     1      31.308  -7.914 -21.700  0.00  0.00    +0.036 A 
ATOM      4  C   UNL     1      31.499  -8.838 -20.651  0.00  0.00    +0.102 A 
ATOM      5  C   UNL     1      31.249  -6.679 -21.065  0.00  0.00    +0.075 A 
ATOM      6  C   UNL     1      31.179  -7.976 -23.098  0.00  0.00    +0.006 C 
ATOM      7  C   UNL     1      30.995  -6.781 -23.806  0.00  0.00    +0.033 C 
ATOM      8  C   UNL     1      31.066  -5.476 -21.751  0.00  0.00    +0.019 C 
ATOM      9  C   UNL     1      30.940  -5.554 -23.141  0.00  0.00    +0.004 C 
ATOM     10  H   UNL     1      31.404  -6.253 -19.039  0.00  0.00    +0.189 HD
ENDROOT
BRANCH   7  14
ATOM     11  N   UNL     1      31.702  -7.521 -26.048  0.00  0.00    -0.218 N 
ATOM     12  N   UNL     1      29.949  -6.219 -25.972  0.00  0.00    -0.206 NA
ATOM     13  N   UNL     1      31.359  -7.393 -27.339  0.00  0.00    -0.157 NA
ATOM     14  C   UNL     1      30.859  -6.821 -25.242  0.00  0.00    +0.149 C 
ATOM     15  C   UNL     1      30.293  -6.596 -27.239  0.00  0.00    +0.218 C 
ATOM     16  H   UNL     1      32.465  -8.054 -25.726  0.00  0.00    +0.176 HD
ENDBRANCH   7  14
BRANCH   4  17
ATOM     17  C   UNL     1      31.629 -10.269 -20.768  0.00  0.00    +0.021 C 
ATOM     18  C   UNL     1      31.821 -10.852 -22.021  0.00  0.00    +0.016 C 
ATOM     19  C   UNL     1      31.564 -11.070 -19.629  0.00  0.00    +0.002 C 
ATOM     20  C   UNL     1      31.947 -12.237 -22.133  0.00  0.00    +0.051 C 
ATOM     21  C   UNL     1      31.690 -12.455 -19.741  0.00  0.00    +0.001 C 
ATOM     22  C   UNL     1      31.882 -13.039 -20.993  0.00  0.00    +0.015 C 
BRANCH  20  24
ATOM     23  O   UNL     1      34.118 -11.825 -24.109  0.00  0.00    -0.266 OA
ATOM     24  N   UNL     1      32.140 -12.821 -23.386  0.00  0.00    -0.278 N 
ATOM     25  C   UNL     1      33.187 -12.603 -24.304  0.00  0.00    +0.284 C 
ATOM     26  H   UNL     1      31.455 -13.472 -23.663  0.00  0.00    +0.155 HD
BRANCH  25  28
ATOM     27  O   UNL     1      33.167 -14.708 -25.511  0.00  0.00    -0.446 OA
ATOM     28  C   UNL     1      33.077 -13.353 -25.567  0.00  0.00    +0.199 C 
ATOM     29  C   UNL     1      32.891 -12.934 -26.864  0.00  0.00    +0.045 C 
ATOM     30  C   UNL     1      32.865 -14.107 -27.656  0.00  0.00    +0.044 C 
ATOM     31  C   UNL     1      33.037 -15.159 -26.786  0.00  0.00    +0.180 C 
ENDBRANCH  25  28
ENDBRANCH  20  24
ENDBRANCH   4  17
TORSDOF 4
ENDMDL
