MODEL 1
REMARK VINA RESULT:     -12.6      0.000      0.000
REMARK  Name = 11476460
REMARK  8 active torsions:
REMARK  status: ('A' for Active; 'I' for Inactive)
REMARK    1  A    between atoms: C_2  and  N_10
REMARK    2  A    between atoms: C_5  and  C_23
REMARK    3  A    between atoms: C_11  and  C_14
REMARK    4  A    between atoms: C_14  and  O_15
REMARK    5  A    between atoms: O_15  and  P_16
REMARK    6  A    between atoms: P_16  and  O_18
REMARK    7  A    between atoms: P_16  and  O_20
REMARK    8  A    between atoms: C_27  and  C_32
REMARK                            x       y       z     vdW  Elec       q    Type
REMARK                         _______ _______ _______ _____ _____    ______ ____
ROOT
ATOM      1  F   UNL     1      32.679 -22.472 -18.531  0.00  0.00    -0.204 F 
ATOM      2  C   UNL     1      35.420 -23.167 -16.240  0.00  0.00    +0.059 C 
ATOM      3  C   UNL     1      34.153 -23.186 -16.830  0.00  0.00    +0.045 C 
ATOM      4  C   UNL     1      36.436 -22.396 -16.815  0.00  0.00    +0.015 C 
ATOM      5  C   UNL     1      34.919 -21.674 -18.552  0.00  0.00    +0.029 C 
ATOM      6  C   UNL     1      33.902 -22.441 -17.983  0.00  0.00    +0.141 C 
ATOM      7  C   UNL     1      36.186 -21.652 -17.968  0.00  0.00    +0.004 C 
ENDROOT
BRANCH   2  10
ATOM      8  O   UNL     1      35.982 -25.647 -13.634  0.00  0.00    -0.434 OA
ATOM      9  O   UNL     1      35.506 -26.174 -15.789  0.00  0.00    -0.226 OA
ATOM     10  N   UNL     1      35.676 -23.927 -15.064  0.00  0.00    -0.221 N 
ATOM     11  C   UNL     1      36.370 -24.464 -12.922  0.00  0.00    +0.221 C 
ATOM     12  C   UNL     1      35.838 -23.326 -13.768  0.00  0.00    +0.148 C 
ATOM     13  C   UNL     1      35.707 -25.314 -14.942  0.00  0.00    +0.409 C 
BRANCH  11  14
ATOM     14  C   UNL     1      37.886 -24.448 -12.783  0.00  0.00    +0.199 C 
BRANCH  14  15
ATOM     15  O   UNL     1      38.396 -25.686 -13.247  0.00  0.00    -0.269 OA
BRANCH  15  16
ATOM     16  P   UNL     1      39.241 -25.704 -14.629  0.00  0.00    +0.473 P 
ATOM     17  O   UNL     1      40.673 -26.133 -14.491  0.00  0.00    -0.227 OA
BRANCH  16  18
ATOM     18  O   UNL     1      39.018 -24.221 -15.234  0.00  0.00    -0.303 OA
ATOM     19  H   UNL     1      38.148 -24.173 -15.662  0.00  0.00    +0.222 HD
ENDBRANCH  16  18
BRANCH  16  20
ATOM     20  O   UNL     1      38.337 -26.638 -15.592  0.00  0.00    -0.303 OA
ATOM     21  H   UNL     1      38.512 -26.409 -16.519  0.00  0.00    +0.222 HD
ENDBRANCH  16  20
ENDBRANCH  15  16
ENDBRANCH  14  15
ENDBRANCH  11  14
ENDBRANCH   2  10
BRANCH   5  23
ATOM     22  N   UNL     1      35.538 -19.651 -21.620  0.00  0.00    -0.234 NA
ATOM     23  C   UNL     1      34.664 -20.899 -19.747  0.00  0.00    +0.021 C 
ATOM     24  C   UNL     1      33.366 -20.649 -20.173  0.00  0.00    +0.004 C 
ATOM     25  C   UNL     1      35.706 -20.383 -20.497  0.00  0.00    +0.100 C 
ATOM     26  C   UNL     1      33.152 -19.900 -21.324  0.00  0.00    +0.029 C 
ATOM     27  C   UNL     1      34.262 -19.427 -22.006  0.00  0.00    +0.146 C 
BRANCH  27  32
ATOM     28  N   UNL     1      33.048 -18.758 -24.012  0.00  0.00    -0.105 NA
ATOM     29  N   UNL     1      33.389 -17.842 -24.930  0.00  0.00    -0.113 N 
ATOM     30  N   UNL     1      35.020 -17.725 -23.598  0.00  0.00    -0.085 NA
ATOM     31  N   UNL     1      34.550 -17.205 -24.725  0.00  0.00    -0.018 NA
ATOM     32  C   UNL     1      34.100 -18.647 -23.199  0.00  0.00    +0.092 C 
ATOM     33  C   UNL     1      32.557 -17.559 -26.070  0.00  0.00    +0.163 C 
ENDBRANCH  27  32
ENDBRANCH   5  23
TORSDOF 8
ENDMDL
MODEL 2
REMARK VINA RESULT:     -12.3      2.058      3.015
REMARK  Name = 11476460
REMARK  8 active torsions:
REMARK  status: ('A' for Active; 'I' for Inactive)
REMARK    1  A    between atoms: C_2  and  N_10
REMARK    2  A    between atoms: C_5  and  C_23
REMARK    3  A    between atoms: C_11  and  C_14
REMARK    4  A    between atoms: C_14  and  O_15
REMARK    5  A    between atoms: O_15  and  P_16
REMARK    6  A    between atoms: P_16  and  O_18
REMARK    7  A    between atoms: P_16  and  O_20
REMARK    8  A    between atoms: C_27  and  C_32
REMARK                            x       y       z     vdW  Elec       q    Type
REMARK                         _______ _______ _______ _____ _____    ______ ____
ROOT
ATOM      1  F   UNL     1      32.698 -21.639 -19.953  0.00  0.00    -0.204 F 
ATOM      2  C   UNL     1      35.271 -22.424 -17.502  0.00  0.00    +0.059 C 
ATOM      3  C   UNL     1      34.048 -22.418 -18.180  0.00  0.00    +0.045 C 
ATOM      4  C   UNL     1      36.325 -21.635 -17.976  0.00  0.00    +0.015 C 
ATOM      5  C   UNL     1      34.933 -20.847 -19.787  0.00  0.00    +0.029 C 
ATOM      6  C   UNL     1      33.879 -21.631 -19.319  0.00  0.00    +0.141 C 
ATOM      7  C   UNL     1      36.156 -20.849 -19.115  0.00  0.00    +0.004 C 
ENDROOT
BRANCH   2  10
ATOM      8  O   UNL     1      36.360 -24.286 -14.569  0.00  0.00    -0.434 OA
ATOM      9  O   UNL     1      37.747 -23.018 -15.839  0.00  0.00    -0.226 OA
ATOM     10  N   UNL     1      35.443 -23.226 -16.339  0.00  0.00    -0.221 N 
ATOM     11  C   UNL     1      34.941 -24.453 -14.441  0.00  0.00    +0.221 C 
ATOM     12  C   UNL     1      34.393 -24.040 -15.791  0.00  0.00    +0.148 C 
ATOM     13  C   UNL     1      36.620 -23.441 -15.625  0.00  0.00    +0.409 C 
BRANCH  11  14
ATOM     14  C   UNL     1      34.444 -23.576 -13.299  0.00  0.00    +0.199 C 
BRANCH  14  15
ATOM     15  O   UNL     1      34.387 -24.359 -12.120  0.00  0.00    -0.269 OA
BRANCH  15  16
ATOM     16  P   UNL     1      35.697 -24.420 -11.169  0.00  0.00    +0.473 P 
ATOM     17  O   UNL     1      36.593 -23.219 -11.247  0.00  0.00    -0.227 OA
BRANCH  16  18
ATOM     18  O   UNL     1      36.390 -25.827 -11.561  0.00  0.00    -0.303 OA
ATOM     19  H   UNL     1      36.683 -25.797 -12.486  0.00  0.00    +0.222 HD
ENDBRANCH  16  18
BRANCH  16  20
ATOM     20  O   UNL     1      35.069 -24.710  -9.707  0.00  0.00    -0.303 OA
ATOM     21  H   UNL     1      35.734 -24.522  -9.027  0.00  0.00    +0.222 HD
ENDBRANCH  16  20
ENDBRANCH  15  16
ENDBRANCH  14  15
ENDBRANCH  11  14
ENDBRANCH   2  10
BRANCH   5  23
ATOM     22  N   UNL     1      33.282 -19.077 -22.621  0.00  0.00    -0.234 NA
ATOM     23  C   UNL     1      34.763 -20.028 -20.969  0.00  0.00    +0.021 C 
ATOM     24  C   UNL     1      35.853 -19.425 -21.582  0.00  0.00    +0.004 C 
ATOM     25  C   UNL     1      33.511 -19.827 -21.520  0.00  0.00    +0.100 C 
ATOM     26  C   UNL     1      35.659 -18.646 -22.717  0.00  0.00    +0.029 C 
ATOM     27  C   UNL     1      34.365 -18.504 -23.193  0.00  0.00    +0.146 C 
BRANCH  27  32
ATOM     28  N   UNL     1      33.765 -16.423 -24.313  0.00  0.00    -0.105 NA
ATOM     29  N   UNL     1      33.646 -16.184 -25.627  0.00  0.00    -0.113 N 
ATOM     30  N   UNL     1      34.187 -18.222 -25.621  0.00  0.00    -0.085 NA
ATOM     31  N   UNL     1      33.887 -17.222 -26.440  0.00  0.00    -0.018 NA
ATOM     32  C   UNL     1      34.106 -17.712 -24.361  0.00  0.00    +0.092 C 
ATOM     33  C   UNL     1      33.280 -14.888 -26.137  0.00  0.00    +0.163 C 
ENDBRANCH  27  32
ENDBRANCH   5  23
TORSDOF 8
ENDMDL
MODEL 3
REMARK VINA RESULT:     -12.0      3.154      4.948
REMARK  Name = 11476460
REMARK  8 active torsions:
REMARK  status: ('A' for Active; 'I' for Inactive)
REMARK    1  A    between atoms: C_2  and  N_10
REMARK    2  A    between atoms: C_5  and  C_23
REMARK    3  A    between atoms: C_11  and  C_14
REMARK    4  A    between atoms: C_14  and  O_15
REMARK    5  A    between atoms: O_15  and  P_16
REMARK    6  A    between atoms: P_16  and  O_18
REMARK    7  A    between atoms: P_16  and  O_20
REMARK    8  A    between atoms: C_27  and  C_32
REMARK                            x       y       z     vdW  Elec       q    Type
REMARK                         _______ _______ _______ _____ _____    ______ ____
ROOT
ATOM      1  F   UNL     1      31.813 -19.917 -21.210  0.00  0.00    -0.204 F 
ATOM      2  C   UNL     1      34.496 -21.373 -19.227  0.00  0.00    +0.059 C 
ATOM      3  C   UNL     1      33.215 -21.068 -19.697  0.00  0.00    +0.045 C 
ATOM      4  C   UNL     1      35.612 -20.800 -19.846  0.00  0.00    +0.015 C 
ATOM      5  C   UNL     1      34.167 -19.629 -21.389  0.00  0.00    +0.029 C 
ATOM      6  C   UNL     1      33.051 -20.198 -20.775  0.00  0.00    +0.141 C 
ATOM      7  C   UNL     1      35.447 -19.930 -20.923  0.00  0.00    +0.004 C 
ENDROOT
BRANCH   2  10
ATOM      8  O   UNL     1      35.522 -23.333 -16.335  0.00  0.00    -0.434 OA
ATOM      9  O   UNL     1      36.789 -21.692 -17.255  0.00  0.00    -0.226 OA
ATOM     10  N   UNL     1      34.664 -22.260 -18.127  0.00  0.00    -0.221 N 
ATOM     11  C   UNL     1      34.162 -23.772 -16.447  0.00  0.00    +0.221 C 
ATOM     12  C   UNL     1      33.732 -23.313 -17.824  0.00  0.00    +0.148 C 
ATOM     13  C   UNL     1      35.750 -22.337 -17.258  0.00  0.00    +0.409 C 
BRANCH  11  14
ATOM     14  C   UNL     1      33.348 -23.142 -15.324  0.00  0.00    +0.199 C 
BRANCH  14  15
ATOM     15  O   UNL     1      32.003 -23.569 -15.445  0.00  0.00    -0.269 OA
BRANCH  15  16
ATOM     16  P   UNL     1      31.240 -24.103 -14.120  0.00  0.00    +0.473 P 
ATOM     17  O   UNL     1      29.747 -24.202 -14.245  0.00  0.00    -0.227 OA
BRANCH  16  18
ATOM     18  O   UNL     1      31.772 -23.123 -12.950  0.00  0.00    -0.303 OA
ATOM     19  H   UNL     1      32.470 -23.571 -12.445  0.00  0.00    +0.222 HD
ENDBRANCH  16  18
BRANCH  16  20
ATOM     20  O   UNL     1      31.994 -25.499 -13.807  0.00  0.00    -0.303 OA
ATOM     21  H   UNL     1      31.369 -26.118 -13.398  0.00  0.00    +0.222 HD
ENDBRANCH  16  20
ENDBRANCH  15  16
ENDBRANCH  14  15
ENDBRANCH  11  14
ENDBRANCH   2  10
BRANCH   5  23
ATOM     22  N   UNL     1      33.102 -18.313 -24.709  0.00  0.00    -0.234 NA
ATOM     23  C   UNL     1      34.002 -18.725 -22.507  0.00  0.00    +0.021 C 
ATOM     24  C   UNL     1      34.554 -17.451 -22.482  0.00  0.00    +0.004 C 
ATOM     25  C   UNL     1      33.292 -19.106 -23.631  0.00  0.00    +0.100 C 
ATOM     26  C   UNL     1      34.379 -16.605 -23.572  0.00  0.00    +0.029 C 
ATOM     27  C   UNL     1      33.652 -17.080 -24.651  0.00  0.00    +0.146 C 
BRANCH  27  32
ATOM     28  N   UNL     1      33.535 -14.920 -25.777  0.00  0.00    -0.105 NA
ATOM     29  N   UNL     1      33.257 -14.660 -27.062  0.00  0.00    -0.113 N 
ATOM     30  N   UNL     1      33.128 -16.765 -27.025  0.00  0.00    -0.085 NA
ATOM     31  N   UNL     1      33.009 -15.723 -27.840  0.00  0.00    -0.018 NA
ATOM     32  C   UNL     1      33.442 -16.251 -25.804  0.00  0.00    +0.092 C 
ATOM     33  C   UNL     1      33.225 -13.317 -27.580  0.00  0.00    +0.163 C 
ENDBRANCH  27  32
ENDBRANCH   5  23
TORSDOF 8
ENDMDL
MODEL 4
REMARK VINA RESULT:     -11.9      3.297      5.115
REMARK  Name = 11476460
REMARK  8 active torsions:
REMARK  status: ('A' for Active; 'I' for Inactive)
REMARK    1  A    between atoms: C_2  and  N_10
REMARK    2  A    between atoms: C_5  and  C_23
REMARK    3  A    between atoms: C_11  and  C_14
REMARK    4  A    between atoms: C_14  and  O_15
REMARK    5  A    between atoms: O_15  and  P_16
REMARK    6  A    between atoms: P_16  and  O_18
REMARK    7  A    between atoms: P_16  and  O_20
REMARK    8  A    between atoms: C_27  and  C_32
REMARK                            x       y       z     vdW  Elec       q    Type
REMARK                         _______ _______ _______ _____ _____    ______ ____
ROOT
ATOM      1  F   UNL     1      36.524 -19.474 -21.387  0.00  0.00    -0.204 F 
ATOM      2  C   UNL     1      34.416 -21.431 -19.157  0.00  0.00    +0.059 C 
ATOM      3  C   UNL     1      35.552 -20.882 -19.760  0.00  0.00    +0.045 C 
ATOM      4  C   UNL     1      33.147 -21.077 -19.628  0.00  0.00    +0.015 C 
ATOM      5  C   UNL     1      34.154 -19.638 -21.288  0.00  0.00    +0.029 C 
ATOM      6  C   UNL     1      35.422 -19.988 -20.822  0.00  0.00    +0.141 C 
ATOM      7  C   UNL     1      33.017 -20.183 -20.691  0.00  0.00    +0.004 C 
ENDROOT
BRANCH   2  10
ATOM      8  O   UNL     1      35.362 -23.475 -16.296  0.00  0.00    -0.434 OA
ATOM      9  O   UNL     1      36.684 -21.855 -17.176  0.00  0.00    -0.226 OA
ATOM     10  N   UNL     1      34.549 -22.344 -18.073  0.00  0.00    -0.221 N 
ATOM     11  C   UNL     1      33.990 -23.871 -16.427  0.00  0.00    +0.221 C 
ATOM     12  C   UNL     1      33.584 -23.374 -17.798  0.00  0.00    +0.148 C 
ATOM     13  C   UNL     1      35.626 -22.470 -17.199  0.00  0.00    +0.409 C 
BRANCH  11  14
ATOM     14  C   UNL     1      33.186 -23.239 -15.298  0.00  0.00    +0.199 C 
BRANCH  14  15
ATOM     15  O   UNL     1      32.169 -24.143 -14.904  0.00  0.00    -0.269 OA
BRANCH  15  16
ATOM     16  P   UNL     1      31.079 -23.651 -13.813  0.00  0.00    +0.473 P 
ATOM     17  O   UNL     1      29.927 -22.870 -14.374  0.00  0.00    -0.227 OA
BRANCH  16  18
ATOM     18  O   UNL     1      31.966 -22.875 -12.706  0.00  0.00    -0.303 OA
ATOM     19  H   UNL     1      32.041 -21.939 -12.950  0.00  0.00    +0.222 HD
ENDBRANCH  16  18
BRANCH  16  20
ATOM     20  O   UNL     1      30.671 -25.026 -13.064  0.00  0.00    -0.303 OA
ATOM     21  H   UNL     1      31.055 -25.034 -12.173  0.00  0.00    +0.222 HD
ENDBRANCH  16  20
ENDBRANCH  15  16
ENDBRANCH  14  15
ENDBRANCH  11  14
ENDBRANCH   2  10
BRANCH   5  23
ATOM     22  N   UNL     1      33.151 -18.251 -24.599  0.00  0.00    -0.234 NA
ATOM     23  C   UNL     1      34.013 -18.712 -22.391  0.00  0.00    +0.021 C 
ATOM     24  C   UNL     1      34.574 -17.443 -22.333  0.00  0.00    +0.004 C 
ATOM     25  C   UNL     1      33.318 -19.066 -23.533  0.00  0.00    +0.100 C 
ATOM     26  C   UNL     1      34.424 -16.575 -23.409  0.00  0.00    +0.029 C 
ATOM     27  C   UNL     1      33.710 -17.023 -24.509  0.00  0.00    +0.146 C 
BRANCH  27  32
ATOM     28  N   UNL     1      33.474 -14.840 -25.569  0.00  0.00    -0.105 NA
ATOM     29  N   UNL     1      33.293 -14.555 -26.866  0.00  0.00    -0.113 N 
ATOM     30  N   UNL     1      33.384 -16.661 -26.911  0.00  0.00    -0.085 NA
ATOM     31  N   UNL     1      33.234 -15.603 -27.699  0.00  0.00    -0.018 NA
ATOM     32  C   UNL     1      33.525 -16.171 -25.648  0.00  0.00    +0.092 C 
ATOM     33  C   UNL     1      33.170 -13.200 -27.339  0.00  0.00    +0.163 C 
ENDBRANCH  27  32
ENDBRANCH   5  23
TORSDOF 8
ENDMDL
MODEL 5
REMARK VINA RESULT:     -11.4      7.736     11.539
REMARK  Name = 11476460
REMARK  8 active torsions:
REMARK  status: ('A' for Active; 'I' for Inactive)
REMARK    1  A    between atoms: C_2  and  N_10
REMARK    2  A    between atoms: C_5  and  C_23
REMARK    3  A    between atoms: C_11  and  C_14
REMARK    4  A    between atoms: C_14  and  O_15
REMARK    5  A    between atoms: O_15  and  P_16
REMARK    6  A    between atoms: P_16  and  O_18
REMARK    7  A    between atoms: P_16  and  O_20
REMARK    8  A    between atoms: C_27  and  C_32
REMARK                            x       y       z     vdW  Elec       q    Type
REMARK                         _______ _______ _______ _____ _____    ______ ____
ROOT
ATOM      1  F   UNL     1      32.539 -20.556 -20.354  0.00  0.00    -0.204 F 
ATOM      2  C   UNL     1      34.694 -18.920 -22.788  0.00  0.00    +0.059 C 
ATOM      3  C   UNL     1      33.545 -19.370 -22.130  0.00  0.00    +0.045 C 
ATOM      4  C   UNL     1      35.954 -19.241 -22.271  0.00  0.00    +0.015 C 
ATOM      5  C   UNL     1      34.912 -20.450 -20.457  0.00  0.00    +0.029 C 
ATOM      6  C   UNL     1      33.654 -20.133 -20.968  0.00  0.00    +0.141 C 
ATOM      7  C   UNL     1      36.062 -20.004 -21.109  0.00  0.00    +0.004 C 
ENDROOT
BRANCH   2  10
ATOM      8  O   UNL     1      34.257 -17.517 -26.119  0.00  0.00    -0.434 OA
ATOM      9  O   UNL     1      33.996 -19.718 -25.639  0.00  0.00    -0.226 OA
ATOM     10  N   UNL     1      34.583 -18.141 -23.974  0.00  0.00    -0.221 N 
ATOM     11  C   UNL     1      34.377 -16.303 -25.365  0.00  0.00    +0.221 C 
ATOM     12  C   UNL     1      34.926 -16.746 -24.026  0.00  0.00    +0.148 C 
ATOM     13  C   UNL     1      34.247 -18.585 -25.251  0.00  0.00    +0.409 C 
BRANCH  11  14
ATOM     14  C   UNL     1      33.004 -15.650 -25.264  0.00  0.00    +0.199 C 
BRANCH  14  15
ATOM     15  O   UNL     1      33.085 -14.341 -25.799  0.00  0.00    -0.269 OA
BRANCH  15  16
ATOM     16  P   UNL     1      32.670 -14.113 -27.348  0.00  0.00    +0.473 P 
ATOM     17  O   UNL     1      33.420 -13.020 -28.051  0.00  0.00    -0.227 OA
BRANCH  16  18
ATOM     18  O   UNL     1      31.065 -13.926 -27.292  0.00  0.00    -0.303 OA
ATOM     19  H   UNL     1      30.667 -14.682 -26.831  0.00  0.00    +0.222 HD
ENDBRANCH  16  18
BRANCH  16  20
ATOM     20  O   UNL     1      32.850 -15.587 -27.991  0.00  0.00    -0.303 OA
ATOM     21  H   UNL     1      32.357 -15.638 -28.824  0.00  0.00    +0.222 HD
ENDBRANCH  16  20
ENDBRANCH  15  16
ENDBRANCH  14  15
ENDBRANCH  11  14
ENDBRANCH   2  10
BRANCH   5  23
ATOM     22  N   UNL     1      34.030 -22.806 -17.707  0.00  0.00    -0.234 NA
ATOM     23  C   UNL     1      35.030 -21.243 -19.252  0.00  0.00    +0.021 C 
ATOM     24  C   UNL     1      36.193 -21.220 -18.494  0.00  0.00    +0.004 C 
ATOM     25  C   UNL     1      33.987 -22.043 -18.822  0.00  0.00    +0.100 C 
ATOM     26  C   UNL     1      36.277 -21.991 -17.340  0.00  0.00    +0.029 C 
ATOM     27  C   UNL     1      35.177 -22.760 -16.993  0.00  0.00    +0.146 C 
BRANCH  27  32
ATOM     28  N   UNL     1      36.259 -24.315 -15.457  0.00  0.00    -0.105 NA
ATOM     29  N   UNL     1      35.773 -24.849 -14.327  0.00  0.00    -0.113 N 
ATOM     30  N   UNL     1      34.152 -23.654 -14.953  0.00  0.00    -0.085 NA
ATOM     31  N   UNL     1      34.528 -24.486 -13.989  0.00  0.00    -0.018 NA
ATOM     32  C   UNL     1      35.207 -23.574 -15.811  0.00  0.00    +0.092 C 
ATOM     33  C   UNL     1      36.543 -25.762 -13.522  0.00  0.00    +0.163 C 
ENDBRANCH  27  32
ENDBRANCH   5  23
TORSDOF 8
ENDMDL
MODEL 6
REMARK VINA RESULT:     -11.3      1.833      3.044
REMARK  Name = 11476460
REMARK  8 active torsions:
REMARK  status: ('A' for Active; 'I' for Inactive)
REMARK    1  A    between atoms: C_2  and  N_10
REMARK    2  A    between atoms: C_5  and  C_23
REMARK    3  A    between atoms: C_11  and  C_14
REMARK    4  A    between atoms: C_14  and  O_15
REMARK    5  A    between atoms: O_15  and  P_16
REMARK    6  A    between atoms: P_16  and  O_18
REMARK    7  A    between atoms: P_16  and  O_20
REMARK    8  A    between atoms: C_27  and  C_32
REMARK                            x       y       z     vdW  Elec       q    Type
REMARK                         _______ _______ _______ _____ _____    ______ ____
ROOT
ATOM      1  F   UNL     1      32.625 -20.553 -20.707  0.00  0.00    -0.204 F 
ATOM      2  C   UNL     1      35.492 -21.336 -18.606  0.00  0.00    +0.059 C 
ATOM      3  C   UNL     1      34.184 -21.303 -19.100  0.00  0.00    +0.045 C 
ATOM      4  C   UNL     1      36.499 -20.633 -19.275  0.00  0.00    +0.015 C 
ATOM      5  C   UNL     1      34.894 -19.873 -20.914  0.00  0.00    +0.029 C 
ATOM      6  C   UNL     1      33.886 -20.573 -20.251  0.00  0.00    +0.141 C 
ATOM      7  C   UNL     1      36.200 -19.903 -20.425  0.00  0.00    +0.004 C 
ENDROOT
BRANCH   2  10
ATOM      8  O   UNL     1      35.708 -23.586 -15.752  0.00  0.00    -0.434 OA
ATOM      9  O   UNL     1      34.048 -23.671 -17.296  0.00  0.00    -0.226 OA
ATOM     10  N   UNL     1      35.796 -22.080 -17.432  0.00  0.00    -0.221 N 
ATOM     11  C   UNL     1      36.985 -22.944 -15.644  0.00  0.00    +0.221 C 
ATOM     12  C   UNL     1      36.874 -21.733 -16.546  0.00  0.00    +0.148 C 
ATOM     13  C   UNL     1      35.082 -23.152 -16.899  0.00  0.00    +0.409 C 
BRANCH  11  14
ATOM     14  C   UNL     1      38.066 -23.922 -16.084  0.00  0.00    +0.199 C 
BRANCH  14  15
ATOM     15  O   UNL     1      38.780 -24.355 -14.940  0.00  0.00    -0.269 OA
BRANCH  15  16
ATOM     16  P   UNL     1      38.515 -25.853 -14.385  0.00  0.00    +0.473 P 
ATOM     17  O   UNL     1      38.000 -25.927 -12.978  0.00  0.00    -0.227 OA
BRANCH  16  18
ATOM     18  O   UNL     1      39.918 -26.613 -14.649  0.00  0.00    -0.303 OA
ATOM     19  H   UNL     1      39.931 -26.964 -15.554  0.00  0.00    +0.222 HD
ENDBRANCH  16  18
BRANCH  16  20
ATOM     20  O   UNL     1      37.534 -26.485 -15.506  0.00  0.00    -0.303 OA
ATOM     21  H   UNL     1      36.854 -27.023 -15.072  0.00  0.00    +0.222 HD
ENDBRANCH  16  20
ENDBRANCH  15  16
ENDBRANCH  14  15
ENDBRANCH  11  14
ENDBRANCH   2  10
BRANCH   5  23
ATOM     22  N   UNL     1      34.151 -16.971 -23.132  0.00  0.00    -0.234 NA
ATOM     23  C   UNL     1      34.589 -19.114 -22.108  0.00  0.00    +0.021 C 
ATOM     24  C   UNL     1      34.439 -19.744 -23.336  0.00  0.00    +0.004 C 
ATOM     25  C   UNL     1      34.437 -17.740 -22.057  0.00  0.00    +0.100 C 
ATOM     26  C   UNL     1      34.145 -18.988 -24.465  0.00  0.00    +0.029 C 
ATOM     27  C   UNL     1      34.012 -17.617 -24.311  0.00  0.00    +0.146 C 
BRANCH  27  32
ATOM     28  N   UNL     1      33.676 -15.455 -25.388  0.00  0.00    -0.105 NA
ATOM     29  N   UNL     1      33.354 -15.196 -26.663  0.00  0.00    -0.113 N 
ATOM     30  N   UNL     1      33.423 -17.304 -26.670  0.00  0.00    -0.085 NA
ATOM     31  N   UNL     1      33.194 -16.262 -27.460  0.00  0.00    -0.018 NA
ATOM     32  C   UNL     1      33.707 -16.788 -25.442  0.00  0.00    +0.092 C 
ATOM     33  C   UNL     1      33.188 -13.852 -27.151  0.00  0.00    +0.163 C 
ENDBRANCH  27  32
ENDBRANCH   5  23
TORSDOF 8
ENDMDL
MODEL 7
REMARK VINA RESULT:     -11.3      7.840     11.611
REMARK  Name = 11476460
REMARK  8 active torsions:
REMARK  status: ('A' for Active; 'I' for Inactive)
REMARK    1  A    between atoms: C_2  and  N_10
REMARK    2  A    between atoms: C_5  and  C_23
REMARK    3  A    between atoms: C_11  and  C_14
REMARK    4  A    between atoms: C_14  and  O_15
REMARK    5  A    between atoms: O_15  and  P_16
REMARK    6  A    between atoms: P_16  and  O_18
REMARK    7  A    between atoms: P_16  and  O_20
REMARK    8  A    between atoms: C_27  and  C_32
REMARK                            x       y       z     vdW  Elec       q    Type
REMARK                         _______ _______ _______ _____ _____    ______ ____
ROOT
ATOM      1  F   UNL     1      36.904 -20.102 -20.427  0.00  0.00    -0.204 F 
ATOM      2  C   UNL     1      34.475 -18.833 -22.821  0.00  0.00    +0.059 C 
ATOM      3  C   UNL     1      35.690 -19.079 -22.173  0.00  0.00    +0.045 C 
ATOM      4  C   UNL     1      33.299 -19.399 -22.316  0.00  0.00    +0.015 C 
ATOM      5  C   UNL     1      34.553 -20.442 -20.534  0.00  0.00    +0.029 C 
ATOM      6  C   UNL     1      35.729 -19.880 -21.033  0.00  0.00    +0.141 C 
ATOM      7  C   UNL     1      33.338 -20.200 -21.176  0.00  0.00    +0.004 C 
ENDROOT
BRANCH   2  10
ATOM      8  O   UNL     1      34.219 -17.315 -26.120  0.00  0.00    -0.434 OA
ATOM      9  O   UNL     1      33.891 -19.524 -25.725  0.00  0.00    -0.226 OA
ATOM     10  N   UNL     1      34.434 -18.015 -23.984  0.00  0.00    -0.221 N 
ATOM     11  C   UNL     1      34.329 -16.128 -25.322  0.00  0.00    +0.221 C 
ATOM     12  C   UNL     1      34.808 -16.626 -23.975  0.00  0.00    +0.148 C 
ATOM     13  C   UNL     1      34.147 -18.410 -25.289  0.00  0.00    +0.409 C 
BRANCH  11  14
ATOM     14  C   UNL     1      32.968 -15.449 -25.260  0.00  0.00    +0.199 C 
BRANCH  14  15
ATOM     15  O   UNL     1      33.072 -14.171 -25.862  0.00  0.00    -0.269 OA
BRANCH  15  16
ATOM     16  P   UNL     1      32.578 -13.995 -27.394  0.00  0.00    +0.473 P 
ATOM     17  O   UNL     1      33.114 -12.783 -28.098  0.00  0.00    -0.227 OA
BRANCH  16  18
ATOM     18  O   UNL     1      30.966 -14.078 -27.290  0.00  0.00    -0.303 OA
ATOM     19  H   UNL     1      30.700 -14.049 -26.357  0.00  0.00    +0.222 HD
ENDBRANCH  16  18
BRANCH  16  20
ATOM     20  O   UNL     1      32.979 -15.410 -28.067  0.00  0.00    -0.303 OA
ATOM     21  H   UNL     1      32.302 -15.664 -28.713  0.00  0.00    +0.222 HD
ENDBRANCH  16  20
ENDBRANCH  15  16
ENDBRANCH  14  15
ENDBRANCH  11  14
ENDBRANCH   2  10
BRANCH   5  23
ATOM     22  N   UNL     1      35.870 -22.229 -17.540  0.00  0.00    -0.234 NA
ATOM     23  C   UNL     1      34.589 -21.274 -19.350  0.00  0.00    +0.021 C 
ATOM     24  C   UNL     1      33.442 -21.905 -18.887  0.00  0.00    +0.004 C 
ATOM     25  C   UNL     1      35.766 -21.465 -18.650  0.00  0.00    +0.100 C 
ATOM     26  C   UNL     1      33.508 -22.700 -17.748  0.00  0.00    +0.029 C 
ATOM     27  C   UNL     1      34.735 -22.829 -17.116  0.00  0.00    +0.146 C 
BRANCH  27  32
ATOM     28  N   UNL     1      35.989 -24.260 -15.592  0.00  0.00    -0.105 NA
ATOM     29  N   UNL     1      35.572 -24.847 -14.462  0.00  0.00    -0.113 N 
ATOM     30  N   UNL     1      33.827 -23.834 -15.074  0.00  0.00    -0.085 NA
ATOM     31  N   UNL     1      34.297 -24.622 -14.115  0.00  0.00    -0.018 NA
ATOM     32  C   UNL     1      34.861 -23.637 -15.938  0.00  0.00    +0.092 C 
ATOM     33  C   UNL     1      36.442 -25.672 -13.664  0.00  0.00    +0.163 C 
ENDBRANCH  27  32
ENDBRANCH   5  23
TORSDOF 8
ENDMDL
MODEL 8
REMARK VINA RESULT:     -11.0      8.514     12.407
REMARK  Name = 11476460
REMARK  8 active torsions:
REMARK  status: ('A' for Active; 'I' for Inactive)
REMARK    1  A    between atoms: C_2  and  N_10
REMARK    2  A    between atoms: C_5  and  C_23
REMARK    3  A    between atoms: C_11  and  C_14
REMARK    4  A    between atoms: C_14  and  O_15
REMARK    5  A    between atoms: O_15  and  P_16
REMARK    6  A    between atoms: P_16  and  O_18
REMARK    7  A    between atoms: P_16  and  O_20
REMARK    8  A    between atoms: C_27  and  C_32
REMARK                            x       y       z     vdW  Elec       q    Type
REMARK                         _______ _______ _______ _____ _____    ______ ____
ROOT
ATOM      1  F   UNL     1      34.936 -16.491 -21.756  0.00  0.00    -0.204 F 
ATOM      2  C   UNL     1      33.507 -16.863 -25.083  0.00  0.00    +0.059 C 
ATOM      3  C   UNL     1      34.065 -16.280 -23.941  0.00  0.00    +0.045 C 
ATOM      4  C   UNL     1      33.292 -18.245 -25.115  0.00  0.00    +0.015 C 
ATOM      5  C   UNL     1      34.187 -18.448 -22.880  0.00  0.00    +0.029 C 
ATOM      6  C   UNL     1      34.404 -17.070 -22.842  0.00  0.00    +0.141 C 
ATOM      7  C   UNL     1      33.630 -19.035 -24.017  0.00  0.00    +0.004 C 
ENDROOT
BRANCH   2  10
ATOM      8  O   UNL     1      32.126 -15.254 -28.042  0.00  0.00    -0.434 OA
ATOM      9  O   UNL     1      31.280 -17.153 -27.134  0.00  0.00    -0.226 OA
ATOM     10  N   UNL     1      33.161 -16.058 -26.203  0.00  0.00    -0.221 N 
ATOM     11  C   UNL     1      33.061 -14.244 -27.639  0.00  0.00    +0.221 C 
ATOM     12  C   UNL     1      33.957 -14.942 -26.637  0.00  0.00    +0.148 C 
ATOM     13  C   UNL     1      32.110 -16.255 -27.097  0.00  0.00    +0.409 C 
BRANCH  11  14
ATOM     14  C   UNL     1      32.292 -13.073 -27.041  0.00  0.00    +0.199 C 
BRANCH  14  15
ATOM     15  O   UNL     1      32.861 -12.752 -25.784  0.00  0.00    -0.269 OA
BRANCH  15  16
ATOM     16  P   UNL     1      33.532 -11.291 -25.591  0.00  0.00    +0.473 P 
ATOM     17  O   UNL     1      32.558 -10.158 -25.450  0.00  0.00    -0.227 OA
BRANCH  16  18
ATOM     18  O   UNL     1      34.556 -11.171 -26.837  0.00  0.00    -0.303 OA
ATOM     19  H   UNL     1      35.113 -10.385 -26.723  0.00  0.00    +0.222 HD
ENDBRANCH  16  18
BRANCH  16  20
ATOM     20  O   UNL     1      34.514 -11.509 -24.324  0.00  0.00    -0.303 OA
ATOM     21  H   UNL     1      34.975 -12.358 -24.415  0.00  0.00    +0.222 HD
ENDBRANCH  16  20
ENDBRANCH  15  16
ENDBRANCH  14  15
ENDBRANCH  11  14
ENDBRANCH   2  10
BRANCH   5  23
ATOM     22  N   UNL     1      33.815 -20.697 -19.932  0.00  0.00    -0.234 NA
ATOM     23  C   UNL     1      34.536 -19.272 -21.743  0.00  0.00    +0.021 C 
ATOM     24  C   UNL     1      35.860 -19.435 -21.359  0.00  0.00    +0.004 C 
ATOM     25  C   UNL     1      33.559 -19.916 -21.005  0.00  0.00    +0.100 C 
ATOM     26  C   UNL     1      36.164 -20.231 -20.261  0.00  0.00    +0.029 C 
ATOM     27  C   UNL     1      35.115 -20.835 -19.587  0.00  0.00    +0.146 C 
BRANCH  27  32
ATOM     28  N   UNL     1      36.505 -21.623 -17.745  0.00  0.00    -0.105 NA
ATOM     29  N   UNL     1      36.228 -22.563 -16.830  0.00  0.00    -0.113 N 
ATOM     30  N   UNL     1      34.464 -22.573 -17.985  0.00  0.00    -0.085 NA
ATOM     31  N   UNL     1      35.030 -23.153 -16.933  0.00  0.00    -0.018 NA
ATOM     32  C   UNL     1      35.370 -21.666 -18.445  0.00  0.00    +0.092 C 
ATOM     33  C   UNL     1      37.164 -22.919 -15.794  0.00  0.00    +0.163 C 
ENDBRANCH  27  32
ENDBRANCH   5  23
TORSDOF 8
ENDMDL
MODEL 9
REMARK VINA RESULT:     -10.9      2.602      3.911
REMARK  Name = 11476460
REMARK  8 active torsions:
REMARK  status: ('A' for Active; 'I' for Inactive)
REMARK    1  A    between atoms: C_2  and  N_10
REMARK    2  A    between atoms: C_5  and  C_23
REMARK    3  A    between atoms: C_11  and  C_14
REMARK    4  A    between atoms: C_14  and  O_15
REMARK    5  A    between atoms: O_15  and  P_16
REMARK    6  A    between atoms: P_16  and  O_18
REMARK    7  A    between atoms: P_16  and  O_20
REMARK    8  A    between atoms: C_27  and  C_32
REMARK                            x       y       z     vdW  Elec       q    Type
REMARK                         _______ _______ _______ _____ _____    ______ ____
ROOT
ATOM      1  F   UNL     1      32.504 -21.500 -20.019  0.00  0.00    -0.204 F 
ATOM      2  C   UNL     1      35.144 -22.351 -17.662  0.00  0.00    +0.059 C 
ATOM      3  C   UNL     1      33.894 -22.305 -18.288  0.00  0.00    +0.045 C 
ATOM      4  C   UNL     1      36.209 -21.618 -18.195  0.00  0.00    +0.015 C 
ATOM      5  C   UNL     1      34.776 -20.802 -19.962  0.00  0.00    +0.029 C 
ATOM      6  C   UNL     1      33.711 -21.532 -19.435  0.00  0.00    +0.141 C 
ATOM      7  C   UNL     1      36.025 -20.845 -19.342  0.00  0.00    +0.004 C 
ENDROOT
BRANCH   2  10
ATOM      8  O   UNL     1      36.199 -24.016 -14.601  0.00  0.00    -0.434 OA
ATOM      9  O   UNL     1      37.395 -22.378 -15.617  0.00  0.00    -0.226 OA
ATOM     10  N   UNL     1      35.331 -23.139 -16.492  0.00  0.00    -0.221 N 
ATOM     11  C   UNL     1      34.870 -24.544 -14.711  0.00  0.00    +0.221 C 
ATOM     12  C   UNL     1      34.454 -24.219 -16.130  0.00  0.00    +0.148 C 
ATOM     13  C   UNL     1      36.395 -23.083 -15.594  0.00  0.00    +0.409 C 
BRANCH  11  14
ATOM     14  C   UNL     1      33.989 -23.879 -13.661  0.00  0.00    +0.199 C 
BRANCH  14  15
ATOM     15  O   UNL     1      32.828 -23.374 -14.297  0.00  0.00    -0.269 OA
BRANCH  15  16
ATOM     16  P   UNL     1      31.394 -24.021 -13.913  0.00  0.00    +0.473 P 
ATOM     17  O   UNL     1      30.790 -23.511 -12.637  0.00  0.00    -0.227 OA
BRANCH  16  18
ATOM     18  O   UNL     1      31.666 -25.614 -13.961  0.00  0.00    -0.303 OA
ATOM     19  H   UNL     1      32.424 -25.796 -14.539  0.00  0.00    +0.222 HD
ENDBRANCH  16  18
BRANCH  16  20
ATOM     20  O   UNL     1      30.510 -23.755 -15.241  0.00  0.00    -0.303 OA
ATOM     21  H   UNL     1      30.430 -22.800 -15.389  0.00  0.00    +0.222 HD
ENDBRANCH  16  20
ENDBRANCH  15  16
ENDBRANCH  14  15
ENDBRANCH  11  14
ENDBRANCH   2  10
BRANCH   5  23
ATOM     22  N   UNL     1      33.084 -19.033 -22.772  0.00  0.00    -0.234 NA
ATOM     23  C   UNL     1      34.591 -19.998 -21.151  0.00  0.00    +0.021 C 
ATOM     24  C   UNL     1      35.676 -19.435 -21.809  0.00  0.00    +0.004 C 
ATOM     25  C   UNL     1      33.327 -19.771 -21.667  0.00  0.00    +0.100 C 
ATOM     26  C   UNL     1      35.467 -18.669 -22.950  0.00  0.00    +0.029 C 
ATOM     27  C   UNL     1      34.163 -18.500 -23.387  0.00  0.00    +0.146 C 
BRANCH  27  32
ATOM     28  N   UNL     1      32.701 -17.703 -25.169  0.00  0.00    -0.105 NA
ATOM     29  N   UNL     1      32.983 -16.851 -26.164  0.00  0.00    -0.113 N 
ATOM     30  N   UNL     1      34.829 -16.930 -25.148  0.00  0.00    -0.085 NA
ATOM     31  N   UNL     1      34.232 -16.367 -26.192  0.00  0.00    -0.018 NA
ATOM     32  C   UNL     1      33.888 -17.720 -24.560  0.00  0.00    +0.092 C 
ATOM     33  C   UNL     1      32.001 -16.476 -27.149  0.00  0.00    +0.163 C 
ENDBRANCH  27  32
ENDBRANCH   5  23
TORSDOF 8
ENDMDL
