MODEL 1
REMARK VINA RESULT:     -12.5      0.000      0.000
REMARK  Name = 11840906
REMARK  7 active torsions:
REMARK  status: ('A' for Active; 'I' for Inactive)
REMARK    1  A    between atoms: O_1  and  C_3
REMARK    2  A    between atoms: O_1  and  C_18
REMARK    3  A    between atoms: C_5  and  C_9
REMARK    4  A    between atoms: C_18  and  C_19
REMARK    5  A    between atoms: C_19  and  N_20
REMARK    6  A    between atoms: C_19  and  C_24
REMARK    7  A    between atoms: C_24  and  C_26
REMARK                            x       y       z     vdW  Elec       q    Type
REMARK                         _______ _______ _______ _____ _____    ______ ____
ROOT
ATOM      1  O   UNL     1      32.735 -22.313 -18.767  0.00  0.00    -0.476 OA
ENDROOT
BRANCH   1   3
ATOM      2  N   UNL     1      36.194 -21.277 -19.264  0.00  0.00    -0.239 NA
ATOM      3  C   UNL     1      33.816 -21.638 -19.272  0.00  0.00    +0.158 C 
ATOM      4  C   UNL     1      33.649 -20.680 -20.256  0.00  0.00    +0.040 C 
ATOM      5  C   UNL     1      34.765 -20.013 -20.749  0.00  0.00    +0.022 C 
ATOM      6  C   UNL     1      35.086 -21.905 -18.809  0.00  0.00    +0.136 C 
ATOM      7  C   UNL     1      36.003 -20.344 -20.225  0.00  0.00    +0.099 C 
BRANCH   5   9
ATOM      8  N   UNL     1      33.826 -16.409 -26.047  0.00  0.00    -0.242 NA
ATOM      9  C   UNL     1      34.636 -19.005 -21.775  0.00  0.00    +0.002 C 
ATOM     10  C   UNL     1      34.068 -18.391 -24.062  0.00  0.00    +0.003 C 
ATOM     11  C   UNL     1      34.197 -19.360 -23.054  0.00  0.00    +0.000 C 
ATOM     12  C   UNL     1      34.386 -17.050 -23.770  0.00  0.00    +0.019 C 
ATOM     13  C   UNL     1      34.950 -17.676 -21.492  0.00  0.00    +0.000 C 
ATOM     14  C   UNL     1      34.827 -16.701 -22.482  0.00  0.00    +0.002 C 
ATOM     15  C   UNL     1      33.631 -18.718 -25.352  0.00  0.00    +0.021 C 
ATOM     16  C   UNL     1      34.245 -16.114 -24.796  0.00  0.00    +0.099 C 
ATOM     17  C   UNL     1      33.529 -17.704 -26.291  0.00  0.00    +0.099 C 
ENDBRANCH   5   9
ENDBRANCH   1   3
BRANCH   1  18
ATOM     18  C   UNL     1      33.008 -23.486 -18.012  0.00  0.00    +0.184 C 
BRANCH  18  19
ATOM     19  C   UNL     1      32.978 -23.160 -16.515  0.00  0.00    -0.021 C 
BRANCH  19  20
ATOM     20  N   UNL     1      31.643 -23.461 -15.998  0.00  0.00    +0.384 N 
ATOM     21  H   UNL     1      31.699 -24.247 -15.349  0.00  0.00    -0.089 HD
ATOM     22  H   UNL     1      31.024 -23.704 -16.772  0.00  0.00    -0.089 HD
ATOM     23  H   UNL     1      31.274 -22.645 -15.511  0.00  0.00    -0.089 HD
ENDBRANCH  19  20
BRANCH  19  24
ATOM     24  C   UNL     1      34.061 -23.944 -15.745  0.00  0.00    -0.012 C 
BRANCH  24  26
ATOM     25  N   UNL     1      37.382 -23.307 -15.030  0.00  0.00    -0.270 NA
ATOM     26  C   UNL     1      35.005 -23.065 -14.946  0.00  0.00    +0.046 C 
ATOM     27  C   UNL     1      35.515 -23.701 -13.693  0.00  0.00    -0.007 C 
ATOM     28  C   UNL     1      36.334 -22.890 -15.674  0.00  0.00    +0.130 C 
ATOM     29  C   UNL     1      36.906 -23.809 -13.806  0.00  0.00    +0.071 C 
ATOM     30  C   UNL     1      34.843 -24.133 -12.566  0.00  0.00    -0.024 C 
ATOM     31  C   UNL     1      37.659 -24.362 -12.784  0.00  0.00    +0.014 C 
ATOM     32  C   UNL     1      35.596 -24.692 -11.531  0.00  0.00    +0.052 C 
ATOM     33  C   UNL     1      36.991 -24.807 -11.640  0.00  0.00    -0.020 C 
ENDBRANCH  24  26
ENDBRANCH  19  24
ENDBRANCH  18  19
ENDBRANCH   1  18
TORSDOF 7
ENDMDL
MODEL 2
REMARK VINA RESULT:     -12.5      1.807      3.415
REMARK  Name = 11840906
REMARK  7 active torsions:
REMARK  status: ('A' for Active; 'I' for Inactive)
REMARK    1  A    between atoms: O_1  and  C_3
REMARK    2  A    between atoms: O_1  and  C_18
REMARK    3  A    between atoms: C_5  and  C_9
REMARK    4  A    between atoms: C_18  and  C_19
REMARK    5  A    between atoms: C_19  and  N_20
REMARK    6  A    between atoms: C_19  and  C_24
REMARK    7  A    between atoms: C_24  and  C_26
REMARK                            x       y       z     vdW  Elec       q    Type
REMARK                         _______ _______ _______ _____ _____    ______ ____
ROOT
ATOM      1  O   UNL     1      36.002 -22.304 -18.151  0.00  0.00    -0.476 OA
ENDROOT
BRANCH   1   3
ATOM      2  N   UNL     1      32.599 -21.856 -19.378  0.00  0.00    -0.239 NA
ATOM      3  C   UNL     1      34.951 -21.805 -18.876  0.00  0.00    +0.158 C 
ATOM      4  C   UNL     1      35.150 -20.793 -19.797  0.00  0.00    +0.040 C 
ATOM      5  C   UNL     1      34.064 -20.307 -20.517  0.00  0.00    +0.022 C 
ATOM      6  C   UNL     1      33.678 -22.302 -18.697  0.00  0.00    +0.136 C 
ATOM      7  C   UNL     1      32.822 -20.867 -20.272  0.00  0.00    +0.099 C 
BRANCH   5   9
ATOM      8  N   UNL     1      34.297 -16.357 -25.644  0.00  0.00    -0.242 NA
ATOM      9  C   UNL     1      34.229 -19.252 -21.489  0.00  0.00    +0.002 C 
ATOM     10  C   UNL     1      33.965 -18.428 -23.765  0.00  0.00    +0.003 C 
ATOM     11  C   UNL     1      33.810 -19.444 -22.809  0.00  0.00    +0.000 C 
ATOM     12  C   UNL     1      34.549 -17.205 -23.379  0.00  0.00    +0.019 C 
ATOM     13  C   UNL     1      34.807 -18.040 -21.113  0.00  0.00    +0.000 C 
ATOM     14  C   UNL     1      34.968 -17.020 -22.051  0.00  0.00    +0.002 C 
ATOM     15  C   UNL     1      33.554 -18.592 -25.094  0.00  0.00    +0.021 C 
ATOM     16  C   UNL     1      34.686 -16.217 -24.356  0.00  0.00    +0.099 C 
ATOM     17  C   UNL     1      33.740 -17.541 -25.978  0.00  0.00    +0.099 C 
ENDBRANCH   5   9
ENDBRANCH   1   3
BRANCH   1  18
ATOM     18  C   UNL     1      36.004 -22.032 -16.756  0.00  0.00    +0.184 C 
BRANCH  18  19
ATOM     19  C   UNL     1      36.225 -23.331 -15.974  0.00  0.00    -0.021 C 
BRANCH  19  20
ATOM     20  N   UNL     1      36.885 -23.008 -14.708  0.00  0.00    +0.384 N 
ATOM     21  H   UNL     1      37.867 -22.791 -14.882  0.00  0.00    -0.089 HD
ATOM     22  H   UNL     1      36.821 -23.807 -14.077  0.00  0.00    -0.089 HD
ATOM     23  H   UNL     1      36.430 -22.201 -14.283  0.00  0.00    -0.089 HD
ENDBRANCH  19  20
BRANCH  19  24
ATOM     24  C   UNL     1      34.896 -24.077 -15.731  0.00  0.00    -0.012 C 
BRANCH  24  26
ATOM     25  N   UNL     1      33.041 -24.612 -12.863  0.00  0.00    -0.270 NA
ATOM     26  C   UNL     1      34.001 -23.417 -14.699  0.00  0.00    +0.046 C 
ATOM     27  C   UNL     1      32.541 -23.646 -14.924  0.00  0.00    -0.007 C 
ATOM     28  C   UNL     1      34.136 -24.102 -13.342  0.00  0.00    +0.130 C 
ATOM     29  C   UNL     1      32.043 -24.343 -13.816  0.00  0.00    +0.071 C 
ATOM     30  C   UNL     1      31.725 -23.278 -15.976  0.00  0.00    -0.024 C 
ATOM     31  C   UNL     1      30.706 -24.694 -13.743  0.00  0.00    +0.014 C 
ATOM     32  C   UNL     1      30.375 -23.629 -15.910  0.00  0.00    +0.052 C 
ATOM     33  C   UNL     1      29.870 -24.332 -14.803  0.00  0.00    -0.020 C 
ENDBRANCH  24  26
ENDBRANCH  19  24
ENDBRANCH  18  19
ENDBRANCH   1  18
TORSDOF 7
ENDMDL
MODEL 3
REMARK VINA RESULT:     -12.1      1.326      2.253
REMARK  Name = 11840906
REMARK  7 active torsions:
REMARK  status: ('A' for Active; 'I' for Inactive)
REMARK    1  A    between atoms: O_1  and  C_3
REMARK    2  A    between atoms: O_1  and  C_18
REMARK    3  A    between atoms: C_5  and  C_9
REMARK    4  A    between atoms: C_18  and  C_19
REMARK    5  A    between atoms: C_19  and  N_20
REMARK    6  A    between atoms: C_19  and  C_24
REMARK    7  A    between atoms: C_24  and  C_26
REMARK                            x       y       z     vdW  Elec       q    Type
REMARK                         _______ _______ _______ _____ _____    ______ ____
ROOT
ATOM      1  O   UNL     1      32.860 -22.429 -18.589  0.00  0.00    -0.476 OA
ENDROOT
BRANCH   1   3
ATOM      2  N   UNL     1      36.299 -21.419 -19.253  0.00  0.00    -0.239 NA
ATOM      3  C   UNL     1      33.919 -21.751 -19.135  0.00  0.00    +0.158 C 
ATOM      4  C   UNL     1      33.709 -20.760 -20.077  0.00  0.00    +0.040 C 
ATOM      5  C   UNL     1      34.804 -20.091 -20.612  0.00  0.00    +0.022 C 
ATOM      6  C   UNL     1      35.211 -22.048 -18.755  0.00  0.00    +0.136 C 
ATOM      7  C   UNL     1      36.066 -20.454 -20.171  0.00  0.00    +0.099 C 
BRANCH   5   9
ATOM      8  N   UNL     1      34.171 -14.668 -24.095  0.00  0.00    -0.242 NA
ATOM      9  C   UNL     1      34.630 -19.049 -21.597  0.00  0.00    +0.002 C 
ATOM     10  C   UNL     1      34.515 -16.682 -22.158  0.00  0.00    +0.003 C 
ATOM     11  C   UNL     1      34.684 -17.706 -21.212  0.00  0.00    +0.000 C 
ATOM     12  C   UNL     1      34.290 -17.024 -23.507  0.00  0.00    +0.019 C 
ATOM     13  C   UNL     1      34.406 -19.381 -22.932  0.00  0.00    +0.000 C 
ATOM     14  C   UNL     1      34.237 -18.376 -23.885  0.00  0.00    +0.002 C 
ATOM     15  C   UNL     1      34.565 -15.329 -21.802  0.00  0.00    +0.021 C 
ATOM     16  C   UNL     1      34.127 -15.980 -24.419  0.00  0.00    +0.099 C 
ATOM     17  C   UNL     1      34.390 -14.377 -22.794  0.00  0.00    +0.099 C 
ENDBRANCH   5   9
ENDBRANCH   1   3
BRANCH   1  18
ATOM     18  C   UNL     1      33.171 -23.495 -17.702  0.00  0.00    +0.184 C 
BRANCH  18  19
ATOM     19  C   UNL     1      32.870 -23.075 -16.260  0.00  0.00    -0.021 C 
BRANCH  19  20
ATOM     20  N   UNL     1      31.785 -23.911 -15.745  0.00  0.00    +0.384 N 
ATOM     21  H   UNL     1      32.136 -24.492 -14.983  0.00  0.00    -0.089 HD
ATOM     22  H   UNL     1      31.431 -24.507 -16.493  0.00  0.00    -0.089 HD
ATOM     23  H   UNL     1      31.032 -23.316 -15.399  0.00  0.00    -0.089 HD
ENDBRANCH  19  20
BRANCH  19  24
ATOM     24  C   UNL     1      34.125 -23.185 -15.367  0.00  0.00    -0.012 C 
BRANCH  24  26
ATOM     25  N   UNL     1      34.579 -24.385 -12.157  0.00  0.00    -0.270 NA
ATOM     26  C   UNL     1      34.163 -24.437 -14.511  0.00  0.00    +0.046 C 
ATOM     27  C   UNL     1      35.542 -24.926 -14.209  0.00  0.00    -0.007 C 
ATOM     28  C   UNL     1      33.706 -24.138 -13.087  0.00  0.00    +0.130 C 
ATOM     29  C   UNL     1      35.718 -24.874 -12.821  0.00  0.00    +0.071 C 
ATOM     30  C   UNL     1      36.540 -25.381 -15.050  0.00  0.00    -0.024 C 
ATOM     31  C   UNL     1      36.911 -25.274 -12.242  0.00  0.00    +0.014 C 
ATOM     32  C   UNL     1      37.746 -25.785 -14.474  0.00  0.00    +0.052 C 
ATOM     33  C   UNL     1      37.930 -25.732 -13.082  0.00  0.00    -0.020 C 
ENDBRANCH  24  26
ENDBRANCH  19  24
ENDBRANCH  18  19
ENDBRANCH   1  18
TORSDOF 7
ENDMDL
MODEL 4
REMARK VINA RESULT:     -12.1      4.670     11.463
REMARK  Name = 11840906
REMARK  7 active torsions:
REMARK  status: ('A' for Active; 'I' for Inactive)
REMARK    1  A    between atoms: O_1  and  C_3
REMARK    2  A    between atoms: O_1  and  C_18
REMARK    3  A    between atoms: C_5  and  C_9
REMARK    4  A    between atoms: C_18  and  C_19
REMARK    5  A    between atoms: C_19  and  N_20
REMARK    6  A    between atoms: C_19  and  C_24
REMARK    7  A    between atoms: C_24  and  C_26
REMARK                            x       y       z     vdW  Elec       q    Type
REMARK                         _______ _______ _______ _____ _____    ______ ____
ROOT
ATOM      1  O   UNL     1      34.923 -14.738 -23.265  0.00  0.00    -0.476 OA
ENDROOT
BRANCH   1   3
ATOM      2  N   UNL     1      33.893 -17.864 -24.830  0.00  0.00    -0.239 NA
ATOM      3  C   UNL     1      34.660 -16.074 -23.418  0.00  0.00    +0.158 C 
ATOM      4  C   UNL     1      34.880 -16.957 -22.376  0.00  0.00    +0.040 C 
ATOM      5  C   UNL     1      34.604 -18.307 -22.562  0.00  0.00    +0.022 C 
ATOM      6  C   UNL     1      34.173 -16.560 -24.613  0.00  0.00    +0.136 C 
ATOM      7  C   UNL     1      34.116 -18.706 -23.795  0.00  0.00    +0.099 C 
BRANCH   5   9
ATOM      8  N   UNL     1      34.375 -22.766 -17.871  0.00  0.00    -0.242 NA
ATOM      9  C   UNL     1      34.818 -19.263 -21.501  0.00  0.00    +0.002 C 
ATOM     10  C   UNL     1      33.933 -20.910 -19.941  0.00  0.00    +0.003 C 
ATOM     11  C   UNL     1      33.739 -19.978 -20.974  0.00  0.00    +0.000 C 
ATOM     12  C   UNL     1      35.233 -21.117 -19.439  0.00  0.00    +0.019 C 
ATOM     13  C   UNL     1      36.102 -19.472 -20.999  0.00  0.00    +0.000 C 
ATOM     14  C   UNL     1      36.312 -20.394 -19.973  0.00  0.00    +0.002 C 
ATOM     15  C   UNL     1      32.870 -21.641 -19.395  0.00  0.00    +0.021 C 
ATOM     16  C   UNL     1      35.387 -22.051 -18.412  0.00  0.00    +0.099 C 
ATOM     17  C   UNL     1      33.143 -22.542 -18.378  0.00  0.00    +0.099 C 
ENDBRANCH   5   9
ENDBRANCH   1   3
BRANCH   1  18
ATOM     18  C   UNL     1      33.807 -13.888 -23.035  0.00  0.00    +0.184 C 
BRANCH  18  19
ATOM     19  C   UNL     1      33.638 -12.922 -24.212  0.00  0.00    -0.021 C 
BRANCH  19  20
ATOM     20  N   UNL     1      32.351 -13.187 -24.855  0.00  0.00    +0.384 N 
ATOM     21  H   UNL     1      31.669 -13.467 -24.148  0.00  0.00    -0.089 HD
ATOM     22  H   UNL     1      32.460 -13.938 -25.537  0.00  0.00    -0.089 HD
ATOM     23  H   UNL     1      32.025 -12.344 -25.326  0.00  0.00    -0.089 HD
ENDBRANCH  19  20
BRANCH  19  24
ATOM     24  C   UNL     1      33.735 -11.451 -23.753  0.00  0.00    -0.012 C 
BRANCH  24  26
ATOM     25  N   UNL     1      32.176  -8.463 -22.987  0.00  0.00    -0.270 NA
ATOM     26  C   UNL     1      32.393 -10.752 -23.643  0.00  0.00    +0.046 C 
ATOM     27  C   UNL     1      31.873 -10.652 -22.246  0.00  0.00    -0.007 C 
ATOM     28  C   UNL     1      32.528  -9.263 -23.947  0.00  0.00    +0.130 C 
ATOM     29  C   UNL     1      31.766  -9.292 -21.927  0.00  0.00    +0.071 C 
ATOM     30  C   UNL     1      31.517 -11.637 -21.346  0.00  0.00    -0.024 C 
ATOM     31  C   UNL     1      31.302  -8.889 -20.687  0.00  0.00    +0.014 C 
ATOM     32  C   UNL     1      31.049 -11.239 -20.092  0.00  0.00    +0.052 C 
ATOM     33  C   UNL     1      30.943  -9.877 -19.765  0.00  0.00    -0.020 C 
ENDBRANCH  24  26
ENDBRANCH  19  24
ENDBRANCH  18  19
ENDBRANCH   1  18
TORSDOF 7
ENDMDL
MODEL 5
REMARK VINA RESULT:     -12.0      1.603     10.887
REMARK  Name = 11840906
REMARK  7 active torsions:
REMARK  status: ('A' for Active; 'I' for Inactive)
REMARK    1  A    between atoms: O_1  and  C_3
REMARK    2  A    between atoms: O_1  and  C_18
REMARK    3  A    between atoms: C_5  and  C_9
REMARK    4  A    between atoms: C_18  and  C_19
REMARK    5  A    between atoms: C_19  and  N_20
REMARK    6  A    between atoms: C_19  and  C_24
REMARK    7  A    between atoms: C_24  and  C_26
REMARK                            x       y       z     vdW  Elec       q    Type
REMARK                         _______ _______ _______ _____ _____    ______ ____
ROOT
ATOM      1  O   UNL     1      35.644 -20.782 -19.883  0.00  0.00    -0.476 OA
ENDROOT
BRANCH   1   3
ATOM      2  N   UNL     1      32.584 -22.468 -18.844  0.00  0.00    -0.239 NA
ATOM      3  C   UNL     1      34.778 -21.522 -19.119  0.00  0.00    +0.158 C 
ATOM      4  C   UNL     1      35.186 -22.052 -17.909  0.00  0.00    +0.040 C 
ATOM      5  C   UNL     1      34.284 -22.797 -17.157  0.00  0.00    +0.022 C 
ATOM      6  C   UNL     1      33.487 -21.749 -19.547  0.00  0.00    +0.136 C 
ATOM      7  C   UNL     1      33.007 -22.974 -17.664  0.00  0.00    +0.099 C 
BRANCH   5   9
ATOM      8  N   UNL     1      37.116 -25.360 -11.927  0.00  0.00    -0.242 NA
ATOM      9  C   UNL     1      34.668 -23.368 -15.887  0.00  0.00    +0.002 C 
ATOM     10  C   UNL     1      36.392 -24.247 -14.410  0.00  0.00    +0.003 C 
ATOM     11  C   UNL     1      36.005 -23.691 -15.640  0.00  0.00    +0.000 C 
ATOM     12  C   UNL     1      35.414 -24.478 -13.423  0.00  0.00    +0.019 C 
ATOM     13  C   UNL     1      33.704 -23.599 -14.907  0.00  0.00    +0.000 C 
ATOM     14  C   UNL     1      34.072 -24.151 -13.679  0.00  0.00    +0.002 C 
ATOM     15  C   UNL     1      37.725 -24.580 -14.135  0.00  0.00    +0.021 C 
ATOM     16  C   UNL     1      35.836 -25.032 -12.213  0.00  0.00    +0.099 C 
ATOM     17  C   UNL     1      38.027 -25.124 -12.897  0.00  0.00    +0.099 C 
ENDBRANCH   5   9
ENDBRANCH   1   3
BRANCH   1  18
ATOM     18  C   UNL     1      35.082 -20.061 -20.972  0.00  0.00    +0.184 C 
BRANCH  18  19
ATOM     19  C   UNL     1      35.740 -18.682 -21.076  0.00  0.00    -0.021 C 
BRANCH  19  20
ATOM     20  N   UNL     1      36.902 -18.783 -21.959  0.00  0.00    +0.384 N 
ATOM     21  H   UNL     1      36.708 -18.296 -22.835  0.00  0.00    -0.089 HD
ATOM     22  H   UNL     1      37.097 -19.766 -22.154  0.00  0.00    -0.089 HD
ATOM     23  H   UNL     1      37.712 -18.359 -21.507  0.00  0.00    -0.089 HD
ENDBRANCH  19  20
BRANCH  19  24
ATOM     24  C   UNL     1      34.745 -17.619 -21.590  0.00  0.00    -0.012 C 
BRANCH  24  26
ATOM     25  N   UNL     1      33.882 -15.259 -23.963  0.00  0.00    -0.270 NA
ATOM     26  C   UNL     1      35.108 -17.042 -22.945  0.00  0.00    +0.046 C 
ATOM     27  C   UNL     1      34.268 -17.555 -24.070  0.00  0.00    -0.007 C 
ATOM     28  C   UNL     1      34.729 -15.567 -23.028  0.00  0.00    +0.130 C 
ATOM     29  C   UNL     1      33.584 -16.465 -24.622  0.00  0.00    +0.071 C 
ATOM     30  C   UNL     1      34.121 -18.834 -24.571  0.00  0.00    -0.024 C 
ATOM     31  C   UNL     1      32.724 -16.638 -25.693  0.00  0.00    +0.014 C 
ATOM     32  C   UNL     1      33.255 -19.016 -25.652  0.00  0.00    +0.052 C 
ATOM     33  C   UNL     1      32.562 -17.927 -26.208  0.00  0.00    -0.020 C 
ENDBRANCH  24  26
ENDBRANCH  19  24
ENDBRANCH  18  19
ENDBRANCH   1  18
TORSDOF 7
ENDMDL
MODEL 6
REMARK VINA RESULT:     -11.8      1.490      2.117
REMARK  Name = 11840906
REMARK  7 active torsions:
REMARK  status: ('A' for Active; 'I' for Inactive)
REMARK    1  A    between atoms: O_1  and  C_3
REMARK    2  A    between atoms: O_1  and  C_18
REMARK    3  A    between atoms: C_5  and  C_9
REMARK    4  A    between atoms: C_18  and  C_19
REMARK    5  A    between atoms: C_19  and  N_20
REMARK    6  A    between atoms: C_19  and  C_24
REMARK    7  A    between atoms: C_24  and  C_26
REMARK                            x       y       z     vdW  Elec       q    Type
REMARK                         _______ _______ _______ _____ _____    ______ ____
ROOT
ATOM      1  O   UNL     1      33.914 -21.413 -19.534  0.00  0.00    -0.476 OA
ENDROOT
BRANCH   1   3
ATOM      2  N   UNL     1      36.810 -19.442 -20.542  0.00  0.00    -0.239 NA
ATOM      3  C   UNL     1      34.680 -20.518 -20.235  0.00  0.00    +0.158 C 
ATOM      4  C   UNL     1      34.143 -19.811 -21.295  0.00  0.00    +0.040 C 
ATOM      5  C   UNL     1      34.946 -18.910 -21.986  0.00  0.00    +0.022 C 
ATOM      6  C   UNL     1      36.000 -20.309 -19.894  0.00  0.00    +0.136 C 
ATOM      7  C   UNL     1      36.260 -18.764 -21.574  0.00  0.00    +0.099 C 
BRANCH   5   9
ATOM      8  N   UNL     1      32.076 -16.541 -27.286  0.00  0.00    -0.242 NA
ATOM      9  C   UNL     1      34.424 -18.151 -23.099  0.00  0.00    +0.002 C 
ATOM     10  C   UNL     1      33.079 -18.041 -25.125  0.00  0.00    +0.003 C 
ATOM     11  C   UNL     1      33.592 -18.767 -24.037  0.00  0.00    +0.000 C 
ATOM     12  C   UNL     1      33.413 -16.679 -25.260  0.00  0.00    +0.019 C 
ATOM     13  C   UNL     1      34.753 -16.803 -23.238  0.00  0.00    +0.000 C 
ATOM     14  C   UNL     1      34.251 -16.068 -24.313  0.00  0.00    +0.002 C 
ATOM     15  C   UNL     1      32.242 -18.632 -26.080  0.00  0.00    +0.021 C 
ATOM     16  C   UNL     1      32.884 -15.990 -26.353  0.00  0.00    +0.099 C 
ATOM     17  C   UNL     1      31.775 -17.848 -27.124  0.00  0.00    +0.099 C 
ENDBRANCH   5   9
ENDBRANCH   1   3
BRANCH   1  18
ATOM     18  C   UNL     1      34.608 -22.356 -18.728  0.00  0.00    +0.184 C 
BRANCH  18  19
ATOM     19  C   UNL     1      33.773 -22.692 -17.487  0.00  0.00    -0.021 C 
BRANCH  19  20
ATOM     20  N   UNL     1      32.957 -23.872 -17.779  0.00  0.00    +0.384 N 
ATOM     21  H   UNL     1      33.513 -24.715 -17.633  0.00  0.00    -0.089 HD
ATOM     22  H   UNL     1      32.641 -23.836 -18.748  0.00  0.00    -0.089 HD
ATOM     23  H   UNL     1      32.148 -23.887 -17.158  0.00  0.00    -0.089 HD
ENDBRANCH  19  20
BRANCH  19  24
ATOM     24  C   UNL     1      34.668 -22.929 -16.252  0.00  0.00    -0.012 C 
BRANCH  24  26
ATOM     25  N   UNL     1      33.722 -24.063 -13.127  0.00  0.00    -0.270 NA
ATOM     26  C   UNL     1      34.291 -24.159 -15.447  0.00  0.00    +0.046 C 
ATOM     27  C   UNL     1      35.403 -24.701 -14.609  0.00  0.00    -0.007 C 
ATOM     28  C   UNL     1      33.314 -23.802 -14.332  0.00  0.00    +0.130 C 
ATOM     29  C   UNL     1      35.005 -24.620 -13.269  0.00  0.00    +0.071 C 
ATOM     30  C   UNL     1      36.630 -25.222 -14.971  0.00  0.00    -0.024 C 
ATOM     31  C   UNL     1      35.839 -25.058 -12.254  0.00  0.00    +0.014 C 
ATOM     32  C   UNL     1      37.478 -25.665 -13.953  0.00  0.00    +0.052 C 
ATOM     33  C   UNL     1      37.086 -25.583 -12.606  0.00  0.00    -0.020 C 
ENDBRANCH  24  26
ENDBRANCH  19  24
ENDBRANCH  18  19
ENDBRANCH   1  18
TORSDOF 7
ENDMDL
MODEL 7
REMARK VINA RESULT:     -11.7      7.053     12.614
REMARK  Name = 11840906
REMARK  7 active torsions:
REMARK  status: ('A' for Active; 'I' for Inactive)
REMARK    1  A    between atoms: O_1  and  C_3
REMARK    2  A    between atoms: O_1  and  C_18
REMARK    3  A    between atoms: C_5  and  C_9
REMARK    4  A    between atoms: C_18  and  C_19
REMARK    5  A    between atoms: C_19  and  N_20
REMARK    6  A    between atoms: C_19  and  C_24
REMARK    7  A    between atoms: C_24  and  C_26
REMARK                            x       y       z     vdW  Elec       q    Type
REMARK                         _______ _______ _______ _____ _____    ______ ____
ROOT
ATOM      1  O   UNL     1      32.868 -10.016 -25.792  0.00  0.00    -0.476 OA
ENDROOT
BRANCH   1   3
ATOM      2  N   UNL     1      32.513 -13.345 -27.233  0.00  0.00    -0.239 NA
ATOM      3  C   UNL     1      32.898 -11.383 -25.896  0.00  0.00    +0.158 C 
ATOM      4  C   UNL     1      33.321 -12.159 -24.833  0.00  0.00    +0.040 C 
ATOM      5  C   UNL     1      33.340 -13.543 -24.970  0.00  0.00    +0.022 C 
ATOM      6  C   UNL     1      32.508 -12.004 -27.064  0.00  0.00    +0.136 C 
ATOM      7  C   UNL     1      32.930 -14.081 -26.178  0.00  0.00    +0.099 C 
BRANCH   5   9
ATOM      8  N   UNL     1      35.382 -18.195 -20.954  0.00  0.00    -0.242 NA
ATOM      9  C   UNL     1      33.773 -14.392 -23.884  0.00  0.00    +0.002 C 
ATOM     10  C   UNL     1      34.542 -16.560 -23.086  0.00  0.00    +0.003 C 
ATOM     11  C   UNL     1      34.121 -15.722 -24.132  0.00  0.00    +0.000 C 
ATOM     12  C   UNL     1      34.611 -16.041 -21.778  0.00  0.00    +0.019 C 
ATOM     13  C   UNL     1      33.842 -13.885 -22.587  0.00  0.00    +0.000 C 
ATOM     14  C   UNL     1      34.259 -14.703 -21.537  0.00  0.00    +0.002 C 
ATOM     15  C   UNL     1      34.898 -17.896 -23.305  0.00  0.00    +0.021 C 
ATOM     16  C   UNL     1      35.035 -16.902 -20.764  0.00  0.00    +0.099 C 
ATOM     17  C   UNL     1      35.305 -18.657 -22.221  0.00  0.00    +0.099 C 
ENDBRANCH   5   9
ENDBRANCH   1   3
BRANCH   1  18
ATOM     18  C   UNL     1      33.985  -9.397 -25.167  0.00  0.00    +0.184 C 
BRANCH  18  19
ATOM     19  C   UNL     1      33.549  -8.086 -24.504  0.00  0.00    -0.021 C 
BRANCH  19  20
ATOM     20  N   UNL     1      32.137  -7.854 -24.810  0.00  0.00    +0.384 N 
ATOM     21  H   UNL     1      31.697  -8.737 -25.072  0.00  0.00    -0.089 HD
ATOM     22  H   UNL     1      32.061  -7.194 -25.584  0.00  0.00    -0.089 HD
ATOM     23  H   UNL     1      31.670  -7.471 -23.989  0.00  0.00    -0.089 HD
ENDBRANCH  19  20
BRANCH  19  24
ATOM     24  C   UNL     1      33.788  -8.118 -22.980  0.00  0.00    -0.012 C 
BRANCH  24  26
ATOM     25  N   UNL     1      32.537  -7.803 -19.772  0.00  0.00    -0.270 NA
ATOM     26  C   UNL     1      32.520  -7.989 -22.156  0.00  0.00    +0.046 C 
ATOM     27  C   UNL     1      32.072  -9.268 -21.525  0.00  0.00    -0.007 C 
ATOM     28  C   UNL     1      32.773  -7.181 -20.888  0.00  0.00    +0.130 C 
ATOM     29  C   UNL     1      32.101  -9.090 -20.136  0.00  0.00    +0.071 C 
ATOM     30  C   UNL     1      31.670 -10.460 -22.095  0.00  0.00    -0.024 C 
ATOM     31  C   UNL     1      31.730 -10.115 -19.283  0.00  0.00    +0.014 C 
ATOM     32  C   UNL     1      31.294 -11.499 -21.241  0.00  0.00    +0.052 C 
ATOM     33  C   UNL     1      31.325 -11.328 -19.847  0.00  0.00    -0.020 C 
ENDBRANCH  24  26
ENDBRANCH  19  24
ENDBRANCH  18  19
ENDBRANCH   1  18
TORSDOF 7
ENDMDL
MODEL 8
REMARK VINA RESULT:     -11.7      1.592      2.310
REMARK  Name = 11840906
REMARK  7 active torsions:
REMARK  status: ('A' for Active; 'I' for Inactive)
REMARK    1  A    between atoms: O_1  and  C_3
REMARK    2  A    between atoms: O_1  and  C_18
REMARK    3  A    between atoms: C_5  and  C_9
REMARK    4  A    between atoms: C_18  and  C_19
REMARK    5  A    between atoms: C_19  and  N_20
REMARK    6  A    between atoms: C_19  and  C_24
REMARK    7  A    between atoms: C_24  and  C_26
REMARK                            x       y       z     vdW  Elec       q    Type
REMARK                         _______ _______ _______ _____ _____    ______ ____
ROOT
ATOM      1  O   UNL     1      36.014 -22.375 -17.917  0.00  0.00    -0.476 OA
ENDROOT
BRANCH   1   3
ATOM      2  N   UNL     1      32.648 -22.033 -19.273  0.00  0.00    -0.239 NA
ATOM      3  C   UNL     1      34.975 -21.904 -18.678  0.00  0.00    +0.158 C 
ATOM      4  C   UNL     1      35.175 -20.876 -19.580  0.00  0.00    +0.040 C 
ATOM      5  C   UNL     1      34.101 -20.420 -20.338  0.00  0.00    +0.022 C 
ATOM      6  C   UNL     1      33.715 -22.449 -18.554  0.00  0.00    +0.136 C 
ATOM      7  C   UNL     1      32.871 -21.027 -20.149  0.00  0.00    +0.099 C 
BRANCH   5   9
ATOM      8  N   UNL     1      34.276 -16.362 -25.381  0.00  0.00    -0.242 NA
ATOM      9  C   UNL     1      34.266 -19.349 -21.293  0.00  0.00    +0.002 C 
ATOM     10  C   UNL     1      33.942 -18.463 -23.537  0.00  0.00    +0.003 C 
ATOM     11  C   UNL     1      33.788 -19.495 -22.598  0.00  0.00    +0.000 C 
ATOM     12  C   UNL     1      34.587 -17.271 -23.148  0.00  0.00    +0.019 C 
ATOM     13  C   UNL     1      34.903 -18.169 -20.913  0.00  0.00    +0.000 C 
ATOM     14  C   UNL     1      35.064 -17.133 -21.834  0.00  0.00    +0.002 C 
ATOM     15  C   UNL     1      33.473 -18.581 -24.851  0.00  0.00    +0.021 C 
ATOM     16  C   UNL     1      34.721 -16.267 -24.108  0.00  0.00    +0.099 C 
ATOM     17  C   UNL     1      33.663 -17.517 -25.719  0.00  0.00    +0.099 C 
ENDBRANCH   5   9
ENDBRANCH   1   3
BRANCH   1  18
ATOM     18  C   UNL     1      36.133 -21.848 -16.601  0.00  0.00    +0.184 C 
BRANCH  18  19
ATOM     19  C   UNL     1      36.271 -22.995 -15.594  0.00  0.00    -0.021 C 
BRANCH  19  20
ATOM     20  N   UNL     1      35.174 -23.940 -15.808  0.00  0.00    +0.384 N 
ATOM     21  H   UNL     1      34.298 -23.519 -15.499  0.00  0.00    -0.089 HD
ATOM     22  H   UNL     1      35.349 -24.791 -15.274  0.00  0.00    -0.089 HD
ATOM     23  H   UNL     1      35.111 -24.168 -16.800  0.00  0.00    -0.089 HD
ENDBRANCH  19  20
BRANCH  19  24
ATOM     24  C   UNL     1      37.640 -23.696 -15.722  0.00  0.00    -0.012 C 
BRANCH  24  26
ATOM     25  N   UNL     1      36.580 -26.357 -13.786  0.00  0.00    -0.270 NA
ATOM     26  C   UNL     1      37.991 -24.579 -14.539  0.00  0.00    +0.046 C 
ATOM     27  C   UNL     1      37.297 -24.201 -13.270  0.00  0.00    -0.007 C 
ATOM     28  C   UNL     1      37.410 -25.979 -14.711  0.00  0.00    +0.130 C 
ATOM     29  C   UNL     1      36.495 -25.282 -12.884  0.00  0.00    +0.071 C 
ATOM     30  C   UNL     1      37.362 -23.042 -12.521  0.00  0.00    -0.024 C 
ATOM     31  C   UNL     1      35.730 -25.221 -11.732  0.00  0.00    +0.014 C 
ATOM     32  C   UNL     1      36.593 -22.973 -11.357  0.00  0.00    +0.052 C 
ATOM     33  C   UNL     1      35.784 -24.052 -10.967  0.00  0.00    -0.020 C 
ENDBRANCH  24  26
ENDBRANCH  19  24
ENDBRANCH  18  19
ENDBRANCH   1  18
TORSDOF 7
ENDMDL
MODEL 9
REMARK VINA RESULT:     -11.6      1.356      2.091
REMARK  Name = 11840906
REMARK  7 active torsions:
REMARK  status: ('A' for Active; 'I' for Inactive)
REMARK    1  A    between atoms: O_1  and  C_3
REMARK    2  A    between atoms: O_1  and  C_18
REMARK    3  A    between atoms: C_5  and  C_9
REMARK    4  A    between atoms: C_18  and  C_19
REMARK    5  A    between atoms: C_19  and  N_20
REMARK    6  A    between atoms: C_19  and  C_24
REMARK    7  A    between atoms: C_24  and  C_26
REMARK                            x       y       z     vdW  Elec       q    Type
REMARK                         _______ _______ _______ _____ _____    ______ ____
ROOT
ATOM      1  O   UNL     1      33.565 -21.714 -19.763  0.00  0.00    -0.476 OA
ENDROOT
BRANCH   1   3
ATOM      2  N   UNL     1      36.642 -19.815 -20.222  0.00  0.00    -0.239 NA
ATOM      3  C   UNL     1      34.429 -20.758 -20.230  0.00  0.00    +0.158 C 
ATOM      4  C   UNL     1      34.001 -19.809 -21.141  0.00  0.00    +0.040 C 
ATOM      5  C   UNL     1      34.901 -18.852 -21.597  0.00  0.00    +0.022 C 
ATOM      6  C   UNL     1      35.739 -20.728 -19.802  0.00  0.00    +0.136 C 
ATOM      7  C   UNL     1      36.197 -18.898 -21.111  0.00  0.00    +0.099 C 
BRANCH   5   9
ATOM      8  N   UNL     1      33.405 -13.546 -24.995  0.00  0.00    -0.242 NA
ATOM      9  C   UNL     1      34.496 -17.843 -22.547  0.00  0.00    +0.002 C 
ATOM     10  C   UNL     1      34.203 -15.496 -23.128  0.00  0.00    +0.003 C 
ATOM     11  C   UNL     1      34.595 -16.489 -22.214  0.00  0.00    +0.000 C 
ATOM     12  C   UNL     1      33.707 -15.882 -24.389  0.00  0.00    +0.019 C 
ATOM     13  C   UNL     1      34.004 -18.218 -23.796  0.00  0.00    +0.000 C 
ATOM     14  C   UNL     1      33.610 -17.245 -24.715  0.00  0.00    +0.002 C 
ATOM     15  C   UNL     1      34.291 -14.133 -22.822  0.00  0.00    +0.021 C 
ATOM     16  C   UNL     1      33.328 -14.868 -25.271  0.00  0.00    +0.099 C 
ATOM     17  C   UNL     1      33.886 -13.214 -23.778  0.00  0.00    +0.099 C 
ENDBRANCH   5   9
ENDBRANCH   1   3
BRANCH   1  18
ATOM     18  C   UNL     1      34.105 -22.687 -18.878  0.00  0.00    +0.184 C 
BRANCH  18  19
ATOM     19  C   UNL     1      33.430 -22.575 -17.507  0.00  0.00    -0.021 C 
BRANCH  19  20
ATOM     20  N   UNL     1      32.012 -22.907 -17.655  0.00  0.00    +0.384 N 
ATOM     21  H   UNL     1      31.514 -22.104 -18.041  0.00  0.00    -0.089 HD
ATOM     22  H   UNL     1      31.621 -23.143 -16.743  0.00  0.00    -0.089 HD
ATOM     23  H   UNL     1      31.913 -23.703 -18.284  0.00  0.00    -0.089 HD
ENDBRANCH  19  20
BRANCH  19  24
ATOM     24  C   UNL     1      34.108 -23.492 -16.468  0.00  0.00    -0.012 C 
BRANCH  24  26
ATOM     25  N   UNL     1      37.412 -23.152 -15.508  0.00  0.00    -0.270 NA
ATOM     26  C   UNL     1      35.052 -22.765 -15.529  0.00  0.00    +0.046 C 
ATOM     27  C   UNL     1      35.445 -23.559 -14.325  0.00  0.00    -0.007 C 
ATOM     28  C   UNL     1      36.431 -22.602 -16.160  0.00  0.00    +0.130 C 
ATOM     29  C   UNL     1      36.833 -23.745 -14.373  0.00  0.00    +0.071 C 
ATOM     30  C   UNL     1      34.681 -24.060 -13.289  0.00  0.00    -0.024 C 
ATOM     31  C   UNL     1      37.487 -24.450 -13.377  0.00  0.00    +0.014 C 
ATOM     32  C   UNL     1      35.334 -24.772 -12.281  0.00  0.00    +0.052 C 
ATOM     33  C   UNL     1      36.725 -24.965 -12.325  0.00  0.00    -0.020 C 
ENDBRANCH  24  26
ENDBRANCH  19  24
ENDBRANCH  18  19
ENDBRANCH   1  18
TORSDOF 7
ENDMDL
