MODEL 1
REMARK VINA RESULT:     -12.1      0.000      0.000
REMARK  Name = 446399
REMARK  4 active torsions:
REMARK  status: ('A' for Active; 'I' for Inactive)
REMARK    1  A    between atoms: N_3  and  S_21
REMARK    2  A    between atoms: C_4  and  C_10
REMARK    3  A    between atoms: N_9  and  C_16
REMARK    4  A    between atoms: S_21  and  C_25
REMARK                            x       y       z     vdW  Elec       q    Type
REMARK                         _______ _______ _______ _____ _____    ______ ____
ROOT
ATOM      1  O   UNL     1      33.022 -13.533 -25.976  0.00  0.00    -0.275 OA
ATOM      2  N   UNL     1      33.448 -14.899 -24.147  0.00  0.00    -0.277 N 
ATOM      3  N   UNL     1      34.605 -17.356 -23.299  0.00  0.00    -0.152 NA
ATOM      4  C   UNL     1      33.320 -13.667 -24.786  0.00  0.00    +0.225 C 
ATOM      5  C   UNL     1      33.800 -15.093 -22.735  0.00  0.00    +0.113 C 
ATOM      6  C   UNL     1      33.156 -16.135 -24.873  0.00  0.00    +0.113 C 
ATOM      7  C   UNL     1      34.954 -16.083 -22.598  0.00  0.00    +0.117 C 
ATOM      8  C   UNL     1      34.308 -17.125 -24.745  0.00  0.00    +0.117 C 
ENDROOT
BRANCH   4  10
ATOM      9  N   UNL     1      32.995  -9.695 -23.263  0.00  0.00    -0.307 N 
ATOM     10  C   UNL     1      33.569 -12.441 -23.945  0.00  0.00    +0.080 C 
ATOM     11  C   UNL     1      32.285 -12.053 -23.217  0.00  0.00    +0.031 C 
ATOM     12  C   UNL     1      34.039 -11.286 -24.827  0.00  0.00    +0.031 C 
ATOM     13  C   UNL     1      32.463 -10.766 -22.412  0.00  0.00    +0.091 C 
ATOM     14  C   UNL     1      34.219 -10.005 -24.015  0.00  0.00    +0.091 C 
BRANCH   9  16
ATOM     15  N   UNL     1      32.352  -5.668 -22.174  0.00  0.00    -0.242 NA
ATOM     16  C   UNL     1      32.782  -8.359 -22.902  0.00  0.00    +0.051 C 
ATOM     17  C   UNL     1      32.747  -7.971 -21.554  0.00  0.00    +0.035 C 
ATOM     18  C   UNL     1      32.596  -7.367 -23.878  0.00  0.00    +0.035 C 
ATOM     19  C   UNL     1      32.532  -6.636 -21.249  0.00  0.00    +0.100 C 
ATOM     20  C   UNL     1      32.389  -6.059 -23.468  0.00  0.00    +0.100 C 
ENDBRANCH   9  16
ENDBRANCH   4  10
BRANCH   3  21
ATOM     21  S   UNL     1      35.635 -18.683 -22.965  0.00  0.00    +0.063 S 
ATOM     22  O   UNL     1      36.817 -18.203 -22.283  0.00  0.00    -0.153 OA
ATOM     23  O   UNL     1      35.740 -19.504 -24.152  0.00  0.00    -0.153 OA
BRANCH  21  25
ATOM     24 CL   UNL     1      31.954 -23.275 -16.879  0.00  0.00    -0.082 Cl
ATOM     25  C   UNL     1      34.646 -19.551 -21.789  0.00  0.00    +0.122 C 
ATOM     26  C   UNL     1      35.265 -20.353 -20.844  0.00  0.00    +0.020 C 
ATOM     27  C   UNL     1      33.271 -19.414 -21.830  0.00  0.00    +0.020 C 
ATOM     28  C   UNL     1      34.492 -21.050 -19.900  0.00  0.00    +0.001 C 
ATOM     29  C   UNL     1      33.083 -20.921 -19.929  0.00  0.00    +0.001 C 
ATOM     30  C   UNL     1      32.488 -20.100 -20.900  0.00  0.00    +0.001 C 
ATOM     31  C   UNL     1      35.087 -21.872 -18.929  0.00  0.00    +0.001 C 
ATOM     32  C   UNL     1      32.310 -21.618 -18.985  0.00  0.00    +0.011 C 
ATOM     33  C   UNL     1      34.303 -22.557 -17.999  0.00  0.00    +0.011 C 
ATOM     34  C   UNL     1      32.917 -22.430 -18.028  0.00  0.00    +0.058 C 
ENDBRANCH  21  25
ENDBRANCH   3  21
TORSDOF 4
ENDMDL
MODEL 2
REMARK VINA RESULT:     -11.7      4.464     11.151
REMARK  Name = 446399
REMARK  4 active torsions:
REMARK  status: ('A' for Active; 'I' for Inactive)
REMARK    1  A    between atoms: N_3  and  S_21
REMARK    2  A    between atoms: C_4  and  C_10
REMARK    3  A    between atoms: N_9  and  C_16
REMARK    4  A    between atoms: S_21  and  C_25
REMARK                            x       y       z     vdW  Elec       q    Type
REMARK                         _______ _______ _______ _____ _____    ______ ____
ROOT
ATOM      1  O   UNL     1      36.923 -19.326 -20.622  0.00  0.00    -0.275 OA
ATOM      2  N   UNL     1      34.890 -18.961 -21.684  0.00  0.00    -0.277 N 
ATOM      3  N   UNL     1      33.646 -18.048 -24.074  0.00  0.00    -0.152 NA
ATOM      4  C   UNL     1      35.758 -19.662 -20.849  0.00  0.00    +0.225 C 
ATOM      5  C   UNL     1      33.500 -19.334 -21.975  0.00  0.00    +0.113 C 
ATOM      6  C   UNL     1      35.322 -17.706 -22.301  0.00  0.00    +0.113 C 
ATOM      7  C   UNL     1      33.252 -19.361 -23.480  0.00  0.00    +0.117 C 
ATOM      8  C   UNL     1      35.082 -17.730 -23.807  0.00  0.00    +0.117 C 
ENDROOT
BRANCH   4  10
ATOM      9  N   UNL     1      33.935 -22.231 -17.972  0.00  0.00    -0.307 N 
ATOM     10  C   UNL     1      35.209 -20.906 -20.197  0.00  0.00    +0.080 C 
ATOM     11  C   UNL     1      33.725 -20.713 -19.900  0.00  0.00    +0.031 C 
ATOM     12  C   UNL     1      35.968 -21.200 -18.905  0.00  0.00    +0.031 C 
ATOM     13  C   UNL     1      33.139 -21.917 -19.164  0.00  0.00    +0.091 C 
ATOM     14  C   UNL     1      35.379 -22.407 -18.178  0.00  0.00    +0.091 C 
BRANCH   9  16
ATOM     15  N   UNL     1      32.154 -24.355 -14.788  0.00  0.00    -0.242 NA
ATOM     16  C   UNL     1      33.344 -22.936 -16.916  0.00  0.00    +0.051 C 
ATOM     17  C   UNL     1      31.956 -23.135 -16.866  0.00  0.00    +0.035 C 
ATOM     18  C   UNL     1      34.122 -23.464 -15.874  0.00  0.00    +0.035 C 
ATOM     19  C   UNL     1      31.420 -23.840 -15.799  0.00  0.00    +0.100 C 
ATOM     20  C   UNL     1      33.490 -24.154 -14.852  0.00  0.00    +0.100 C 
ENDBRANCH   9  16
ENDBRANCH   4  10
BRANCH   3  21
ATOM     21  S   UNL     1      33.127 -17.787 -25.686  0.00  0.00    +0.063 S 
ATOM     22  O   UNL     1      31.765 -18.253 -25.824  0.00  0.00    -0.153 OA
ATOM     23  O   UNL     1      34.164 -18.233 -26.590  0.00  0.00    -0.153 OA
BRANCH  21  25
ATOM     24 CL   UNL     1      33.084  -9.388 -24.614  0.00  0.00    -0.082 Cl
ATOM     25  C   UNL     1      33.100 -16.022 -25.717  0.00  0.00    +0.122 C 
ATOM     26  C   UNL     1      33.168 -15.322 -24.524  0.00  0.00    +0.020 C 
ATOM     27  C   UNL     1      33.013 -15.369 -26.933  0.00  0.00    +0.020 C 
ATOM     28  C   UNL     1      33.148 -13.917 -24.532  0.00  0.00    +0.001 C 
ATOM     29  C   UNL     1      33.059 -13.234 -25.768  0.00  0.00    +0.001 C 
ATOM     30  C   UNL     1      32.992 -13.974 -26.959  0.00  0.00    +0.001 C 
ATOM     31  C   UNL     1      33.215 -13.177 -23.341  0.00  0.00    +0.001 C 
ATOM     32  C   UNL     1      33.040 -11.829 -25.777  0.00  0.00    +0.011 C 
ATOM     33  C   UNL     1      33.195 -11.781 -23.368  0.00  0.00    +0.011 C 
ATOM     34  C   UNL     1      33.107 -11.109 -24.584  0.00  0.00    +0.058 C 
ENDBRANCH  21  25
ENDBRANCH   3  21
TORSDOF 4
ENDMDL
MODEL 3
REMARK VINA RESULT:     -11.6      4.699     11.411
REMARK  Name = 446399
REMARK  4 active torsions:
REMARK  status: ('A' for Active; 'I' for Inactive)
REMARK    1  A    between atoms: N_3  and  S_21
REMARK    2  A    between atoms: C_4  and  C_10
REMARK    3  A    between atoms: N_9  and  C_16
REMARK    4  A    between atoms: S_21  and  C_25
REMARK                            x       y       z     vdW  Elec       q    Type
REMARK                         _______ _______ _______ _____ _____    ______ ____
ROOT
ATOM      1  O   UNL     1      37.175 -19.556 -20.536  0.00  0.00    -0.275 OA
ATOM      2  N   UNL     1      35.113 -19.047 -21.476  0.00  0.00    -0.277 N 
ATOM      3  N   UNL     1      33.799 -18.002 -23.774  0.00  0.00    -0.152 NA
ATOM      4  C   UNL     1      35.981 -19.818 -20.706  0.00  0.00    +0.225 C 
ATOM      5  C   UNL     1      33.690 -19.331 -21.698  0.00  0.00    +0.113 C 
ATOM      6  C   UNL     1      35.584 -17.804 -22.088  0.00  0.00    +0.113 C 
ATOM      7  C   UNL     1      33.360 -19.304 -23.188  0.00  0.00    +0.117 C 
ATOM      8  C   UNL     1      35.263 -17.775 -23.578  0.00  0.00    +0.117 C 
ENDROOT
BRANCH   4  10
ATOM      9  N   UNL     1      33.977 -22.306 -17.879  0.00  0.00    -0.307 N 
ATOM     10  C   UNL     1      35.395 -21.045 -20.053  0.00  0.00    +0.080 C 
ATOM     11  C   UNL     1      33.893 -20.852 -19.865  0.00  0.00    +0.031 C 
ATOM     12  C   UNL     1      36.064 -21.292 -18.704  0.00  0.00    +0.031 C 
ATOM     13  C   UNL     1      33.264 -22.037 -19.132  0.00  0.00    +0.091 C 
ATOM     14  C   UNL     1      35.433 -22.479 -17.980  0.00  0.00    +0.091 C 
BRANCH   9  16
ATOM     15  N   UNL     1      31.993 -24.342 -14.758  0.00  0.00    -0.242 NA
ATOM     16  C   UNL     1      33.319 -22.981 -16.843  0.00  0.00    +0.051 C 
ATOM     17  C   UNL     1      34.037 -23.554 -15.782  0.00  0.00    +0.035 C 
ATOM     18  C   UNL     1      31.921 -23.107 -16.836  0.00  0.00    +0.035 C 
ATOM     19  C   UNL     1      33.338 -24.212 -14.781  0.00  0.00    +0.100 C 
ATOM     20  C   UNL     1      31.318 -23.785 -15.788  0.00  0.00    +0.100 C 
ENDBRANCH   9  16
ENDBRANCH   4  10
BRANCH   3  21
ATOM     21  S   UNL     1      33.210 -17.670 -25.348  0.00  0.00    +0.063 S 
ATOM     22  O   UNL     1      31.848 -18.143 -25.452  0.00  0.00    -0.153 OA
ATOM     23  O   UNL     1      34.213 -18.062 -26.315  0.00  0.00    -0.153 OA
BRANCH  21  25
ATOM     24 CL   UNL     1      32.656  -9.271 -26.264  0.00  0.00    -0.082 Cl
ATOM     25  C   UNL     1      33.167 -15.906 -25.294  0.00  0.00    +0.122 C 
ATOM     26  C   UNL     1      32.810 -15.202 -26.431  0.00  0.00    +0.020 C 
ATOM     27  C   UNL     1      33.490 -15.258 -24.116  0.00  0.00    +0.020 C 
ATOM     28  C   UNL     1      32.771 -13.797 -26.404  0.00  0.00    +0.001 C 
ATOM     29  C   UNL     1      33.098 -13.119 -25.206  0.00  0.00    +0.001 C 
ATOM     30  C   UNL     1      33.456 -13.864 -24.072  0.00  0.00    +0.001 C 
ATOM     31  C   UNL     1      32.412 -13.053 -27.540  0.00  0.00    +0.001 C 
ATOM     32  C   UNL     1      33.058 -11.715 -25.179  0.00  0.00    +0.011 C 
ATOM     33  C   UNL     1      32.379 -11.658 -27.495  0.00  0.00    +0.011 C 
ATOM     34  C   UNL     1      32.701 -10.991 -26.317  0.00  0.00    +0.058 C 
ENDBRANCH  21  25
ENDBRANCH   3  21
TORSDOF 4
ENDMDL
MODEL 4
REMARK VINA RESULT:     -10.9      1.709      2.318
REMARK  Name = 446399
REMARK  4 active torsions:
REMARK  status: ('A' for Active; 'I' for Inactive)
REMARK    1  A    between atoms: N_3  and  S_21
REMARK    2  A    between atoms: C_4  and  C_10
REMARK    3  A    between atoms: N_9  and  C_16
REMARK    4  A    between atoms: S_21  and  C_25
REMARK                            x       y       z     vdW  Elec       q    Type
REMARK                         _______ _______ _______ _____ _____    ______ ____
ROOT
ATOM      1  O   UNL     1      32.407 -13.577 -20.058  0.00  0.00    -0.275 OA
ATOM      2  N   UNL     1      33.925 -14.498 -21.556  0.00  0.00    -0.277 N 
ATOM      3  N   UNL     1      35.223 -16.895 -22.372  0.00  0.00    -0.152 NA
ATOM      4  C   UNL     1      32.900 -13.627 -21.188  0.00  0.00    +0.225 C 
ATOM      5  C   UNL     1      34.533 -14.584 -22.889  0.00  0.00    +0.113 C 
ATOM      6  C   UNL     1      34.530 -15.380 -20.557  0.00  0.00    +0.113 C 
ATOM      7  C   UNL     1      34.548 -16.027 -23.384  0.00  0.00    +0.117 C 
ATOM      8  C   UNL     1      34.542 -16.825 -21.043  0.00  0.00    +0.117 C 
ENDROOT
BRANCH   4  10
ATOM      9  N   UNL     1      32.489 -10.201 -23.696  0.00  0.00    -0.307 N 
ATOM     10  C   UNL     1      32.382 -12.704 -22.261  0.00  0.00    +0.080 C 
ATOM     11  C   UNL     1      33.500 -12.404 -23.257  0.00  0.00    +0.031 C 
ATOM     12  C   UNL     1      31.876 -11.406 -21.637  0.00  0.00    +0.031 C 
ATOM     13  C   UNL     1      33.048 -11.405 -24.322  0.00  0.00    +0.091 C 
ATOM     14  C   UNL     1      31.423 -10.415 -22.707  0.00  0.00    +0.091 C 
BRANCH   9  16
ATOM     15  N   UNL     1      32.436  -6.574 -25.855  0.00  0.00    -0.242 NA
ATOM     16  C   UNL     1      32.472  -8.998 -24.412  0.00  0.00    +0.051 C 
ATOM     17  C   UNL     1      32.327  -7.767 -23.755  0.00  0.00    +0.035 C 
ATOM     18  C   UNL     1      32.597  -8.986 -25.811  0.00  0.00    +0.035 C 
ATOM     19  C   UNL     1      32.316  -6.604 -24.509  0.00  0.00    +0.100 C 
ATOM     20  C   UNL     1      32.574  -7.769 -26.472  0.00  0.00    +0.100 C 
ENDBRANCH   9  16
ENDBRANCH   4  10
BRANCH   3  21
ATOM     21  S   UNL     1      35.623 -18.472 -22.907  0.00  0.00    +0.063 S 
ATOM     22  O   UNL     1      37.029 -18.709 -22.667  0.00  0.00    -0.153 OA
ATOM     23  O   UNL     1      35.044 -18.683 -24.216  0.00  0.00    -0.153 OA
BRANCH  21  25
ATOM     24 CL   UNL     1      32.314 -23.427 -16.893  0.00  0.00    -0.082 Cl
ATOM     25  C   UNL     1      34.706 -19.433 -21.745  0.00  0.00    +0.122 C 
ATOM     26  C   UNL     1      35.385 -20.195 -20.810  0.00  0.00    +0.020 C 
ATOM     27  C   UNL     1      33.324 -19.407 -21.789  0.00  0.00    +0.020 C 
ATOM     28  C   UNL     1      34.669 -20.965 -19.878  0.00  0.00    +0.001 C 
ATOM     29  C   UNL     1      33.254 -20.949 -19.909  0.00  0.00    +0.001 C 
ATOM     30  C   UNL     1      32.597 -20.166 -20.870  0.00  0.00    +0.001 C 
ATOM     31  C   UNL     1      35.327 -21.748 -18.916  0.00  0.00    +0.001 C 
ATOM     32  C   UNL     1      32.538 -21.719 -18.976  0.00  0.00    +0.011 C 
ATOM     33  C   UNL     1      34.600 -22.507 -17.997  0.00  0.00    +0.011 C 
ATOM     34  C   UNL     1      33.208 -22.492 -18.028  0.00  0.00    +0.058 C 
ENDBRANCH  21  25
ENDBRANCH   3  21
TORSDOF 4
ENDMDL
MODEL 5
REMARK VINA RESULT:     -10.8      3.343      5.151
REMARK  Name = 446399
REMARK  4 active torsions:
REMARK  status: ('A' for Active; 'I' for Inactive)
REMARK    1  A    between atoms: N_3  and  S_21
REMARK    2  A    between atoms: C_4  and  C_10
REMARK    3  A    between atoms: N_9  and  C_16
REMARK    4  A    between atoms: S_21  and  C_25
REMARK                            x       y       z     vdW  Elec       q    Type
REMARK                         _______ _______ _______ _____ _____    ______ ____
ROOT
ATOM      1  O   UNL     1      31.955 -10.416 -21.997  0.00  0.00    -0.275 OA
ATOM      2  N   UNL     1      32.895 -11.089 -24.011  0.00  0.00    -0.277 N 
ATOM      3  N   UNL     1      33.192 -13.257 -25.829  0.00  0.00    -0.152 NA
ATOM      4  C   UNL     1      32.279 -10.171 -23.162  0.00  0.00    +0.225 C 
ATOM      5  C   UNL     1      33.292 -10.830 -25.400  0.00  0.00    +0.113 C 
ATOM      6  C   UNL     1      33.260 -12.416 -23.515  0.00  0.00    +0.113 C 
ATOM      7  C   UNL     1      32.756 -11.917 -26.327  0.00  0.00    +0.117 C 
ATOM      8  C   UNL     1      32.721 -13.507 -24.433  0.00  0.00    +0.117 C 
ENDROOT
BRANCH   4  10
ATOM      9  N   UNL     1      31.676  -5.955 -23.400  0.00  0.00    -0.307 N 
ATOM     10  C   UNL     1      32.003  -8.803 -23.733  0.00  0.00    +0.080 C 
ATOM     11  C   UNL     1      33.197  -7.890 -23.467  0.00  0.00    +0.031 C 
ATOM     12  C   UNL     1      30.744  -8.215 -23.100  0.00  0.00    +0.031 C 
ATOM     13  C   UNL     1      32.934  -6.466 -23.955  0.00  0.00    +0.091 C 
ATOM     14  C   UNL     1      30.485  -6.794 -23.596  0.00  0.00    +0.091 C 
BRANCH   9  16
ATOM     15  N   UNL     1      31.083  -1.786 -23.100  0.00  0.00    -0.242 NA
ATOM     16  C   UNL     1      31.479  -4.572 -23.300  0.00  0.00    +0.051 C 
ATOM     17  C   UNL     1      30.258  -4.045 -22.853  0.00  0.00    +0.035 C 
ATOM     18  C   UNL     1      32.498  -3.670 -23.645  0.00  0.00    +0.035 C 
ATOM     19  C   UNL     1      30.114  -2.668 -22.772  0.00  0.00    +0.100 C 
ATOM     20  C   UNL     1      32.254  -2.311 -23.528  0.00  0.00    +0.100 C 
ENDBRANCH   9  16
ENDBRANCH   4  10
BRANCH   3  21
ATOM     21  S   UNL     1      32.965 -14.556 -26.923  0.00  0.00    +0.063 S 
ATOM     22  O   UNL     1      34.009 -14.520 -27.922  0.00  0.00    -0.153 OA
ATOM     23  O   UNL     1      31.569 -14.609 -27.302  0.00  0.00    -0.153 OA
BRANCH  21  25
ATOM     24 CL   UNL     1      35.132 -20.293 -21.085  0.00  0.00    -0.082 Cl
ATOM     25  C   UNL     1      33.289 -15.920 -25.850  0.00  0.00    +0.122 C 
ATOM     26  C   UNL     1      34.036 -15.717 -24.702  0.00  0.00    +0.020 C 
ATOM     27  C   UNL     1      32.790 -17.168 -26.175  0.00  0.00    +0.020 C 
ATOM     28  C   UNL     1      34.303 -16.792 -23.838  0.00  0.00    +0.001 C 
ATOM     29  C   UNL     1      33.799 -18.076 -24.156  0.00  0.00    +0.001 C 
ATOM     30  C   UNL     1      33.045 -18.247 -25.328  0.00  0.00    +0.001 C 
ATOM     31  C   UNL     1      35.057 -16.621 -22.667  0.00  0.00    +0.001 C 
ATOM     32  C   UNL     1      34.065 -19.151 -23.292  0.00  0.00    +0.011 C 
ATOM     33  C   UNL     1      35.312 -17.701 -21.820  0.00  0.00    +0.011 C 
ATOM     34  C   UNL     1      34.817 -18.963 -22.133  0.00  0.00    +0.058 C 
ENDBRANCH  21  25
ENDBRANCH   3  21
TORSDOF 4
ENDMDL
MODEL 6
REMARK VINA RESULT:     -10.7      4.539     11.441
REMARK  Name = 446399
REMARK  4 active torsions:
REMARK  status: ('A' for Active; 'I' for Inactive)
REMARK    1  A    between atoms: N_3  and  S_21
REMARK    2  A    between atoms: C_4  and  C_10
REMARK    3  A    between atoms: N_9  and  C_16
REMARK    4  A    between atoms: S_21  and  C_25
REMARK                            x       y       z     vdW  Elec       q    Type
REMARK                         _______ _______ _______ _____ _____    ______ ____
ROOT
ATOM      1  O   UNL     1      33.819 -15.450 -25.158  0.00  0.00    -0.275 OA
ATOM      2  N   UNL     1      33.858 -14.174 -23.218  0.00  0.00    -0.277 N 
ATOM      3  N   UNL     1      32.444 -12.247 -21.674  0.00  0.00    -0.152 NA
ATOM      4  C   UNL     1      34.102 -15.326 -23.964  0.00  0.00    +0.225 C 
ATOM      5  C   UNL     1      34.181 -13.994 -21.798  0.00  0.00    +0.113 C 
ATOM      6  C   UNL     1      33.292 -12.990 -23.865  0.00  0.00    +0.113 C 
ATOM      7  C   UNL     1      32.965 -13.488 -21.027  0.00  0.00    +0.117 C 
ATOM      8  C   UNL     1      32.073 -12.484 -23.103  0.00  0.00    +0.117 C 
ENDROOT
BRANCH   4  10
ATOM      9  N   UNL     1      34.573 -18.819 -21.560  0.00  0.00    -0.307 N 
ATOM     10  C   UNL     1      34.752 -16.476 -23.236  0.00  0.00    +0.080 C 
ATOM     11  C   UNL     1      34.196 -17.794 -23.768  0.00  0.00    +0.031 C 
ATOM     12  C   UNL     1      34.488 -16.364 -21.736  0.00  0.00    +0.031 C 
ATOM     13  C   UNL     1      34.765 -18.990 -23.005  0.00  0.00    +0.091 C 
ATOM     14  C   UNL     1      35.063 -17.560 -20.981  0.00  0.00    +0.091 C 
BRANCH   9  16
ATOM     15  N   UNL     1      34.521 -22.218 -19.057  0.00  0.00    -0.242 NA
ATOM     16  C   UNL     1      34.556 -19.946 -20.729  0.00  0.00    +0.051 C 
ATOM     17  C   UNL     1      35.749 -20.523 -20.267  0.00  0.00    +0.035 C 
ATOM     18  C   UNL     1      33.344 -20.536 -20.335  0.00  0.00    +0.035 C 
ATOM     19  C   UNL     1      35.678 -21.638 -19.447  0.00  0.00    +0.100 C 
ATOM     20  C   UNL     1      33.381 -21.650 -19.512  0.00  0.00    +0.100 C 
ENDBRANCH   9  16
ENDBRANCH   4  10
BRANCH   3  21
ATOM     21  S   UNL     1      31.298 -11.366 -20.756  0.00  0.00    +0.063 S 
ATOM     22  O   UNL     1      31.616 -11.497 -19.352  0.00  0.00    -0.153 OA
ATOM     23  O   UNL     1      29.972 -11.665 -21.252  0.00  0.00    -0.153 OA
BRANCH  21  25
ATOM     24 CL   UNL     1      32.696  -3.755 -24.192  0.00  0.00    -0.082 Cl
ATOM     25  C   UNL     1      31.706  -9.721 -21.252  0.00  0.00    +0.122 C 
ATOM     26  C   UNL     1      31.335  -9.282 -22.512  0.00  0.00    +0.020 C 
ATOM     27  C   UNL     1      32.387  -8.900 -20.373  0.00  0.00    +0.020 C 
ATOM     28  C   UNL     1      31.652  -7.976 -22.922  0.00  0.00    +0.001 C 
ATOM     29  C   UNL     1      32.349  -7.123 -22.034  0.00  0.00    +0.001 C 
ATOM     30  C   UNL     1      32.709  -7.600 -20.764  0.00  0.00    +0.001 C 
ATOM     31  C   UNL     1      31.292  -7.499 -24.193  0.00  0.00    +0.001 C 
ATOM     32  C   UNL     1      32.665  -5.816 -22.443  0.00  0.00    +0.011 C 
ATOM     33  C   UNL     1      31.615  -6.199 -24.583  0.00  0.00    +0.011 C 
ATOM     34  C   UNL     1      32.301  -5.359 -23.709  0.00  0.00    +0.058 C 
ENDBRANCH  21  25
ENDBRANCH   3  21
TORSDOF 4
ENDMDL
MODEL 7
REMARK VINA RESULT:     -10.5      2.078      2.542
REMARK  Name = 446399
REMARK  4 active torsions:
REMARK  status: ('A' for Active; 'I' for Inactive)
REMARK    1  A    between atoms: N_3  and  S_21
REMARK    2  A    between atoms: C_4  and  C_10
REMARK    3  A    between atoms: N_9  and  C_16
REMARK    4  A    between atoms: S_21  and  C_25
REMARK                            x       y       z     vdW  Elec       q    Type
REMARK                         _______ _______ _______ _____ _____    ______ ____
ROOT
ATOM      1  O   UNL     1      32.754 -15.728 -27.866  0.00  0.00    -0.275 OA
ATOM      2  N   UNL     1      33.023 -16.241 -25.616  0.00  0.00    -0.277 N 
ATOM      3  N   UNL     1      34.510 -17.786 -23.746  0.00  0.00    -0.152 NA
ATOM      4  C   UNL     1      32.755 -15.382 -26.681  0.00  0.00    +0.225 C 
ATOM      5  C   UNL     1      33.033 -15.862 -24.198  0.00  0.00    +0.113 C 
ATOM      6  C   UNL     1      33.259 -17.664 -25.865  0.00  0.00    +0.113 C 
ATOM      7  C   UNL     1      34.325 -16.320 -23.526  0.00  0.00    +0.117 C 
ATOM      8  C   UNL     1      34.551 -18.125 -25.201  0.00  0.00    +0.117 C 
ENDROOT
BRANCH   4  10
ATOM      9  N   UNL     1      33.173 -11.152 -26.323  0.00  0.00    -0.307 N 
ATOM     10  C   UNL     1      32.453 -13.947 -26.331  0.00  0.00    +0.080 C 
ATOM     11  C   UNL     1      32.409 -13.110 -27.607  0.00  0.00    +0.031 C 
ATOM     12  C   UNL     1      33.520 -13.402 -25.384  0.00  0.00    +0.031 C 
ATOM     13  C   UNL     1      32.187 -11.630 -27.299  0.00  0.00    +0.091 C 
ATOM     14  C   UNL     1      33.288 -11.924 -25.078  0.00  0.00    +0.091 C 
BRANCH   9  16
ATOM     15  N   UNL     1      34.088  -7.035 -26.144  0.00  0.00    -0.242 NA
ATOM     16  C   UNL     1      33.476  -9.786 -26.264  0.00  0.00    +0.051 C 
ATOM     17  C   UNL     1      34.807  -9.340 -26.260  0.00  0.00    +0.035 C 
ATOM     18  C   UNL     1      32.459  -8.821 -26.206  0.00  0.00    +0.035 C 
ATOM     19  C   UNL     1      35.055  -7.978 -26.200  0.00  0.00    +0.100 C 
ATOM     20  C   UNL     1      32.812  -7.482 -26.149  0.00  0.00    +0.100 C 
ENDBRANCH   9  16
ENDBRANCH   4  10
BRANCH   3  21
ATOM     21  S   UNL     1      35.722 -18.524 -22.787  0.00  0.00    +0.063 S 
ATOM     22  O   UNL     1      36.399 -17.505 -22.015  0.00  0.00    -0.153 OA
ATOM     23  O   UNL     1      36.465 -19.456 -23.608  0.00  0.00    -0.153 OA
BRANCH  21  25
ATOM     24 CL   UNL     1      31.934 -23.417 -17.008  0.00  0.00    -0.082 Cl
ATOM     25  C   UNL     1      34.713 -19.459 -21.681  0.00  0.00    +0.122 C 
ATOM     26  C   UNL     1      35.316 -20.271 -20.736  0.00  0.00    +0.020 C 
ATOM     27  C   UNL     1      33.337 -19.362 -21.778  0.00  0.00    +0.020 C 
ATOM     28  C   UNL     1      34.526 -21.021 -19.848  0.00  0.00    +0.001 C 
ATOM     29  C   UNL     1      33.116 -20.934 -19.934  0.00  0.00    +0.001 C 
ATOM     30  C   UNL     1      32.537 -20.100 -20.904  0.00  0.00    +0.001 C 
ATOM     31  C   UNL     1      35.105 -21.855 -18.878  0.00  0.00    +0.001 C 
ATOM     32  C   UNL     1      32.326 -21.683 -19.046  0.00  0.00    +0.011 C 
ATOM     33  C   UNL     1      34.305 -22.593 -18.004  0.00  0.00    +0.011 C 
ATOM     34  C   UNL     1      32.919 -22.507 -18.088  0.00  0.00    +0.058 C 
ENDBRANCH  21  25
ENDBRANCH   3  21
TORSDOF 4
ENDMDL
MODEL 8
REMARK VINA RESULT:     -10.3      2.089      3.174
REMARK  Name = 446399
REMARK  4 active torsions:
REMARK  status: ('A' for Active; 'I' for Inactive)
REMARK    1  A    between atoms: N_3  and  S_21
REMARK    2  A    between atoms: C_4  and  C_10
REMARK    3  A    between atoms: N_9  and  C_16
REMARK    4  A    between atoms: S_21  and  C_25
REMARK                            x       y       z     vdW  Elec       q    Type
REMARK                         _______ _______ _______ _____ _____    ______ ____
ROOT
ATOM      1  O   UNL     1      32.312 -12.181 -20.710  0.00  0.00    -0.275 OA
ATOM      2  N   UNL     1      33.259 -13.053 -22.644  0.00  0.00    -0.277 N 
ATOM      3  N   UNL     1      33.959 -15.445 -24.016  0.00  0.00    -0.152 NA
ATOM      4  C   UNL     1      32.493 -12.132 -21.930  0.00  0.00    +0.225 C 
ATOM      5  C   UNL     1      33.494 -13.024 -24.092  0.00  0.00    +0.113 C 
ATOM      6  C   UNL     1      33.965 -14.122 -21.937  0.00  0.00    +0.113 C 
ATOM      7  C   UNL     1      33.180 -14.380 -24.717  0.00  0.00    +0.117 C 
ATOM      8  C   UNL     1      33.651 -15.481 -22.554  0.00  0.00    +0.117 C 
ENDROOT
BRANCH   4  10
ATOM      9  N   UNL     1      31.520  -8.214 -23.306  0.00  0.00    -0.307 N 
ATOM     10  C   UNL     1      31.858 -11.021 -22.726  0.00  0.00    +0.080 C 
ATOM     11  C   UNL     1      32.945 -10.218 -23.436  0.00  0.00    +0.031 C 
ATOM     12  C   UNL     1      31.052 -10.109 -21.804  0.00  0.00    +0.031 C 
ATOM     13  C   UNL     1      32.358  -9.028 -24.193  0.00  0.00    +0.091 C 
ATOM     14  C   UNL     1      30.465  -8.925 -22.569  0.00  0.00    +0.091 C 
BRANCH   9  16
ATOM     15  N   UNL     1      30.831  -4.156 -24.246  0.00  0.00    -0.242 NA
ATOM     16  C   UNL     1      31.292  -6.868 -23.617  0.00  0.00    +0.051 C 
ATOM     17  C   UNL     1      30.444  -6.076 -22.828  0.00  0.00    +0.035 C 
ATOM     18  C   UNL     1      31.904  -6.269 -24.730  0.00  0.00    +0.035 C 
ATOM     19  C   UNL     1      30.251  -4.749 -23.179  0.00  0.00    +0.100 C 
ATOM     20  C   UNL     1      31.645  -4.934 -24.995  0.00  0.00    +0.100 C 
ENDBRANCH   9  16
ENDBRANCH   4  10
BRANCH   3  21
ATOM     21  S   UNL     1      33.985 -16.970 -24.796  0.00  0.00    +0.063 S 
ATOM     22  O   UNL     1      35.033 -16.972 -25.793  0.00  0.00    -0.153 OA
ATOM     23  O   UNL     1      32.629 -17.345 -25.136  0.00  0.00    -0.153 OA
BRANCH  21  25
ATOM     24 CL   UNL     1      35.324 -22.161 -18.242  0.00  0.00    -0.082 Cl
ATOM     25  C   UNL     1      34.511 -17.991 -23.456  0.00  0.00    +0.122 C 
ATOM     26  C   UNL     1      33.569 -18.718 -22.747  0.00  0.00    +0.020 C 
ATOM     27  C   UNL     1      35.855 -18.049 -23.138  0.00  0.00    +0.020 C 
ATOM     28  C   UNL     1      33.972 -19.536 -21.678  0.00  0.00    +0.001 C 
ATOM     29  C   UNL     1      35.344 -19.606 -21.340  0.00  0.00    +0.001 C 
ATOM     30  C   UNL     1      36.273 -18.857 -22.079  0.00  0.00    +0.001 C 
ATOM     31  C   UNL     1      33.042 -20.286 -20.940  0.00  0.00    +0.001 C 
ATOM     32  C   UNL     1      35.747 -20.425 -20.271  0.00  0.00    +0.011 C 
ATOM     33  C   UNL     1      33.461 -21.093 -19.881  0.00  0.00    +0.011 C 
ATOM     34  C   UNL     1      34.810 -21.162 -19.547  0.00  0.00    +0.058 C 
ENDBRANCH  21  25
ENDBRANCH   3  21
TORSDOF 4
ENDMDL
MODEL 9
REMARK VINA RESULT:     -10.1      4.008      9.904
REMARK  Name = 446399
REMARK  4 active torsions:
REMARK  status: ('A' for Active; 'I' for Inactive)
REMARK    1  A    between atoms: N_3  and  S_21
REMARK    2  A    between atoms: C_4  and  C_10
REMARK    3  A    between atoms: N_9  and  C_16
REMARK    4  A    between atoms: S_21  and  C_25
REMARK                            x       y       z     vdW  Elec       q    Type
REMARK                         _______ _______ _______ _____ _____    ______ ____
ROOT
ATOM      1  O   UNL     1      31.869 -14.740 -26.947  0.00  0.00    -0.275 OA
ATOM      2  N   UNL     1      33.212 -12.859 -26.717  0.00  0.00    -0.277 N 
ATOM      3  N   UNL     1      33.219 -10.026 -26.447  0.00  0.00    -0.152 NA
ATOM      4  C   UNL     1      32.875 -14.192 -26.489  0.00  0.00    +0.225 C 
ATOM      5  C   UNL     1      34.399 -12.177 -26.188  0.00  0.00    +0.113 C 
ATOM      6  C   UNL     1      32.386 -12.036 -27.602  0.00  0.00    +0.113 C 
ATOM      7  C   UNL     1      34.010 -10.870 -25.502  0.00  0.00    +0.117 C 
ATOM      8  C   UNL     1      31.989 -10.732 -26.920  0.00  0.00    +0.117 C 
ENDROOT
BRANCH   4  10
ATOM      9  N   UNL     1      34.300 -17.021 -23.632  0.00  0.00    -0.307 N 
ATOM     10  C   UNL     1      33.819 -14.987 -25.622  0.00  0.00    +0.080 C 
ATOM     11  C   UNL     1      33.684 -16.471 -25.952  0.00  0.00    +0.031 C 
ATOM     12  C   UNL     1      33.503 -14.748 -24.148  0.00  0.00    +0.031 C 
ATOM     13  C   UNL     1      34.563 -17.329 -25.042  0.00  0.00    +0.091 C 
ATOM     14  C   UNL     1      34.388 -15.606 -23.245  0.00  0.00    +0.091 C 
BRANCH   9  16
ATOM     15  N   UNL     1      35.197 -19.901 -20.679  0.00  0.00    -0.242 NA
ATOM     16  C   UNL     1      34.597 -17.976 -22.652  0.00  0.00    +0.051 C 
ATOM     17  C   UNL     1      35.830 -17.966 -21.982  0.00  0.00    +0.035 C 
ATOM     18  C   UNL     1      33.671 -18.974 -22.311  0.00  0.00    +0.035 C 
ATOM     19  C   UNL     1      36.076 -18.934 -21.020  0.00  0.00    +0.100 C 
ATOM     20  C   UNL     1      34.014 -19.896 -21.334  0.00  0.00    +0.100 C 
ENDBRANCH   9  16
ENDBRANCH   4  10
BRANCH   3  21
ATOM     21  S   UNL     1      32.989  -8.400 -25.962  0.00  0.00    +0.063 S 
ATOM     22  O   UNL     1      31.737  -7.918 -26.503  0.00  0.00    -0.153 OA
ATOM     23  O   UNL     1      34.221  -7.670 -26.169  0.00  0.00    -0.153 OA
BRANCH  21  25
ATOM     24 CL   UNL     1      31.392 -10.524 -17.923  0.00  0.00    -0.082 Cl
ATOM     25  C   UNL     1      32.776  -8.625 -24.224  0.00  0.00    +0.122 C 
ATOM     26  C   UNL     1      32.112  -9.750 -23.763  0.00  0.00    +0.020 C 
ATOM     27  C   UNL     1      33.276  -7.675 -23.353  0.00  0.00    +0.020 C 
ATOM     28  C   UNL     1      31.934  -9.944 -22.383  0.00  0.00    +0.001 C 
ATOM     29  C   UNL     1      32.441  -8.981 -21.478  0.00  0.00    +0.001 C 
ATOM     30  C   UNL     1      33.109  -7.853 -21.979  0.00  0.00    +0.001 C 
ATOM     31  C   UNL     1      31.266 -11.073 -21.882  0.00  0.00    +0.001 C 
ATOM     32  C   UNL     1      32.264  -9.175 -20.098  0.00  0.00    +0.011 C 
ATOM     33  C   UNL     1      31.099 -11.250 -20.508  0.00  0.00    +0.011 C 
ATOM     34  C   UNL     1      31.597 -10.302 -19.618  0.00  0.00    +0.058 C 
ENDBRANCH  21  25
ENDBRANCH   3  21
TORSDOF 4
ENDMDL
