MODEL 1
REMARK VINA RESULT:     -12.5      0.000      0.000
REMARK  Name = 12087505
REMARK  3 active torsions:
REMARK  status: ('A' for Active; 'I' for Inactive)
REMARK    1  A    between atoms: C_1  and  S_18
REMARK    2  A    between atoms: C_4  and  N_9
REMARK    3  A    between atoms: S_18  and  N_21
REMARK                            x       y       z     vdW  Elec       q    Type
REMARK                         _______ _______ _______ _____ _____    ______ ____
ROOT
ATOM      1  C   UNL     1      34.692 -21.144 -19.836  0.00  0.00    +0.123 C 
ATOM      2  C   UNL     1      34.233 -20.030 -20.520  0.00  0.00    +0.035 C 
ATOM      3  C   UNL     1      36.046 -21.379 -19.667  0.00  0.00    +0.020 C 
ATOM      4  C   UNL     1      35.155 -19.125 -21.048  0.00  0.00    +0.053 C 
ATOM      5  C   UNL     1      36.968 -20.474 -20.194  0.00  0.00    +0.003 C 
ATOM      6  C   UNL     1      36.521 -19.347 -20.884  0.00  0.00    +0.015 C 
ENDROOT
BRANCH   4   9
ATOM      7  S   UNL     1      33.190 -14.386 -24.627  0.00  0.00    -0.051 S 
ATOM      8  O   UNL     1      34.638 -18.731 -23.960  0.00  0.00    -0.252 OA
ATOM      9  N   UNL     1      34.709 -17.998 -21.738  0.00  0.00    -0.268 N 
ATOM     10  N   UNL     1      34.030 -16.540 -23.393  0.00  0.00    -0.248 N 
ATOM     11  N   UNL     1      33.736 -16.633 -25.782  0.00  0.00    -0.222 NA
ATOM     12  C   UNL     1      34.473 -17.845 -23.127  0.00  0.00    +0.310 C 
ATOM     13  C   UNL     1      33.697 -16.013 -24.643  0.00  0.00    +0.167 C 
ATOM     14  C   UNL     1      32.990 -14.483 -26.328  0.00  0.00    +0.059 C 
ATOM     15  C   UNL     1      33.327 -15.749 -26.761  0.00  0.00    +0.108 C 
ATOM     16  H   UNL     1      34.536 -17.201 -21.186  0.00  0.00    +0.156 HD
ATOM     17  H   UNL     1      33.945 -15.935 -22.620  0.00  0.00    +0.158 HD
ENDBRANCH   4   9
BRANCH   1  18
ATOM     18  S   UNL     1      33.526 -22.290 -19.170  0.00  0.00    +0.063 S 
ATOM     19  O   UNL     1      32.248 -21.618 -19.075  0.00  0.00    -0.153 OA
ATOM     20  O   UNL     1      33.662 -23.536 -19.894  0.00  0.00    -0.153 OA
BRANCH  18  21
ATOM     21  N   UNL     1      34.170 -22.488 -17.596  0.00  0.00    -0.152 NA
ATOM     22  N   UNL     1      35.433 -23.351 -15.207  0.00  0.00    -0.290 N 
ATOM     23  C   UNL     1      33.565 -23.586 -16.790  0.00  0.00    +0.117 C 
ATOM     24  C   UNL     1      35.657 -22.522 -17.512  0.00  0.00    +0.117 C 
ATOM     25  C   UNL     1      33.971 -23.427 -15.328  0.00  0.00    +0.111 C 
ATOM     26  C   UNL     1      36.093 -22.354 -16.059  0.00  0.00    +0.111 C 
ATOM     27  N   UNL     1      35.304 -23.501 -12.819  0.00  0.00    -0.229 NA
ATOM     28  C   UNL     1      36.005 -23.699 -13.978  0.00  0.00    +0.132 C 
ATOM     29  C   UNL     1      37.294 -24.246 -13.972  0.00  0.00    +0.034 C 
ATOM     30  C   UNL     1      37.876 -24.596 -12.758  0.00  0.00    +0.004 C 
ATOM     31  C   UNL     1      35.902 -23.855 -11.659  0.00  0.00    +0.100 C 
ATOM     32  C   UNL     1      37.173 -24.401 -11.575  0.00  0.00    +0.021 C 
ENDBRANCH  18  21
ENDBRANCH   1  18
TORSDOF 3
ENDMDL
MODEL 2
REMARK VINA RESULT:     -12.4      2.659     11.069
REMARK  Name = 12087505
REMARK  3 active torsions:
REMARK  status: ('A' for Active; 'I' for Inactive)
REMARK    1  A    between atoms: C_1  and  S_18
REMARK    2  A    between atoms: C_4  and  N_9
REMARK    3  A    between atoms: S_18  and  N_21
REMARK                            x       y       z     vdW  Elec       q    Type
REMARK                         _______ _______ _______ _____ _____    ______ ____
ROOT
ATOM      1  C   UNL     1      34.422 -19.563 -21.938  0.00  0.00    +0.123 C 
ATOM      2  C   UNL     1      35.140 -20.097 -20.881  0.00  0.00    +0.035 C 
ATOM      3  C   UNL     1      33.039 -19.626 -21.976  0.00  0.00    +0.020 C 
ATOM      4  C   UNL     1      34.455 -20.710 -19.831  0.00  0.00    +0.053 C 
ATOM      5  C   UNL     1      32.353 -20.238 -20.926  0.00  0.00    +0.003 C 
ATOM      6  C   UNL     1      33.063 -20.780 -19.854  0.00  0.00    +0.015 C 
ENDROOT
BRANCH   4   9
ATOM      7  S   UNL     1      37.193 -23.511 -14.953  0.00  0.00    -0.051 S 
ATOM      8  O   UNL     1      33.759 -22.967 -18.009  0.00  0.00    -0.252 OA
ATOM      9  N   UNL     1      35.164 -21.252 -18.758  0.00  0.00    -0.268 N 
ATOM     10  N   UNL     1      35.810 -22.542 -16.958  0.00  0.00    -0.248 N 
ATOM     11  N   UNL     1      34.886 -24.391 -15.720  0.00  0.00    -0.222 NA
ATOM     12  C   UNL     1      34.802 -22.328 -17.910  0.00  0.00    +0.310 C 
ATOM     13  C   UNL     1      35.813 -23.512 -15.953  0.00  0.00    +0.167 C 
ATOM     14  C   UNL     1      36.510 -24.827 -14.092  0.00  0.00    +0.059 C 
ATOM     15  C   UNL     1      35.287 -25.155 -14.641  0.00  0.00    +0.108 C 
ATOM     16  H   UNL     1      36.031 -20.828 -18.563  0.00  0.00    +0.156 HD
ATOM     17  H   UNL     1      36.593 -21.947 -17.002  0.00  0.00    +0.158 HD
ENDBRANCH   4   9
BRANCH   1  18
ATOM     18  S   UNL     1      35.288 -18.789 -23.268  0.00  0.00    +0.063 S 
ATOM     19  O   UNL     1      36.669 -18.631 -22.865  0.00  0.00    -0.153 OA
ATOM     20  O   UNL     1      34.941 -19.482 -24.490  0.00  0.00    -0.153 OA
BRANCH  18  21
ATOM     21  N   UNL     1      34.528 -17.254 -23.264  0.00  0.00    -0.152 NA
ATOM     22  N   UNL     1      33.823 -14.511 -23.413  0.00  0.00    -0.290 N 
ATOM     23  C   UNL     1      35.005 -16.306 -22.217  0.00  0.00    +0.117 C 
ATOM     24  C   UNL     1      34.434 -16.582 -24.590  0.00  0.00    +0.117 C 
ATOM     25  C   UNL     1      34.027 -15.141 -22.102  0.00  0.00    +0.111 C 
ATOM     26  C   UNL     1      33.452 -15.417 -24.506  0.00  0.00    +0.111 C 
ATOM     27  N   UNL     1      32.601 -12.703 -22.422  0.00  0.00    -0.229 NA
ATOM     28  C   UNL     1      33.385 -13.182 -23.436  0.00  0.00    +0.132 C 
ATOM     29  C   UNL     1      33.768 -12.371 -24.513  0.00  0.00    +0.034 C 
ATOM     30  C   UNL     1      33.340 -11.049 -24.550  0.00  0.00    +0.004 C 
ATOM     31  C   UNL     1      32.206 -11.413 -22.492  0.00  0.00    +0.100 C 
ATOM     32  C   UNL     1      32.544 -10.552 -23.524  0.00  0.00    +0.021 C 
ENDBRANCH  18  21
ENDBRANCH   1  18
TORSDOF 3
ENDMDL
MODEL 3
REMARK VINA RESULT:     -12.1      2.927     11.464
REMARK  Name = 12087505
REMARK  3 active torsions:
REMARK  status: ('A' for Active; 'I' for Inactive)
REMARK    1  A    between atoms: C_1  and  S_18
REMARK    2  A    between atoms: C_4  and  N_9
REMARK    3  A    between atoms: S_18  and  N_21
REMARK                            x       y       z     vdW  Elec       q    Type
REMARK                         _______ _______ _______ _____ _____    ______ ____
ROOT
ATOM      1  C   UNL     1      34.007 -18.427 -23.958  0.00  0.00    +0.123 C 
ATOM      2  C   UNL     1      33.303 -19.116 -22.985  0.00  0.00    +0.035 C 
ATOM      3  C   UNL     1      35.329 -18.063 -23.771  0.00  0.00    +0.020 C 
ATOM      4  C   UNL     1      33.940 -19.451 -21.790  0.00  0.00    +0.053 C 
ATOM      5  C   UNL     1      35.968 -18.398 -22.576  0.00  0.00    +0.003 C 
ATOM      6  C   UNL     1      35.272 -19.093 -21.586  0.00  0.00    +0.015 C 
ENDROOT
BRANCH   4   9
ATOM      7  S   UNL     1      31.333 -22.787 -17.184  0.00  0.00    -0.051 S 
ATOM      8  O   UNL     1      34.937 -21.329 -19.697  0.00  0.00    -0.252 OA
ATOM      9  N   UNL     1      33.245 -20.145 -20.799  0.00  0.00    -0.268 N 
ATOM     10  N   UNL     1      32.700 -21.511 -19.021  0.00  0.00    -0.248 N 
ATOM     11  N   UNL     1      33.894 -22.952 -17.503  0.00  0.00    -0.222 NA
ATOM     12  C   UNL     1      33.752 -21.033 -19.818  0.00  0.00    +0.310 C 
ATOM     13  C   UNL     1      32.806 -22.404 -17.952  0.00  0.00    +0.167 C 
ATOM     14  C   UNL     1      32.210 -23.805 -16.119  0.00  0.00    +0.059 C 
ATOM     15  C   UNL     1      33.552 -23.765 -16.440  0.00  0.00    +0.108 C 
ATOM     16  H   UNL     1      32.271 -20.000 -20.780  0.00  0.00    +0.156 HD
ATOM     17  H   UNL     1      31.798 -21.184 -19.237  0.00  0.00    +0.158 HD
ENDBRANCH   4   9
BRANCH   1  18
ATOM     18  S   UNL     1      33.199 -18.001 -25.470  0.00  0.00    +0.063 S 
ATOM     19  O   UNL     1      34.123 -18.260 -26.554  0.00  0.00    -0.153 OA
ATOM     20  O   UNL     1      31.881 -18.597 -25.454  0.00  0.00    -0.153 OA
BRANCH  18  21
ATOM     21  N   UNL     1      33.048 -16.308 -25.258  0.00  0.00    -0.152 NA
ATOM     22  N   UNL     1      33.383 -13.498 -25.080  0.00  0.00    -0.290 N 
ATOM     23  C   UNL     1      33.866 -15.726 -24.157  0.00  0.00    +0.117 C 
ATOM     24  C   UNL     1      33.167 -15.494 -26.500  0.00  0.00    +0.117 C 
ATOM     25  C   UNL     1      33.381 -14.311 -23.857  0.00  0.00    +0.111 C 
ATOM     26  C   UNL     1      32.677 -14.074 -26.231  0.00  0.00    +0.111 C 
ATOM     27  N   UNL     1      32.929 -11.505 -23.829  0.00  0.00    -0.229 NA
ATOM     28  C   UNL     1      33.457 -12.107 -24.939  0.00  0.00    +0.132 C 
ATOM     29  C   UNL     1      34.076 -11.364 -25.952  0.00  0.00    +0.034 C 
ATOM     30  C   UNL     1      34.156  -9.982 -25.826  0.00  0.00    +0.004 C 
ATOM     31  C   UNL     1      33.027 -10.160 -23.741  0.00  0.00    +0.100 C 
ATOM     32  C   UNL     1      33.625  -9.360 -24.702  0.00  0.00    +0.021 C 
ENDBRANCH  18  21
ENDBRANCH   1  18
TORSDOF 3
ENDMDL
MODEL 4
REMARK VINA RESULT:     -11.5      6.211      9.991
REMARK  Name = 12087505
REMARK  3 active torsions:
REMARK  status: ('A' for Active; 'I' for Inactive)
REMARK    1  A    between atoms: C_1  and  S_18
REMARK    2  A    between atoms: C_4  and  N_9
REMARK    3  A    between atoms: S_18  and  N_21
REMARK                            x       y       z     vdW  Elec       q    Type
REMARK                         _______ _______ _______ _____ _____    ______ ____
ROOT
ATOM      1  C   UNL     1      33.038 -13.719 -26.796  0.00  0.00    +0.123 C 
ATOM      2  C   UNL     1      32.742 -13.160 -25.563  0.00  0.00    +0.035 C 
ATOM      3  C   UNL     1      33.816 -13.047 -27.723  0.00  0.00    +0.020 C 
ATOM      4  C   UNL     1      33.239 -11.895 -25.250  0.00  0.00    +0.053 C 
ATOM      5  C   UNL     1      34.314 -11.782 -27.411  0.00  0.00    +0.003 C 
ATOM      6  C   UNL     1      34.025 -11.207 -26.173  0.00  0.00    +0.015 C 
ENDROOT
BRANCH   4   9
ATOM      7  S   UNL     1      31.824  -8.824 -19.986  0.00  0.00    -0.051 S 
ATOM      8  O   UNL     1      32.334  -9.133 -24.577  0.00  0.00    -0.252 OA
ATOM      9  N   UNL     1      32.950 -11.319 -24.012  0.00  0.00    -0.268 N 
ATOM     10  N   UNL     1      32.349  -9.843 -22.343  0.00  0.00    -0.248 N 
ATOM     11  N   UNL     1      31.637  -7.545 -22.225  0.00  0.00    -0.222 NA
ATOM     12  C   UNL     1      32.521  -9.999 -23.727  0.00  0.00    +0.310 C 
ATOM     13  C   UNL     1      31.936  -8.685 -21.681  0.00  0.00    +0.167 C 
ATOM     14  C   UNL     1      31.319  -7.186 -19.934  0.00  0.00    +0.059 C 
ATOM     15  C   UNL     1      31.279  -6.674 -21.215  0.00  0.00    +0.108 C 
ATOM     16  H   UNL     1      33.061 -11.909 -23.231  0.00  0.00    +0.156 HD
ATOM     17  H   UNL     1      32.538 -10.630 -21.783  0.00  0.00    +0.158 HD
ENDBRANCH   4   9
BRANCH   1  18
ATOM     18  S   UNL     1      32.406 -15.319 -27.194  0.00  0.00    +0.063 S 
ATOM     19  O   UNL     1      30.990 -15.322 -26.900  0.00  0.00    -0.153 OA
ATOM     20  O   UNL     1      32.897 -15.678 -28.507  0.00  0.00    -0.153 OA
BRANCH  18  21
ATOM     21  N   UNL     1      33.222 -16.261 -26.018  0.00  0.00    -0.152 NA
ATOM     22  N   UNL     1      34.069 -17.722 -23.740  0.00  0.00    -0.290 N 
ATOM     23  C   UNL     1      33.599 -15.539 -24.770  0.00  0.00    +0.117 C 
ATOM     24  C   UNL     1      32.599 -17.577 -25.707  0.00  0.00    +0.117 C 
ATOM     25  C   UNL     1      34.602 -16.375 -23.981  0.00  0.00    +0.111 C 
ATOM     26  C   UNL     1      33.587 -18.440 -24.927  0.00  0.00    +0.111 C 
ATOM     27  N   UNL     1      35.876 -18.236 -22.252  0.00  0.00    -0.229 NA
ATOM     28  C   UNL     1      34.585 -18.443 -22.657  0.00  0.00    +0.132 C 
ATOM     29  C   UNL     1      33.753 -19.368 -22.013  0.00  0.00    +0.034 C 
ATOM     30  C   UNL     1      34.252 -20.092 -20.936  0.00  0.00    +0.004 C 
ATOM     31  C   UNL     1      36.325 -18.958 -21.201  0.00  0.00    +0.100 C 
ATOM     32  C   UNL     1      35.561 -19.889 -20.515  0.00  0.00    +0.021 C 
ENDBRANCH  18  21
ENDBRANCH   1  18
TORSDOF 3
ENDMDL
MODEL 5
REMARK VINA RESULT:     -11.4      7.046     11.561
REMARK  Name = 12087505
REMARK  3 active torsions:
REMARK  status: ('A' for Active; 'I' for Inactive)
REMARK    1  A    between atoms: C_1  and  S_18
REMARK    2  A    between atoms: C_4  and  N_9
REMARK    3  A    between atoms: S_18  and  N_21
REMARK                            x       y       z     vdW  Elec       q    Type
REMARK                         _______ _______ _______ _____ _____    ______ ____
ROOT
ATOM      1  C   UNL     1      33.722 -11.339 -25.937  0.00  0.00    +0.123 C 
ATOM      2  C   UNL     1      32.929 -10.502 -25.169  0.00  0.00    +0.035 C 
ATOM      3  C   UNL     1      35.072 -11.092 -26.113  0.00  0.00    +0.020 C 
ATOM      4  C   UNL     1      33.504  -9.387 -24.559  0.00  0.00    +0.053 C 
ATOM      5  C   UNL     1      35.649  -9.978 -25.503  0.00  0.00    +0.003 C 
ATOM      6  C   UNL     1      34.864  -9.126 -24.725  0.00  0.00    +0.015 C 
ENDROOT
BRANCH   4   9
ATOM      7  S   UNL     1      30.078  -5.159 -21.474  0.00  0.00    -0.051 S 
ATOM      8  O   UNL     1      32.715  -6.547 -25.016  0.00  0.00    -0.252 OA
ATOM      9  N   UNL     1      32.720  -8.535 -23.782  0.00  0.00    -0.268 N 
ATOM     10  N   UNL     1      31.559  -6.707 -22.983  0.00  0.00    -0.248 N 
ATOM     11  N   UNL     1      31.152  -4.449 -23.716  0.00  0.00    -0.222 NA
ATOM     12  C   UNL     1      32.363  -7.186 -24.029  0.00  0.00    +0.310 C 
ATOM     13  C   UNL     1      31.015  -5.426 -22.873  0.00  0.00    +0.167 C 
ATOM     14  C   UNL     1      29.805  -3.557 -22.022  0.00  0.00    +0.059 C 
ATOM     15  C   UNL     1      30.452  -3.363 -23.225  0.00  0.00    +0.108 C 
ATOM     16  H   UNL     1      32.368  -8.922 -22.947  0.00  0.00    +0.156 HD
ATOM     17  H   UNL     1      31.360  -7.338 -22.254  0.00  0.00    +0.158 HD
ENDBRANCH   4   9
BRANCH   1  18
ATOM     18  S   UNL     1      32.993 -12.749 -26.711  0.00  0.00    +0.063 S 
ATOM     19  O   UNL     1      31.561 -12.668 -26.522  0.00  0.00    -0.153 OA
ATOM     20  O   UNL     1      33.565 -12.876 -28.035  0.00  0.00    -0.153 OA
BRANCH  18  21
ATOM     21  N   UNL     1      33.618 -13.992 -25.713  0.00  0.00    -0.152 NA
ATOM     22  N   UNL     1      34.067 -16.206 -23.997  0.00  0.00    -0.290 N 
ATOM     23  C   UNL     1      33.247 -13.903 -24.272  0.00  0.00    +0.117 C 
ATOM     24  C   UNL     1      33.437 -15.379 -26.226  0.00  0.00    +0.117 C 
ATOM     25  C   UNL     1      34.135 -14.840 -23.459  0.00  0.00    +0.111 C 
ATOM     26  C   UNL     1      34.323 -16.338 -25.437  0.00  0.00    +0.111 C 
ATOM     27  N   UNL     1      35.288 -17.069 -22.125  0.00  0.00    -0.229 NA
ATOM     28  C   UNL     1      34.387 -17.262 -23.137  0.00  0.00    +0.132 C 
ATOM     29  C   UNL     1      33.768 -18.502 -23.342  0.00  0.00    +0.034 C 
ATOM     30  C   UNL     1      34.077 -19.561 -22.496  0.00  0.00    +0.004 C 
ATOM     31  C   UNL     1      35.562 -18.122 -21.322  0.00  0.00    +0.100 C 
ATOM     32  C   UNL     1      34.989 -19.376 -21.464  0.00  0.00    +0.021 C 
ENDBRANCH  18  21
ENDBRANCH   1  18
TORSDOF 3
ENDMDL
MODEL 6
REMARK VINA RESULT:     -11.3      4.755     12.005
REMARK  Name = 12087505
REMARK  3 active torsions:
REMARK  status: ('A' for Active; 'I' for Inactive)
REMARK    1  A    between atoms: C_1  and  S_18
REMARK    2  A    between atoms: C_4  and  N_9
REMARK    3  A    between atoms: S_18  and  N_21
REMARK                            x       y       z     vdW  Elec       q    Type
REMARK                         _______ _______ _______ _____ _____    ______ ____
ROOT
ATOM      1  C   UNL     1      33.019 -14.770 -26.996  0.00  0.00    +0.123 C 
ATOM      2  C   UNL     1      33.824 -15.301 -26.002  0.00  0.00    +0.035 C 
ATOM      3  C   UNL     1      31.987 -15.502 -27.556  0.00  0.00    +0.020 C 
ATOM      4  C   UNL     1      33.590 -16.602 -25.557  0.00  0.00    +0.053 C 
ATOM      5  C   UNL     1      31.751 -16.803 -27.111  0.00  0.00    +0.003 C 
ATOM      6  C   UNL     1      32.553 -17.352 -26.110  0.00  0.00    +0.015 C 
ENDROOT
BRANCH   4   9
ATOM      7  S   UNL     1      36.731 -19.398 -20.925  0.00  0.00    -0.051 S 
ATOM      8  O   UNL     1      32.971 -18.708 -23.536  0.00  0.00    -0.252 OA
ATOM      9  N   UNL     1      34.391 -17.152 -24.556  0.00  0.00    -0.268 N 
ATOM     10  N   UNL     1      35.171 -18.409 -22.784  0.00  0.00    -0.248 N 
ATOM     11  N   UNL     1      34.282 -20.116 -21.336  0.00  0.00    -0.222 NA
ATOM     12  C   UNL     1      34.064 -18.155 -23.609  0.00  0.00    +0.310 C 
ATOM     13  C   UNL     1      35.234 -19.329 -21.736  0.00  0.00    +0.167 C 
ATOM     14  C   UNL     1      36.070 -20.612 -19.910  0.00  0.00    +0.059 C 
ATOM     15  C   UNL     1      34.763 -20.861 -20.277  0.00  0.00    +0.108 C 
ATOM     16  H   UNL     1      35.307 -16.794 -24.499  0.00  0.00    +0.156 HD
ATOM     17  H   UNL     1      35.985 -17.884 -22.963  0.00  0.00    +0.158 HD
ENDBRANCH   4   9
BRANCH   1  18
ATOM     18  S   UNL     1      33.318 -13.124 -27.562  0.00  0.00    +0.063 S 
ATOM     19  O   UNL     1      34.681 -13.061 -28.043  0.00  0.00    -0.153 OA
ATOM     20  O   UNL     1      32.209 -12.735 -28.406  0.00  0.00    -0.153 OA
BRANCH  18  21
ATOM     21  N   UNL     1      33.211 -12.276 -26.077  0.00  0.00    -0.152 NA
ATOM     22  N   UNL     1      32.433 -10.924 -23.709  0.00  0.00    -0.290 N 
ATOM     23  C   UNL     1      32.617 -10.911 -26.161  0.00  0.00    +0.117 C 
ATOM     24  C   UNL     1      32.628 -13.043 -24.941  0.00  0.00    +0.117 C 
ATOM     25  C   UNL     1      32.900 -10.153 -24.868  0.00  0.00    +0.111 C 
ATOM     26  C   UNL     1      32.907 -12.311 -23.631  0.00  0.00    +0.111 C 
ATOM     27  N   UNL     1      32.830  -9.072 -22.241  0.00  0.00    -0.229 NA
ATOM     28  C   UNL     1      32.149 -10.223 -22.531  0.00  0.00    +0.132 C 
ATOM     29  C   UNL     1      31.164 -10.729 -21.674  0.00  0.00    +0.034 C 
ATOM     30  C   UNL     1      30.871 -10.043 -20.499  0.00  0.00    +0.004 C 
ATOM     31  C   UNL     1      32.517  -8.433 -21.091  0.00  0.00    +0.100 C 
ATOM     32  C   UNL     1      31.556  -8.873 -20.195  0.00  0.00    +0.021 C 
ENDBRANCH  18  21
ENDBRANCH   1  18
TORSDOF 3
ENDMDL
MODEL 7
REMARK VINA RESULT:     -11.2      3.801      7.139
REMARK  Name = 12087505
REMARK  3 active torsions:
REMARK  status: ('A' for Active; 'I' for Inactive)
REMARK    1  A    between atoms: C_1  and  S_18
REMARK    2  A    between atoms: C_4  and  N_9
REMARK    3  A    between atoms: S_18  and  N_21
REMARK                            x       y       z     vdW  Elec       q    Type
REMARK                         _______ _______ _______ _____ _____    ______ ____
ROOT
ATOM      1  C   UNL     1      37.000 -24.184 -13.631  0.00  0.00    +0.123 C 
ATOM      2  C   UNL     1      36.768 -23.309 -14.680  0.00  0.00    +0.035 C 
ATOM      3  C   UNL     1      38.081 -25.049 -13.639  0.00  0.00    +0.020 C 
ATOM      4  C   UNL     1      37.643 -23.299 -15.766  0.00  0.00    +0.053 C 
ATOM      5  C   UNL     1      38.957 -25.039 -14.725  0.00  0.00    +0.003 C 
ATOM      6  C   UNL     1      38.738 -24.163 -15.788  0.00  0.00    +0.015 C 
ENDROOT
BRANCH   4   9
ATOM      7  S   UNL     1      36.121 -19.571 -20.554  0.00  0.00    -0.051 S 
ATOM      8  O   UNL     1      35.184 -22.810 -17.383  0.00  0.00    -0.252 OA
ATOM      9  N   UNL     1      37.425 -22.423 -16.830  0.00  0.00    -0.268 N 
ATOM     10  N   UNL     1      36.463 -21.238 -18.561  0.00  0.00    -0.248 N 
ATOM     11  N   UNL     1      34.298 -21.144 -19.613  0.00  0.00    -0.222 NA
ATOM     12  C   UNL     1      36.239 -22.215 -17.578  0.00  0.00    +0.310 C 
ATOM     13  C   UNL     1      35.534 -20.766 -19.490  0.00  0.00    +0.167 C 
ATOM     14  C   UNL     1      34.569 -19.526 -21.282  0.00  0.00    +0.059 C 
ATOM     15  C   UNL     1      33.736 -20.427 -20.651  0.00  0.00    +0.108 C 
ATOM     16  H   UNL     1      38.199 -21.876 -17.097  0.00  0.00    +0.156 HD
ATOM     17  H   UNL     1      37.365 -20.847 -18.598  0.00  0.00    +0.158 HD
ENDBRANCH   4   9
BRANCH   1  18
ATOM     18  S   UNL     1      35.891 -24.199 -12.257  0.00  0.00    +0.063 S 
ATOM     19  O   UNL     1      35.877 -25.540 -11.714  0.00  0.00    -0.153 OA
ATOM     20  O   UNL     1      36.199 -23.058 -11.423  0.00  0.00    -0.153 OA
BRANCH  18  21
ATOM     21  N   UNL     1      34.410 -23.911 -13.068  0.00  0.00    -0.152 NA
ATOM     22  N   UNL     1      31.898 -24.041 -14.380  0.00  0.00    -0.290 N 
ATOM     23  C   UNL     1      34.321 -24.458 -14.452  0.00  0.00    +0.117 C 
ATOM     24  C   UNL     1      33.180 -24.227 -12.289  0.00  0.00    +0.117 C 
ATOM     25  C   UNL     1      33.123 -23.842 -15.167  0.00  0.00    +0.111 C 
ATOM     26  C   UNL     1      31.965 -23.612 -12.977  0.00  0.00    +0.111 C 
ATOM     27  N   UNL     1      30.538 -23.232 -16.179  0.00  0.00    -0.229 NA
ATOM     28  C   UNL     1      30.674 -24.004 -15.058  0.00  0.00    +0.132 C 
ATOM     29  C   UNL     1      29.612 -24.769 -14.559  0.00  0.00    +0.034 C 
ATOM     30  C   UNL     1      28.389 -24.742 -15.222  0.00  0.00    +0.004 C 
ATOM     31  C   UNL     1      29.335 -23.232 -16.797  0.00  0.00    +0.100 C 
ATOM     32  C   UNL     1      28.240 -23.962 -16.363  0.00  0.00    +0.021 C 
ENDBRANCH  18  21
ENDBRANCH   1  18
TORSDOF 3
ENDMDL
MODEL 8
REMARK VINA RESULT:     -11.2      3.159     10.685
REMARK  Name = 12087505
REMARK  3 active torsions:
REMARK  status: ('A' for Active; 'I' for Inactive)
REMARK    1  A    between atoms: C_1  and  S_18
REMARK    2  A    between atoms: C_4  and  N_9
REMARK    3  A    between atoms: S_18  and  N_21
REMARK                            x       y       z     vdW  Elec       q    Type
REMARK                         _______ _______ _______ _____ _____    ______ ____
ROOT
ATOM      1  C   UNL     1      34.547 -19.538 -21.528  0.00  0.00    +0.123 C 
ATOM      2  C   UNL     1      34.728 -20.306 -20.390  0.00  0.00    +0.035 C 
ATOM      3  C   UNL     1      33.301 -19.407 -22.118  0.00  0.00    +0.020 C 
ATOM      4  C   UNL     1      33.633 -20.960 -19.825  0.00  0.00    +0.053 C 
ATOM      5  C   UNL     1      32.205 -20.060 -21.554  0.00  0.00    +0.003 C 
ATOM      6  C   UNL     1      32.372 -20.836 -20.407  0.00  0.00    +0.015 C 
ENDROOT
BRANCH   4   9
ATOM      7  S   UNL     1      33.799 -24.467 -14.648  0.00  0.00    -0.051 S 
ATOM      8  O   UNL     1      31.598 -22.196 -18.028  0.00  0.00    -0.252 OA
ATOM      9  N   UNL     1      33.798 -21.736 -18.678  0.00  0.00    -0.268 N 
ATOM     10  N   UNL     1      33.416 -23.015 -16.796  0.00  0.00    -0.248 N 
ATOM     11  N   UNL     1      31.485 -23.834 -15.611  0.00  0.00    -0.222 NA
ATOM     12  C   UNL     1      32.806 -22.310 -17.845  0.00  0.00    +0.310 C 
ATOM     13  C   UNL     1      32.767 -23.712 -15.774  0.00  0.00    +0.167 C 
ATOM     14  C   UNL     1      32.406 -25.036 -13.826  0.00  0.00    +0.059 C 
ATOM     15  C   UNL     1      31.272 -24.601 -14.482  0.00  0.00    +0.108 C 
ATOM     16  H   UNL     1      34.731 -21.908 -18.411  0.00  0.00    +0.156 HD
ATOM     17  H   UNL     1      34.400 -23.018 -16.778  0.00  0.00    +0.158 HD
ENDBRANCH   4   9
BRANCH   1  18
ATOM     18  S   UNL     1      35.934 -18.713 -22.244  0.00  0.00    +0.063 S 
ATOM     19  O   UNL     1      37.032 -18.797 -21.306  0.00  0.00    -0.153 OA
ATOM     20  O   UNL     1      36.077 -19.181 -23.606  0.00  0.00    -0.153 OA
BRANCH  18  21
ATOM     21  N   UNL     1      35.343 -17.105 -22.267  0.00  0.00    -0.152 NA
ATOM     22  N   UNL     1      33.823 -14.711 -22.207  0.00  0.00    -0.290 N 
ATOM     23  C   UNL     1      34.430 -16.776 -23.398  0.00  0.00    +0.117 C 
ATOM     24  C   UNL     1      34.794 -16.606 -20.975  0.00  0.00    +0.117 C 
ATOM     25  C   UNL     1      34.265 -15.262 -23.495  0.00  0.00    +0.111 C 
ATOM     26  C   UNL     1      34.630 -15.090 -21.040  0.00  0.00    +0.111 C 
ATOM     27  N   UNL     1      33.443 -12.559 -23.190  0.00  0.00    -0.229 NA
ATOM     28  C   UNL     1      33.158 -13.480 -22.219  0.00  0.00    +0.132 C 
ATOM     29  C   UNL     1      32.208 -13.225 -21.222  0.00  0.00    +0.034 C 
ATOM     30  C   UNL     1      31.539 -12.005 -21.220  0.00  0.00    +0.004 C 
ATOM     31  C   UNL     1      32.772 -11.386 -23.156  0.00  0.00    +0.100 C 
ATOM     32  C   UNL     1      31.820 -11.063 -22.202  0.00  0.00    +0.021 C 
ENDBRANCH  18  21
ENDBRANCH   1  18
TORSDOF 3
ENDMDL
MODEL 9
REMARK VINA RESULT:     -10.9      2.549     11.230
REMARK  Name = 12087505
REMARK  3 active torsions:
REMARK  status: ('A' for Active; 'I' for Inactive)
REMARK    1  A    between atoms: C_1  and  S_18
REMARK    2  A    between atoms: C_4  and  N_9
REMARK    3  A    between atoms: S_18  and  N_21
REMARK                            x       y       z     vdW  Elec       q    Type
REMARK                         _______ _______ _______ _____ _____    ______ ____
ROOT
ATOM      1  C   UNL     1      34.700 -19.037 -23.237  0.00  0.00    +0.123 C 
ATOM      2  C   UNL     1      34.201 -19.822 -22.211  0.00  0.00    +0.035 C 
ATOM      3  C   UNL     1      35.970 -18.489 -23.175  0.00  0.00    +0.020 C 
ATOM      4  C   UNL     1      34.996 -20.066 -21.090  0.00  0.00    +0.053 C 
ATOM      5  C   UNL     1      36.766 -18.733 -22.055  0.00  0.00    +0.003 C 
ATOM      6  C   UNL     1      36.278 -19.522 -21.013  0.00  0.00    +0.015 C 
ENDROOT
BRANCH   4   9
ATOM      7  S   UNL     1      33.355 -23.628 -16.216  0.00  0.00    -0.051 S 
ATOM      8  O   UNL     1      36.426 -21.299 -18.780  0.00  0.00    -0.252 OA
ATOM      9  N   UNL     1      34.509 -20.855 -20.048  0.00  0.00    -0.268 N 
ATOM     10  N   UNL     1      34.336 -22.149 -18.145  0.00  0.00    -0.248 N 
ATOM     11  N   UNL     1      35.842 -22.961 -16.450  0.00  0.00    -0.222 NA
ATOM     12  C   UNL     1      35.219 -21.427 -18.963  0.00  0.00    +0.310 C 
ATOM     13  C   UNL     1      34.664 -22.851 -16.984  0.00  0.00    +0.167 C 
ATOM     14  C   UNL     1      34.451 -24.190 -15.024  0.00  0.00    +0.059 C 
ATOM     15  C   UNL     1      35.722 -23.737 -15.313  0.00  0.00    +0.108 C 
ATOM     16  H   UNL     1      33.542 -21.041 -20.070  0.00  0.00    +0.156 HD
ATOM     17  H   UNL     1      33.390 -22.163 -18.420  0.00  0.00    +0.158 HD
ENDBRANCH   4   9
BRANCH   1  18
ATOM     18  S   UNL     1      33.693 -18.726 -24.654  0.00  0.00    +0.063 S 
ATOM     19  O   UNL     1      34.372 -19.272 -25.809  0.00  0.00    -0.153 OA
ATOM     20  O   UNL     1      32.337 -19.116 -24.332  0.00  0.00    -0.153 OA
BRANCH  18  21
ATOM     21  N   UNL     1      33.782 -17.016 -24.712  0.00  0.00    -0.152 NA
ATOM     22  N   UNL     1      33.375 -14.214 -24.552  0.00  0.00    -0.290 N 
ATOM     23  C   UNL     1      32.801 -16.355 -25.618  0.00  0.00    +0.117 C 
ATOM     24  C   UNL     1      33.832 -16.333 -23.389  0.00  0.00    +0.117 C 
ATOM     25  C   UNL     1      33.212 -14.902 -25.840  0.00  0.00    +0.111 C 
ATOM     26  C   UNL     1      34.252 -14.878 -23.580  0.00  0.00    +0.111 C 
ATOM     27  N   UNL     1      33.605 -12.095 -25.645  0.00  0.00    -0.229 NA
ATOM     28  C   UNL     1      33.257 -12.820 -24.539  0.00  0.00    +0.132 C 
ATOM     29  C   UNL     1      32.779 -12.201 -23.376  0.00  0.00    +0.034 C 
ATOM     30  C   UNL     1      32.657 -10.816 -23.348  0.00  0.00    +0.004 C 
ATOM     31  C   UNL     1      33.472 -10.751 -25.581  0.00  0.00    +0.100 C 
ATOM     32  C   UNL     1      33.007 -10.070 -24.467  0.00  0.00    +0.021 C 
ENDBRANCH  18  21
ENDBRANCH   1  18
TORSDOF 3
ENDMDL
