MODEL 1
REMARK VINA RESULT:     -13.0      0.000      0.000
REMARK  Name = 11987860
REMARK  5 active torsions:
REMARK  status: ('A' for Active; 'I' for Inactive)
REMARK    1  A    between atoms: N_2  and  C_19
REMARK    2  A    between atoms: C_3  and  C_11
REMARK    3  A    between atoms: N_9  and  O_17
REMARK    4  A    between atoms: C_19  and  C_20
REMARK    5  A    between atoms: C_23  and  C_26
REMARK                            x       y       z     vdW  Elec       q    Type
REMARK                         _______ _______ _______ _____ _____    ______ ____
ROOT
ATOM      1  O   UNL     1      33.569 -22.809 -15.068  0.00  0.00    -0.272 OA
ATOM      2  N   UNL     1      34.105 -23.386 -17.259  0.00  0.00    -0.298 N 
ATOM      3  C   UNL     1      34.328 -23.307 -15.895  0.00  0.00    +0.253 C 
ATOM      4  H   UNL     1      34.792 -23.811 -17.823  0.00  0.00    +0.150 HD
ENDROOT
BRANCH   3  11
ATOM      5  O   UNL     1      35.180 -24.800 -13.417  0.00  0.00    -0.327 OA
ATOM      6  O   UNL     1      35.447 -25.344 -15.659  0.00  0.00    -0.320 OA
ATOM      7  O   UNL     1      40.082 -24.657 -14.101  0.00  0.00    -0.250 OA
ATOM      8  N   UNL     1      37.860 -25.331 -14.064  0.00  0.00    -0.255 N 
ATOM      9  N   UNL     1      39.581 -26.833 -14.616  0.00  0.00    -0.181 N 
ATOM     10  C   UNL     1      35.932 -23.739 -14.021  0.00  0.00    +0.174 C 
ATOM     11  C   UNL     1      35.626 -23.934 -15.497  0.00  0.00    +0.222 C 
ATOM     12  C   UNL     1      35.452 -25.872 -14.325  0.00  0.00    +0.256 C 
ATOM     13  C   UNL     1      37.404 -23.987 -13.677  0.00  0.00    +0.128 C 
ATOM     14  C   UNL     1      36.851 -26.409 -14.022  0.00  0.00    +0.156 C 
ATOM     15  C   UNL     1      39.239 -25.548 -14.249  0.00  0.00    +0.326 C 
ATOM     16  H   UNL     1      38.910 -27.543 -14.734  0.00  0.00    +0.184 HD
BRANCH   9  17
ATOM     17  O   UNL     1      40.953 -27.056 -14.808  0.00  0.00    -0.294 OA
ATOM     18  H   UNL     1      41.081 -27.652 -15.564  0.00  0.00    +0.241 HD
ENDBRANCH   9  17
ENDBRANCH   3  11
BRANCH   2  19
ATOM     19  C   UNL     1      32.913 -22.873 -17.895  0.00  0.00    +0.116 C 
BRANCH  19  20
ATOM     20  C   UNL     1      33.269 -21.847 -18.935  0.00  0.00    -0.003 C 
ATOM     21  C   UNL     1      34.599 -21.680 -19.305  0.00  0.00    -0.003 C 
ATOM     22  C   UNL     1      32.267 -21.079 -19.512  0.00  0.00    -0.003 C 
ATOM     23  C   UNL     1      33.930 -19.952 -20.855  0.00  0.00    -0.000 C 
ATOM     24  C   UNL     1      34.929 -20.728 -20.269  0.00  0.00    -0.000 C 
ATOM     25  C   UNL     1      32.599 -20.127 -20.476  0.00  0.00    -0.000 C 
BRANCH  23  26
ATOM     26  C   UNL     1      34.273 -18.964 -21.856  0.00  0.00    -0.000 C 
ATOM     27  C   UNL     1      34.035 -19.227 -23.204  0.00  0.00    -0.000 C 
ATOM     28  C   UNL     1      34.840 -17.750 -21.471  0.00  0.00    -0.000 C 
ATOM     29  C   UNL     1      34.365 -18.275 -24.170  0.00  0.00    +0.000 C 
ATOM     30  C   UNL     1      35.170 -16.798 -22.436  0.00  0.00    +0.000 C 
ATOM     31  C   UNL     1      34.933 -17.060 -23.785  0.00  0.00    +0.000 C 
ENDBRANCH  23  26
ENDBRANCH  19  20
ENDBRANCH   2  19
TORSDOF 5
ENDMDL
MODEL 2
REMARK VINA RESULT:     -12.3      1.779      2.032
REMARK  Name = 11987860
REMARK  5 active torsions:
REMARK  status: ('A' for Active; 'I' for Inactive)
REMARK    1  A    between atoms: N_2  and  C_19
REMARK    2  A    between atoms: C_3  and  C_11
REMARK    3  A    between atoms: N_9  and  O_17
REMARK    4  A    between atoms: C_19  and  C_20
REMARK    5  A    between atoms: C_23  and  C_26
REMARK                            x       y       z     vdW  Elec       q    Type
REMARK                         _______ _______ _______ _____ _____    ______ ____
ROOT
ATOM      1  O   UNL     1      32.210 -23.489 -15.754  0.00  0.00    -0.272 OA
ATOM      2  N   UNL     1      33.906 -23.144 -17.311  0.00  0.00    -0.298 N 
ATOM      3  C   UNL     1      33.394 -23.331 -16.039  0.00  0.00    +0.253 C 
ATOM      4  H   UNL     1      34.879 -23.028 -17.413  0.00  0.00    +0.150 HD
ENDROOT
BRANCH   3  11
ATOM      5  O   UNL     1      34.479 -25.532 -14.286  0.00  0.00    -0.327 OA
ATOM      6  O   UNL     1      35.596 -23.978 -15.602  0.00  0.00    -0.320 OA
ATOM      7  O   UNL     1      36.934 -22.745 -11.012  0.00  0.00    -0.250 OA
ATOM      8  N   UNL     1      36.396 -24.092 -12.825  0.00  0.00    -0.255 N 
ATOM      9  N   UNL     1      38.632 -23.619 -12.279  0.00  0.00    -0.181 N 
ATOM     10  C   UNL     1      34.103 -24.232 -13.812  0.00  0.00    +0.174 C 
ATOM     11  C   UNL     1      34.464 -23.348 -14.995  0.00  0.00    +0.222 C 
ATOM     12  C   UNL     1      35.725 -25.236 -14.923  0.00  0.00    +0.256 C 
ATOM     13  C   UNL     1      34.955 -23.949 -12.571  0.00  0.00    +0.128 C 
ATOM     14  C   UNL     1      36.792 -25.092 -13.837  0.00  0.00    +0.156 C 
ATOM     15  C   UNL     1      37.301 -23.437 -11.968  0.00  0.00    +0.326 C 
ATOM     16  H   UNL     1      38.924 -24.170 -13.040  0.00  0.00    +0.184 HD
BRANCH   9  17
ATOM     17  O   UNL     1      39.540 -22.964 -11.432  0.00  0.00    -0.294 OA
ATOM     18  H   UNL     1      40.332 -22.717 -11.936  0.00  0.00    +0.241 HD
ENDBRANCH   9  17
ENDBRANCH   3  11
BRANCH   2  19
ATOM     19  C   UNL     1      33.081 -23.111 -18.498  0.00  0.00    +0.116 C 
BRANCH  19  20
ATOM     20  C   UNL     1      33.426 -21.919 -19.346  0.00  0.00    -0.003 C 
ATOM     21  C   UNL     1      34.760 -21.605 -19.577  0.00  0.00    -0.003 C 
ATOM     22  C   UNL     1      32.408 -21.145 -19.889  0.00  0.00    -0.003 C 
ATOM     23  C   UNL     1      34.065 -19.717 -20.913  0.00  0.00    -0.000 C 
ATOM     24  C   UNL     1      35.080 -20.499 -20.364  0.00  0.00    -0.000 C 
ATOM     25  C   UNL     1      32.729 -20.040 -20.676  0.00  0.00    -0.000 C 
BRANCH  23  26
ATOM     26  C   UNL     1      34.397 -18.569 -21.731  0.00  0.00    -0.000 C 
ATOM     27  C   UNL     1      34.455 -18.696 -23.119  0.00  0.00    -0.000 C 
ATOM     28  C   UNL     1      34.657 -17.338 -21.131  0.00  0.00    -0.000 C 
ATOM     29  C   UNL     1      34.773 -17.589 -23.907  0.00  0.00    +0.000 C 
ATOM     30  C   UNL     1      34.976 -16.232 -21.919  0.00  0.00    +0.000 C 
ATOM     31  C   UNL     1      35.034 -16.357 -23.307  0.00  0.00    +0.000 C 
ENDBRANCH  23  26
ENDBRANCH  19  20
ENDBRANCH   2  19
TORSDOF 5
ENDMDL
MODEL 3
REMARK VINA RESULT:     -11.5      7.139     12.109
REMARK  Name = 11987860
REMARK  5 active torsions:
REMARK  status: ('A' for Active; 'I' for Inactive)
REMARK    1  A    between atoms: N_2  and  C_19
REMARK    2  A    between atoms: C_3  and  C_11
REMARK    3  A    between atoms: N_9  and  O_17
REMARK    4  A    between atoms: C_19  and  C_20
REMARK    5  A    between atoms: C_23  and  C_26
REMARK                            x       y       z     vdW  Elec       q    Type
REMARK                         _______ _______ _______ _____ _____    ______ ____
ROOT
ATOM      1  O   UNL     1      34.951 -15.636 -22.739  0.00  0.00    -0.272 OA
ATOM      2  N   UNL     1      35.141 -17.725 -23.749  0.00  0.00    -0.298 N 
ATOM      3  C   UNL     1      34.631 -16.446 -23.604  0.00  0.00    +0.253 C 
ATOM      4  H   UNL     1      34.803 -18.283 -24.487  0.00  0.00    +0.150 HD
ENDROOT
BRANCH   3  11
ATOM      5  O   UNL     1      34.266 -17.423 -26.434  0.00  0.00    -0.327 OA
ATOM      6  O   UNL     1      32.725 -17.226 -24.708  0.00  0.00    -0.320 OA
ATOM      7  O   UNL     1      31.127 -13.944 -28.032  0.00  0.00    -0.250 OA
ATOM      8  N   UNL     1      32.023 -15.912 -27.187  0.00  0.00    -0.255 N 
ATOM      9  N   UNL     1      29.754 -15.759 -27.775  0.00  0.00    -0.181 N 
ATOM     10  C   UNL     1      34.244 -16.043 -26.045  0.00  0.00    +0.174 C 
ATOM     11  C   UNL     1      33.624 -16.115 -24.660  0.00  0.00    +0.222 C 
ATOM     12  C   UNL     1      32.982 -17.853 -25.973  0.00  0.00    +0.256 C 
ATOM     13  C   UNL     1      33.360 -15.311 -27.059  0.00  0.00    +0.128 C 
ATOM     14  C   UNL     1      31.932 -17.371 -26.974  0.00  0.00    +0.156 C 
ATOM     15  C   UNL     1      30.974 -15.121 -27.692  0.00  0.00    +0.326 C 
ATOM     16  H   UNL     1      29.630 -16.697 -27.505  0.00  0.00    +0.184 HD
BRANCH   9  17
ATOM     17  O   UNL     1      28.701 -14.976 -28.273  0.00  0.00    -0.294 OA
ATOM     18  H   UNL     1      28.980 -14.047 -28.315  0.00  0.00    +0.241 HD
ENDBRANCH   9  17
ENDBRANCH   3  11
BRANCH   2  19
ATOM     19  C   UNL     1      36.146 -18.279 -22.870  0.00  0.00    +0.116 C 
BRANCH  19  20
ATOM     20  C   UNL     1      35.510 -19.164 -21.835  0.00  0.00    -0.003 C 
ATOM     21  C   UNL     1      36.306 -19.780 -20.877  0.00  0.00    -0.003 C 
ATOM     22  C   UNL     1      34.135 -19.357 -21.848  0.00  0.00    -0.003 C 
ATOM     23  C   UNL     1      34.337 -20.800 -19.922  0.00  0.00    -0.000 C 
ATOM     24  C   UNL     1      35.716 -20.601 -19.916  0.00  0.00    -0.000 C 
ATOM     25  C   UNL     1      33.545 -20.178 -20.888  0.00  0.00    -0.000 C 
BRANCH  23  26
ATOM     26  C   UNL     1      33.724 -21.652 -18.924  0.00  0.00    -0.000 C 
ATOM     27  C   UNL     1      34.522 -22.430 -18.086  0.00  0.00    -0.000 C 
ATOM     28  C   UNL     1      32.335 -21.693 -18.801  0.00  0.00    -0.000 C 
ATOM     29  C   UNL     1      33.932 -23.250 -17.124  0.00  0.00    +0.000 C 
ATOM     30  C   UNL     1      31.745 -22.513 -17.840  0.00  0.00    +0.000 C 
ATOM     31  C   UNL     1      32.543 -23.292 -17.001  0.00  0.00    +0.000 C 
ENDBRANCH  23  26
ENDBRANCH  19  20
ENDBRANCH   2  19
TORSDOF 5
ENDMDL
MODEL 4
REMARK VINA RESULT:     -11.5      8.943     13.442
REMARK  Name = 11987860
REMARK  5 active torsions:
REMARK  status: ('A' for Active; 'I' for Inactive)
REMARK    1  A    between atoms: N_2  and  C_19
REMARK    2  A    between atoms: C_3  and  C_11
REMARK    3  A    between atoms: N_9  and  O_17
REMARK    4  A    between atoms: C_19  and  C_20
REMARK    5  A    between atoms: C_23  and  C_26
REMARK                            x       y       z     vdW  Elec       q    Type
REMARK                         _______ _______ _______ _____ _____    ______ ____
ROOT
ATOM      1  O   UNL     1      32.916 -14.047 -27.062  0.00  0.00    -0.272 OA
ATOM      2  N   UNL     1      33.558 -14.935 -25.008  0.00  0.00    -0.298 N 
ATOM      3  C   UNL     1      33.041 -13.960 -25.844  0.00  0.00    +0.253 C 
ATOM      4  H   UNL     1      33.606 -14.747 -24.043  0.00  0.00    +0.150 HD
ENDROOT
BRANCH   3  11
ATOM      5  O   UNL     1      34.419 -12.251 -23.775  0.00  0.00    -0.327 OA
ATOM      6  O   UNL     1      33.278 -11.640 -25.703  0.00  0.00    -0.320 OA
ATOM      7  O   UNL     1      30.474  -9.781 -22.089  0.00  0.00    -0.250 OA
ATOM      8  N   UNL     1      32.390 -10.383 -23.254  0.00  0.00    -0.255 N 
ATOM      9  N   UNL     1      31.536  -8.197 -23.358  0.00  0.00    -0.181 N 
ATOM     10  C   UNL     1      33.082 -12.753 -23.650  0.00  0.00    +0.174 C 
ATOM     11  C   UNL     1      32.603 -12.743 -25.092  0.00  0.00    +0.222 C 
ATOM     12  C   UNL     1      34.222 -11.194 -24.719  0.00  0.00    +0.256 C 
ATOM     13  C   UNL     1      32.320 -11.766 -22.759  0.00  0.00    +0.128 C 
ATOM     14  C   UNL     1      33.620 -10.001 -23.976  0.00  0.00    +0.156 C 
ATOM     15  C   UNL     1      31.400  -9.470 -22.845  0.00  0.00    +0.326 C 
ATOM     16  H   UNL     1      32.273  -7.947 -23.960  0.00  0.00    +0.184 HD
BRANCH   9  17
ATOM     17  O   UNL     1      30.549  -7.281 -22.959  0.00  0.00    -0.294 OA
ATOM     18  H   UNL     1      29.776  -7.764 -22.626  0.00  0.00    +0.241 HD
ENDBRANCH   9  17
ENDBRANCH   3  11
BRANCH   2  19
ATOM     19  C   UNL     1      34.030 -16.214 -25.485  0.00  0.00    +0.116 C 
BRANCH  19  20
ATOM     20  C   UNL     1      34.174 -17.182 -24.344  0.00  0.00    -0.003 C 
ATOM     21  C   UNL     1      34.566 -16.715 -23.095  0.00  0.00    -0.003 C 
ATOM     22  C   UNL     1      33.915 -18.530 -24.550  0.00  0.00    -0.003 C 
ATOM     23  C   UNL     1      34.442 -18.968 -22.234  0.00  0.00    -0.000 C 
ATOM     24  C   UNL     1      34.700 -17.612 -22.036  0.00  0.00    -0.000 C 
ATOM     25  C   UNL     1      34.049 -19.427 -23.491  0.00  0.00    -0.000 C 
BRANCH  23  26
ATOM     26  C   UNL     1      34.580 -19.900 -21.134  0.00  0.00    -0.000 C 
ATOM     27  C   UNL     1      35.847 -20.223 -20.650  0.00  0.00    -0.000 C 
ATOM     28  C   UNL     1      33.446 -20.472 -20.560  0.00  0.00    -0.000 C 
ATOM     29  C   UNL     1      35.980 -21.120 -19.590  0.00  0.00    +0.000 C 
ATOM     30  C   UNL     1      33.578 -21.369 -19.500  0.00  0.00    +0.000 C 
ATOM     31  C   UNL     1      34.846 -21.694 -19.015  0.00  0.00    +0.000 C 
ENDBRANCH  23  26
ENDBRANCH  19  20
ENDBRANCH   2  19
TORSDOF 5
ENDMDL
MODEL 5
REMARK VINA RESULT:     -11.5      8.944     13.437
REMARK  Name = 11987860
REMARK  5 active torsions:
REMARK  status: ('A' for Active; 'I' for Inactive)
REMARK    1  A    between atoms: N_2  and  C_19
REMARK    2  A    between atoms: C_3  and  C_11
REMARK    3  A    between atoms: N_9  and  O_17
REMARK    4  A    between atoms: C_19  and  C_20
REMARK    5  A    between atoms: C_23  and  C_26
REMARK                            x       y       z     vdW  Elec       q    Type
REMARK                         _______ _______ _______ _____ _____    ______ ____
ROOT
ATOM      1  O   UNL     1      32.935 -14.033 -27.067  0.00  0.00    -0.272 OA
ATOM      2  N   UNL     1      33.542 -14.936 -25.009  0.00  0.00    -0.298 N 
ATOM      3  C   UNL     1      33.043 -13.953 -25.846  0.00  0.00    +0.253 C 
ATOM      4  H   UNL     1      33.578 -14.753 -24.042  0.00  0.00    +0.150 HD
ENDROOT
BRANCH   3  11
ATOM      5  O   UNL     1      34.412 -12.249 -23.769  0.00  0.00    -0.327 OA
ATOM      6  O   UNL     1      33.278 -11.634 -25.700  0.00  0.00    -0.320 OA
ATOM      7  O   UNL     1      30.459  -9.783 -22.094  0.00  0.00    -0.250 OA
ATOM      8  N   UNL     1      32.380 -10.382 -23.252  0.00  0.00    -0.255 N 
ATOM      9  N   UNL     1      31.526  -8.195 -23.356  0.00  0.00    -0.181 N 
ATOM     10  C   UNL     1      33.074 -12.751 -23.650  0.00  0.00    +0.174 C 
ATOM     11  C   UNL     1      32.602 -12.738 -25.094  0.00  0.00    +0.222 C 
ATOM     12  C   UNL     1      34.219 -11.190 -24.711  0.00  0.00    +0.256 C 
ATOM     13  C   UNL     1      32.309 -11.766 -22.761  0.00  0.00    +0.128 C 
ATOM     14  C   UNL     1      33.613  -9.998 -23.969  0.00  0.00    +0.156 C 
ATOM     15  C   UNL     1      31.388  -9.469 -22.846  0.00  0.00    +0.326 C 
ATOM     16  H   UNL     1      32.265  -7.945 -23.955  0.00  0.00    +0.184 HD
BRANCH   9  17
ATOM     17  O   UNL     1      30.537  -7.281 -22.959  0.00  0.00    -0.294 OA
ATOM     18  H   UNL     1      30.943  -6.414 -22.802  0.00  0.00    +0.241 HD
ENDBRANCH   9  17
ENDBRANCH   3  11
BRANCH   2  19
ATOM     19  C   UNL     1      34.014 -16.216 -25.487  0.00  0.00    +0.116 C 
BRANCH  19  20
ATOM     20  C   UNL     1      34.163 -17.182 -24.345  0.00  0.00    -0.003 C 
ATOM     21  C   UNL     1      33.900 -18.531 -24.550  0.00  0.00    -0.003 C 
ATOM     22  C   UNL     1      34.561 -16.716 -23.099  0.00  0.00    -0.003 C 
ATOM     23  C   UNL     1      34.437 -18.969 -22.236  0.00  0.00    -0.000 C 
ATOM     24  C   UNL     1      34.038 -19.427 -23.490  0.00  0.00    -0.000 C 
ATOM     25  C   UNL     1      34.698 -17.612 -22.040  0.00  0.00    -0.000 C 
BRANCH  23  26
ATOM     26  C   UNL     1      34.581 -19.899 -21.136  0.00  0.00    -0.000 C 
ATOM     27  C   UNL     1      33.450 -20.467 -20.551  0.00  0.00    -0.000 C 
ATOM     28  C   UNL     1      35.851 -20.228 -20.664  0.00  0.00    -0.000 C 
ATOM     29  C   UNL     1      33.589 -21.364 -19.492  0.00  0.00    +0.000 C 
ATOM     30  C   UNL     1      35.991 -21.125 -19.605  0.00  0.00    +0.000 C 
ATOM     31  C   UNL     1      34.860 -21.693 -19.018  0.00  0.00    +0.000 C 
ENDBRANCH  23  26
ENDBRANCH  19  20
ENDBRANCH   2  19
TORSDOF 5
ENDMDL
MODEL 6
REMARK VINA RESULT:     -11.2      9.715     14.253
REMARK  Name = 11987860
REMARK  5 active torsions:
REMARK  status: ('A' for Active; 'I' for Inactive)
REMARK    1  A    between atoms: N_2  and  C_19
REMARK    2  A    between atoms: C_3  and  C_11
REMARK    3  A    between atoms: N_9  and  O_17
REMARK    4  A    between atoms: C_19  and  C_20
REMARK    5  A    between atoms: C_23  and  C_26
REMARK                            x       y       z     vdW  Elec       q    Type
REMARK                         _______ _______ _______ _____ _____    ______ ____
ROOT
ATOM      1  O   UNL     1      33.122 -13.084 -27.907  0.00  0.00    -0.272 OA
ATOM      2  N   UNL     1      33.003 -14.176 -25.855  0.00  0.00    -0.298 N 
ATOM      3  C   UNL     1      32.966 -13.072 -26.689  0.00  0.00    +0.253 C 
ATOM      4  H   UNL     1      32.863 -14.039 -24.890  0.00  0.00    +0.150 HD
ENDROOT
BRANCH   3  11
ATOM      5  O   UNL     1      34.545 -11.538 -24.627  0.00  0.00    -0.327 OA
ATOM      6  O   UNL     1      33.487 -10.799 -26.558  0.00  0.00    -0.320 OA
ATOM      7  O   UNL     1      30.933  -8.593 -22.954  0.00  0.00    -0.250 OA
ATOM      8  N   UNL     1      32.761  -9.432 -24.115  0.00  0.00    -0.255 N 
ATOM      9  N   UNL     1      32.183  -7.157 -24.229  0.00  0.00    -0.181 N 
ATOM     10  C   UNL     1      33.156 -11.871 -24.500  0.00  0.00    +0.174 C 
ATOM     11  C   UNL     1      32.682 -11.808 -25.943  0.00  0.00    +0.222 C 
ATOM     12  C   UNL     1      34.479 -10.469 -25.575  0.00  0.00    +0.256 C 
ATOM     13  C   UNL     1      32.521 -10.794 -23.614  0.00  0.00    +0.128 C 
ATOM     14  C   UNL     1      34.029  -9.207 -24.838  0.00  0.00    +0.156 C 
ATOM     15  C   UNL     1      31.891  -8.401 -23.711  0.00  0.00    +0.326 C 
ATOM     16  H   UNL     1      32.945  -7.003 -24.832  0.00  0.00    +0.184 HD
BRANCH   9  17
ATOM     17  O   UNL     1      31.316  -6.126 -23.835  0.00  0.00    -0.294 OA
ATOM     18  H   UNL     1      30.880  -6.370 -23.002  0.00  0.00    +0.241 HD
ENDBRANCH   9  17
ENDBRANCH   3  11
BRANCH   2  19
ATOM     19  C   UNL     1      33.238 -15.520 -26.332  0.00  0.00    +0.116 C 
BRANCH  19  20
ATOM     20  C   UNL     1      33.617 -16.426 -25.194  0.00  0.00    -0.003 C 
ATOM     21  C   UNL     1      33.348 -17.786 -25.282  0.00  0.00    -0.003 C 
ATOM     22  C   UNL     1      34.232 -15.893 -24.069  0.00  0.00    -0.003 C 
ATOM     23  C   UNL     1      34.317 -18.100 -23.092  0.00  0.00    -0.000 C 
ATOM     24  C   UNL     1      33.700 -18.626 -24.225  0.00  0.00    -0.000 C 
ATOM     25  C   UNL     1      34.583 -16.733 -23.013  0.00  0.00    -0.000 C 
BRANCH  23  26
ATOM     26  C   UNL     1      34.683 -18.972 -21.995  0.00  0.00    -0.000 C 
ATOM     27  C   UNL     1      33.710 -19.750 -21.369  0.00  0.00    -0.000 C 
ATOM     28  C   UNL     1      36.009 -19.035 -21.568  0.00  0.00    -0.000 C 
ATOM     29  C   UNL     1      34.063 -20.591 -20.313  0.00  0.00    +0.000 C 
ATOM     30  C   UNL     1      36.362 -19.875 -20.512  0.00  0.00    +0.000 C 
ATOM     31  C   UNL     1      35.389 -20.654 -19.884  0.00  0.00    +0.000 C 
ENDBRANCH  23  26
ENDBRANCH  19  20
ENDBRANCH   2  19
TORSDOF 5
ENDMDL
MODEL 7
REMARK VINA RESULT:     -11.2      5.696     10.580
REMARK  Name = 11987860
REMARK  5 active torsions:
REMARK  status: ('A' for Active; 'I' for Inactive)
REMARK    1  A    between atoms: N_2  and  C_19
REMARK    2  A    between atoms: C_3  and  C_11
REMARK    3  A    between atoms: N_9  and  O_17
REMARK    4  A    between atoms: C_19  and  C_20
REMARK    5  A    between atoms: C_23  and  C_26
REMARK                            x       y       z     vdW  Elec       q    Type
REMARK                         _______ _______ _______ _____ _____    ______ ____
ROOT
ATOM      1  O   UNL     1      35.704 -18.228 -20.254  0.00  0.00    -0.272 OA
ATOM      2  N   UNL     1      35.103 -20.318 -21.085  0.00  0.00    -0.298 N 
ATOM      3  C   UNL     1      35.145 -18.934 -21.089  0.00  0.00    +0.253 C 
ATOM      4  H   UNL     1      34.622 -20.774 -21.813  0.00  0.00    +0.150 HD
ENDROOT
BRANCH   3  11
ATOM      5  O   UNL     1      35.734 -19.013 -24.046  0.00  0.00    -0.327 OA
ATOM      6  O   UNL     1      33.759 -19.439 -22.901  0.00  0.00    -0.320 OA
ATOM      7  O   UNL     1      32.701 -15.385 -25.513  0.00  0.00    -0.250 OA
ATOM      8  N   UNL     1      33.599 -17.466 -25.010  0.00  0.00    -0.255 N 
ATOM      9  N   UNL     1      31.588 -17.263 -26.208  0.00  0.00    -0.181 N 
ATOM     10  C   UNL     1      35.405 -17.822 -23.318  0.00  0.00    +0.174 C 
ATOM     11  C   UNL     1      34.439 -18.350 -22.270  0.00  0.00    +0.222 C 
ATOM     12  C   UNL     1      34.448 -19.632 -24.145  0.00  0.00    +0.256 C 
ATOM     13  C   UNL     1      34.744 -16.863 -24.313  0.00  0.00    +0.128 C 
ATOM     14  C   UNL     1      33.663 -18.923 -25.248  0.00  0.00    +0.156 C 
ATOM     15  C   UNL     1      32.630 -16.617 -25.578  0.00  0.00    +0.326 C 
ATOM     16  H   UNL     1      31.530 -18.244 -26.260  0.00  0.00    +0.184 HD
BRANCH   9  17
ATOM     17  O   UNL     1      30.615 -16.423 -26.772  0.00  0.00    -0.294 OA
ATOM     18  H   UNL     1      30.985 -15.975 -27.550  0.00  0.00    +0.241 HD
ENDBRANCH   9  17
ENDBRANCH   3  11
BRANCH   2  19
ATOM     19  C   UNL     1      35.731 -21.125 -20.063  0.00  0.00    +0.116 C 
BRANCH  19  20
ATOM     20  C   UNL     1      34.699 -21.673 -19.117  0.00  0.00    -0.003 C 
ATOM     21  C   UNL     1      35.107 -22.295 -17.943  0.00  0.00    -0.003 C 
ATOM     22  C   UNL     1      33.351 -21.553 -19.427  0.00  0.00    -0.003 C 
ATOM     23  C   UNL     1      32.795 -22.688 -17.369  0.00  0.00    -0.000 C 
ATOM     24  C   UNL     1      34.150 -22.804 -17.066  0.00  0.00    -0.000 C 
ATOM     25  C   UNL     1      32.394 -22.062 -18.549  0.00  0.00    -0.000 C 
BRANCH  23  26
ATOM     26  C   UNL     1      31.801 -23.215 -16.457  0.00  0.00    -0.000 C 
ATOM     27  C   UNL     1      32.199 -23.945 -15.338  0.00  0.00    -0.000 C 
ATOM     28  C   UNL     1      30.446 -22.991 -16.699  0.00  0.00    -0.000 C 
ATOM     29  C   UNL     1      31.242 -24.453 -14.459  0.00  0.00    +0.000 C 
ATOM     30  C   UNL     1      29.488 -23.499 -15.821  0.00  0.00    +0.000 C 
ATOM     31  C   UNL     1      29.886 -24.230 -14.701  0.00  0.00    +0.000 C 
ENDBRANCH  23  26
ENDBRANCH  19  20
ENDBRANCH   2  19
TORSDOF 5
ENDMDL
MODEL 8
REMARK VINA RESULT:     -10.8      5.350     10.090
REMARK  Name = 11987860
REMARK  5 active torsions:
REMARK  status: ('A' for Active; 'I' for Inactive)
REMARK    1  A    between atoms: N_2  and  C_19
REMARK    2  A    between atoms: C_3  and  C_11
REMARK    3  A    between atoms: N_9  and  O_17
REMARK    4  A    between atoms: C_19  and  C_20
REMARK    5  A    between atoms: C_23  and  C_26
REMARK                            x       y       z     vdW  Elec       q    Type
REMARK                         _______ _______ _______ _____ _____    ______ ____
ROOT
ATOM      1  O   UNL     1      37.663 -19.700 -20.449  0.00  0.00    -0.272 OA
ATOM      2  N   UNL     1      35.710 -20.857 -19.935  0.00  0.00    -0.298 N 
ATOM      3  C   UNL     1      36.487 -19.976 -20.667  0.00  0.00    +0.253 C 
ATOM      4  H   UNL     1      34.775 -20.997 -20.209  0.00  0.00    +0.150 HD
ENDROOT
BRANCH   3  11
ATOM      5  O   UNL     1      34.218 -17.994 -20.801  0.00  0.00    -0.327 OA
ATOM      6  O   UNL     1      36.230 -18.047 -21.959  0.00  0.00    -0.320 OA
ATOM      7  O   UNL     1      32.862 -18.717 -25.507  0.00  0.00    -0.250 OA
ATOM      8  N   UNL     1      33.840 -17.870 -23.580  0.00  0.00    -0.255 N 
ATOM      9  N   UNL     1      33.948 -16.703 -25.616  0.00  0.00    -0.181 N 
ATOM     10  C   UNL     1      34.254 -19.231 -21.524  0.00  0.00    +0.174 C 
ATOM     11  C   UNL     1      35.738 -19.382 -21.817  0.00  0.00    +0.222 C 
ATOM     12  C   UNL     1      35.134 -17.207 -21.568  0.00  0.00    +0.256 C 
ATOM     13  C   UNL     1      33.411 -19.032 -22.787  0.00  0.00    +0.128 C 
ATOM     14  C   UNL     1      34.413 -16.733 -22.830  0.00  0.00    +0.156 C 
ATOM     15  C   UNL     1      33.503 -17.823 -24.946  0.00  0.00    +0.326 C 
ATOM     16  H   UNL     1      34.458 -15.990 -25.170  0.00  0.00    +0.184 HD
BRANCH   9  17
ATOM     17  O   UNL     1      33.620 -16.651 -26.980  0.00  0.00    -0.294 OA
ATOM     18  H   UNL     1      32.711 -16.324 -27.082  0.00  0.00    +0.241 HD
ENDBRANCH   9  17
ENDBRANCH   3  11
BRANCH   2  19
ATOM     19  C   UNL     1      36.206 -21.581 -18.786  0.00  0.00    +0.116 C 
BRANCH  19  20
ATOM     20  C   UNL     1      35.065 -22.138 -17.981  0.00  0.00    -0.003 C 
ATOM     21  C   UNL     1      35.292 -22.573 -16.681  0.00  0.00    -0.003 C 
ATOM     22  C   UNL     1      33.799 -22.211 -18.546  0.00  0.00    -0.003 C 
ATOM     23  C   UNL     1      32.958 -23.168 -16.493  0.00  0.00    -0.000 C 
ATOM     24  C   UNL     1      34.233 -23.090 -15.934  0.00  0.00    -0.000 C 
ATOM     25  C   UNL     1      32.741 -22.728 -17.799  0.00  0.00    -0.000 C 
BRANCH  23  26
ATOM     26  C   UNL     1      31.859 -23.703 -15.718  0.00  0.00    -0.000 C 
ATOM     27  C   UNL     1      32.116 -24.491 -14.596  0.00  0.00    -0.000 C 
ATOM     28  C   UNL     1      30.544 -23.430 -16.092  0.00  0.00    -0.000 C 
ATOM     29  C   UNL     1      31.057 -25.006 -13.848  0.00  0.00    +0.000 C 
ATOM     30  C   UNL     1      29.485 -23.945 -15.345  0.00  0.00    +0.000 C 
ATOM     31  C   UNL     1      29.741 -24.734 -14.223  0.00  0.00    +0.000 C 
ENDBRANCH  23  26
ENDBRANCH  19  20
ENDBRANCH   2  19
TORSDOF 5
ENDMDL
MODEL 9
REMARK VINA RESULT:     -10.7     10.911     14.950
REMARK  Name = 11987860
REMARK  5 active torsions:
REMARK  status: ('A' for Active; 'I' for Inactive)
REMARK    1  A    between atoms: N_2  and  C_19
REMARK    2  A    between atoms: C_3  and  C_11
REMARK    3  A    between atoms: N_9  and  O_17
REMARK    4  A    between atoms: C_19  and  C_20
REMARK    5  A    between atoms: C_23  and  C_26
REMARK                            x       y       z     vdW  Elec       q    Type
REMARK                         _______ _______ _______ _____ _____    ______ ____
ROOT
ATOM      1  O   UNL     1      32.659  -9.059 -26.012  0.00  0.00    -0.272 OA
ATOM      2  N   UNL     1      32.773 -10.862 -24.544  0.00  0.00    -0.298 N 
ATOM      3  C   UNL     1      32.641  -9.525 -24.876  0.00  0.00    +0.253 C 
ATOM      4  H   UNL     1      32.742 -11.114 -23.593  0.00  0.00    +0.150 HD
ENDROOT
BRANCH   3  11
ATOM      5  O   UNL     1      30.690  -9.669 -22.580  0.00  0.00    -0.327 OA
ATOM      6  O   UNL     1      32.995  -9.383 -22.571  0.00  0.00    -0.320 OA
ATOM      7  O   UNL     1      31.317  -5.102 -20.774  0.00  0.00    -0.250 OA
ATOM      8  N   UNL     1      31.467  -7.390 -21.136  0.00  0.00    -0.255 N 
ATOM      9  N   UNL     1      32.426  -6.390 -19.238  0.00  0.00    -0.181 N 
ATOM     10  C   UNL     1      30.970  -8.480 -23.331  0.00  0.00    +0.174 C 
ATOM     11  C   UNL     1      32.440  -8.660 -23.673  0.00  0.00    +0.222 C 
ATOM     12  C   UNL     1      31.865  -9.757 -21.769  0.00  0.00    +0.256 C 
ATOM     13  C   UNL     1      30.714  -7.294 -22.395  0.00  0.00    +0.128 C 
ATOM     14  C   UNL     1      31.730  -8.751 -20.626  0.00  0.00    +0.156 C 
ATOM     15  C   UNL     1      31.709  -6.213 -20.403  0.00  0.00    +0.326 C 
ATOM     16  H   UNL     1      32.739  -7.275 -18.942  0.00  0.00    +0.184 HD
BRANCH   9  17
ATOM     17  O   UNL     1      32.677  -5.220 -18.505  0.00  0.00    -0.294 OA
ATOM     18  H   UNL     1      32.065  -5.173 -17.753  0.00  0.00    +0.241 HD
ENDBRANCH   9  17
ENDBRANCH   3  11
BRANCH   2  19
ATOM     19  C   UNL     1      32.956 -11.906 -25.527  0.00  0.00    +0.116 C 
BRANCH  19  20
ATOM     20  C   UNL     1      33.343 -13.197 -24.860  0.00  0.00    -0.003 C 
ATOM     21  C   UNL     1      33.835 -13.176 -23.560  0.00  0.00    -0.003 C 
ATOM     22  C   UNL     1      33.204 -14.394 -25.550  0.00  0.00    -0.003 C 
ATOM     23  C   UNL     1      34.058 -15.580 -23.626  0.00  0.00    -0.000 C 
ATOM     24  C   UNL     1      34.194 -14.373 -22.942  0.00  0.00    -0.000 C 
ATOM     25  C   UNL     1      33.564 -15.590 -24.930  0.00  0.00    -0.000 C 
BRANCH  23  26
ATOM     26  C   UNL     1      34.430 -16.823 -22.984  0.00  0.00    -0.000 C 
ATOM     27  C   UNL     1      34.952 -16.810 -21.691  0.00  0.00    -0.000 C 
ATOM     28  C   UNL     1      34.264 -18.032 -23.658  0.00  0.00    -0.000 C 
ATOM     29  C   UNL     1      35.309 -18.008 -21.071  0.00  0.00    +0.000 C 
ATOM     30  C   UNL     1      34.622 -19.230 -23.039  0.00  0.00    +0.000 C 
ATOM     31  C   UNL     1      35.145 -19.218 -21.745  0.00  0.00    +0.000 C 
ENDBRANCH  23  26
ENDBRANCH  19  20
ENDBRANCH   2  19
TORSDOF 5
ENDMDL
