MODEL 1
REMARK VINA RESULT:     -11.9      0.000      0.000
REMARK  Name = 24995524
REMARK  4 active torsions:
REMARK  status: ('A' for Active; 'I' for Inactive)
REMARK    1  A    between atoms: N_5  and  C_13
REMARK    2  A    between atoms: C_6  and  C_19
REMARK    3  A    between atoms: C_19  and  C_20
REMARK    4  A    between atoms: C_20  and  N_22
REMARK                            x       y       z     vdW  Elec       q    Type
REMARK                         _______ _______ _______ _____ _____    ______ ____
ROOT
ATOM      1  S   UNL     1      36.100 -20.532 -19.851  0.00  0.00    -0.056 S 
ATOM      2  O   UNL     1      34.911 -23.401 -16.365  0.00  0.00    -0.252 OA
ATOM      3  N   UNL     1      34.133 -21.846 -18.810  0.00  0.00    -0.223 NA
ATOM      4  N   UNL     1      36.269 -22.038 -17.713  0.00  0.00    -0.248 N 
ATOM      5  N   UNL     1      37.178 -23.127 -15.858  0.00  0.00    -0.268 N 
ATOM      6  C   UNL     1      34.566 -20.415 -20.610  0.00  0.00    +0.031 C 
ATOM      7  C   UNL     1      33.648 -21.178 -19.918  0.00  0.00    +0.103 C 
ATOM      8  C   UNL     1      35.413 -21.580 -18.678  0.00  0.00    +0.166 C 
ATOM      9  C   UNL     1      36.010 -22.913 -16.608  0.00  0.00    +0.310 C 
ATOM     10  H   UNL     1      37.198 -21.720 -17.789  0.00  0.00    +0.158 HD
ATOM     11  H   UNL     1      37.987 -22.665 -16.178  0.00  0.00    +0.156 HD
ENDROOT
BRANCH   5  13
ATOM     12 CL   UNL     1      35.945 -23.990 -10.948  0.00  0.00    -0.082 Cl
ATOM     13  C   UNL     1      37.334 -23.923 -14.699  0.00  0.00    +0.052 C 
ATOM     14  C   UNL     1      36.642 -23.601 -13.532  0.00  0.00    +0.026 C 
ATOM     15  C   UNL     1      38.182 -25.032 -14.725  0.00  0.00    +0.015 C 
ATOM     16  C   UNL     1      36.799 -24.387 -12.390  0.00  0.00    +0.059 C 
ATOM     17  C   UNL     1      38.338 -25.817 -13.583  0.00  0.00    +0.002 C 
ATOM     18  C   UNL     1      37.645 -25.495 -12.416  0.00  0.00    +0.011 C 
ENDBRANCH   5  13
BRANCH   6  19
ATOM     19  C   UNL     1      34.383 -19.568 -21.845  0.00  0.00    +0.056 C 
BRANCH  19  20
ATOM     20  C   UNL     1      35.551 -18.616 -22.097  0.00  0.00    +0.093 C 
BRANCH  20  22
ATOM     21  S   UNL     1      34.111 -14.214 -22.388  0.00  0.00    -0.101 S 
ATOM     22  N   UNL     1      35.091 -17.269 -22.253  0.00  0.00    -0.320 N 
ATOM     23  N   UNL     1      34.501 -17.582 -24.537  0.00  0.00    -0.233 NA
ATOM     24  N   UNL     1      33.553 -15.810 -25.886  0.00  0.00    -0.247 NA
ATOM     25  C   UNL     1      34.574 -16.770 -23.463  0.00  0.00    +0.118 C 
ATOM     26  C   UNL     1      34.137 -15.455 -23.573  0.00  0.00    +0.145 C 
ATOM     27  C   UNL     1      33.633 -15.004 -24.792  0.00  0.00    +0.073 C 
ATOM     28  C   UNL     1      33.232 -13.636 -24.730  0.00  0.00    +0.022 C 
ATOM     29  C   UNL     1      33.437 -13.089 -23.484  0.00  0.00    +0.033 C 
ATOM     30  C   UNL     1      34.001 -17.058 -25.671  0.00  0.00    +0.251 C 
ATOM     31  H   UNL     1      35.138 -16.664 -21.478  0.00  0.00    +0.148 HD
ENDBRANCH  20  22
ENDBRANCH  19  20
ENDBRANCH   6  19
TORSDOF 4
ENDMDL
MODEL 2
REMARK VINA RESULT:     -11.7      4.465     11.378
REMARK  Name = 24995524
REMARK  4 active torsions:
REMARK  status: ('A' for Active; 'I' for Inactive)
REMARK    1  A    between atoms: N_5  and  C_13
REMARK    2  A    between atoms: C_6  and  C_19
REMARK    3  A    between atoms: C_19  and  C_20
REMARK    4  A    between atoms: C_20  and  N_22
REMARK                            x       y       z     vdW  Elec       q    Type
REMARK                         _______ _______ _______ _____ _____    ______ ____
ROOT
ATOM      1  S   UNL     1      33.744 -23.252 -17.002  0.00  0.00    -0.056 S 
ATOM      2  O   UNL     1      32.171 -20.342 -20.297  0.00  0.00    -0.252 OA
ATOM      3  N   UNL     1      31.615 -22.152 -17.969  0.00  0.00    -0.223 NA
ATOM      4  N   UNL     1      33.704 -21.595 -19.032  0.00  0.00    -0.248 N 
ATOM      5  N   UNL     1      34.454 -20.269 -20.801  0.00  0.00    -0.268 N 
ATOM      6  C   UNL     1      32.241 -23.629 -16.266  0.00  0.00    +0.031 C 
ATOM      7  C   UNL     1      31.227 -22.954 -16.913  0.00  0.00    +0.103 C 
ATOM      8  C   UNL     1      32.919 -22.231 -18.107  0.00  0.00    +0.166 C 
ATOM      9  C   UNL     1      33.327 -20.690 -20.077  0.00  0.00    +0.310 C 
ATOM     10  H   UNL     1      34.667 -21.787 -18.969  0.00  0.00    +0.158 HD
ATOM     11  H   UNL     1      35.319 -20.636 -20.506  0.00  0.00    +0.156 HD
ENDROOT
BRANCH   5  13
ATOM     12 CL   UNL     1      34.710 -15.432 -22.507  0.00  0.00    -0.082 Cl
ATOM     13  C   UNL     1      34.500 -19.381 -21.902  0.00  0.00    +0.052 C 
ATOM     14  C   UNL     1      34.575 -18.005 -21.686  0.00  0.00    +0.026 C 
ATOM     15  C   UNL     1      34.469 -19.883 -23.203  0.00  0.00    +0.015 C 
ATOM     16  C   UNL     1      34.618 -17.131 -22.773  0.00  0.00    +0.059 C 
ATOM     17  C   UNL     1      34.513 -19.009 -24.289  0.00  0.00    +0.002 C 
ATOM     18  C   UNL     1      34.588 -17.633 -24.073  0.00  0.00    +0.011 C 
ENDBRANCH   5  13
BRANCH   6  19
ATOM     19  C   UNL     1      32.176 -24.576 -15.093  0.00  0.00    +0.056 C 
BRANCH  19  20
ATOM     20  C   UNL     1      33.162 -24.220 -13.981  0.00  0.00    +0.093 C 
BRANCH  20  22
ATOM     21  S   UNL     1      37.241 -26.203 -14.962  0.00  0.00    -0.101 S 
ATOM     22  N   UNL     1      34.449 -24.794 -14.233  0.00  0.00    -0.320 N 
ATOM     23  N   UNL     1      35.512 -23.518 -12.530  0.00  0.00    -0.233 NA
ATOM     24  N   UNL     1      37.878 -23.709 -12.052  0.00  0.00    -0.247 NA
ATOM     25  C   UNL     1      35.603 -24.439 -13.510  0.00  0.00    +0.118 C 
ATOM     26  C   UNL     1      36.834 -25.020 -13.787  0.00  0.00    +0.145 C 
ATOM     27  C   UNL     1      37.951 -24.637 -13.045  0.00  0.00    +0.073 C 
ATOM     28  C   UNL     1      39.129 -25.328 -13.458  0.00  0.00    +0.022 C 
ATOM     29  C   UNL     1      38.883 -26.207 -14.489  0.00  0.00    +0.033 C 
ATOM     30  C   UNL     1      36.643 -23.212 -11.868  0.00  0.00    +0.251 C 
ATOM     31  H   UNL     1      34.531 -25.468 -14.947  0.00  0.00    +0.148 HD
ENDBRANCH  20  22
ENDBRANCH  19  20
ENDBRANCH   6  19
TORSDOF 4
ENDMDL
MODEL 3
REMARK VINA RESULT:     -11.6      1.513      1.847
REMARK  Name = 24995524
REMARK  4 active torsions:
REMARK  status: ('A' for Active; 'I' for Inactive)
REMARK    1  A    between atoms: N_5  and  C_13
REMARK    2  A    between atoms: C_6  and  C_19
REMARK    3  A    between atoms: C_19  and  C_20
REMARK    4  A    between atoms: C_20  and  N_22
REMARK                            x       y       z     vdW  Elec       q    Type
REMARK                         _______ _______ _______ _____ _____    ______ ____
ROOT
ATOM      1  S   UNL     1      34.070 -21.118 -20.148  0.00  0.00    -0.056 S 
ATOM      2  O   UNL     1      37.328 -21.703 -16.856  0.00  0.00    -0.252 OA
ATOM      3  N   UNL     1      36.426 -20.374 -19.390  0.00  0.00    -0.223 NA
ATOM      4  N   UNL     1      35.297 -21.988 -18.002  0.00  0.00    -0.248 N 
ATOM      5  N   UNL     1      35.708 -23.178 -16.035  0.00  0.00    -0.268 N 
ATOM      6  C   UNL     1      34.898 -19.970 -21.116  0.00  0.00    +0.031 C 
ATOM      7  C   UNL     1      36.130 -19.698 -20.558  0.00  0.00    +0.103 C 
ATOM      8  C   UNL     1      35.412 -21.151 -19.079  0.00  0.00    +0.166 C 
ATOM      9  C   UNL     1      36.229 -22.240 -16.943  0.00  0.00    +0.310 C 
ATOM     10  H   UNL     1      34.452 -22.489 -17.947  0.00  0.00    +0.158 HD
ATOM     11  H   UNL     1      34.809 -23.522 -16.240  0.00  0.00    +0.156 HD
ENDROOT
BRANCH   5  13
ATOM     12 CL   UNL     1      39.534 -25.867 -13.916  0.00  0.00    -0.082 Cl
ATOM     13  C   UNL     1      36.318 -23.686 -14.865  0.00  0.00    +0.052 C 
ATOM     14  C   UNL     1      37.489 -24.437 -14.958  0.00  0.00    +0.026 C 
ATOM     15  C   UNL     1      35.746 -23.437 -13.616  0.00  0.00    +0.015 C 
ATOM     16  C   UNL     1      38.088 -24.939 -13.802  0.00  0.00    +0.059 C 
ATOM     17  C   UNL     1      36.345 -23.939 -12.462  0.00  0.00    +0.002 C 
ATOM     18  C   UNL     1      37.517 -24.689 -12.555  0.00  0.00    +0.011 C 
ENDBRANCH   5  13
BRANCH   6  19
ATOM     19  C   UNL     1      34.262 -19.419 -22.369  0.00  0.00    +0.056 C 
BRANCH  19  20
ATOM     20  C   UNL     1      35.208 -18.538 -23.184  0.00  0.00    +0.093 C 
BRANCH  20  22
ATOM     21  S   UNL     1      34.054 -14.070 -22.690  0.00  0.00    -0.101 S 
ATOM     22  N   UNL     1      34.828 -17.160 -23.096  0.00  0.00    -0.320 N 
ATOM     23  N   UNL     1      33.979 -17.104 -25.318  0.00  0.00    -0.233 NA
ATOM     24  N   UNL     1      33.018 -15.105 -26.288  0.00  0.00    -0.247 NA
ATOM     25  C   UNL     1      34.221 -16.463 -24.157  0.00  0.00    +0.118 C 
ATOM     26  C   UNL     1      33.868 -15.125 -24.031  0.00  0.00    +0.145 C 
ATOM     27  C   UNL     1      33.270 -14.474 -25.110  0.00  0.00    +0.073 C 
ATOM     28  C   UNL     1      32.973 -13.110 -24.811  0.00  0.00    +0.022 C 
ATOM     29  C   UNL     1      33.347 -12.763 -23.533  0.00  0.00    +0.033 C 
ATOM     30  C   UNL     1      33.399 -16.393 -26.302  0.00  0.00    +0.251 C 
ATOM     31  H   UNL     1      34.999 -16.679 -22.254  0.00  0.00    +0.148 HD
ENDBRANCH  20  22
ENDBRANCH  19  20
ENDBRANCH   6  19
TORSDOF 4
ENDMDL
MODEL 4
REMARK VINA RESULT:     -11.4      1.893      2.422
REMARK  Name = 24995524
REMARK  4 active torsions:
REMARK  status: ('A' for Active; 'I' for Inactive)
REMARK    1  A    between atoms: N_5  and  C_13
REMARK    2  A    between atoms: C_6  and  C_19
REMARK    3  A    between atoms: C_19  and  C_20
REMARK    4  A    between atoms: C_20  and  N_22
REMARK                            x       y       z     vdW  Elec       q    Type
REMARK                         _______ _______ _______ _____ _____    ______ ____
ROOT
ATOM      1  S   UNL     1      34.067 -21.063 -20.219  0.00  0.00    -0.056 S 
ATOM      2  O   UNL     1      37.244 -21.721 -16.862  0.00  0.00    -0.252 OA
ATOM      3  N   UNL     1      36.424 -20.374 -19.414  0.00  0.00    -0.223 NA
ATOM      4  N   UNL     1      35.231 -21.960 -18.049  0.00  0.00    -0.248 N 
ATOM      5  N   UNL     1      35.575 -23.157 -16.073  0.00  0.00    -0.268 N 
ATOM      6  C   UNL     1      34.942 -19.936 -21.170  0.00  0.00    +0.031 C 
ATOM      7  C   UNL     1      36.168 -19.692 -20.588  0.00  0.00    +0.103 C 
ATOM      8  C   UNL     1      35.386 -21.126 -19.123  0.00  0.00    +0.166 C 
ATOM      9  C   UNL     1      36.135 -22.233 -16.971  0.00  0.00    +0.310 C 
ATOM     10  H   UNL     1      34.373 -22.440 -18.010  0.00  0.00    +0.158 HD
ATOM     11  H   UNL     1      34.672 -23.481 -16.295  0.00  0.00    +0.156 HD
ENDROOT
BRANCH   5  13
ATOM     12 CL   UNL     1      39.413 -25.744 -13.851  0.00  0.00    -0.082 Cl
ATOM     13  C   UNL     1      36.148 -23.679 -14.890  0.00  0.00    +0.052 C 
ATOM     14  C   UNL     1      37.357 -24.372 -14.948  0.00  0.00    +0.026 C 
ATOM     15  C   UNL     1      35.505 -23.499 -13.665  0.00  0.00    +0.015 C 
ATOM     16  C   UNL     1      37.921 -24.887 -13.780  0.00  0.00    +0.059 C 
ATOM     17  C   UNL     1      36.069 -24.014 -12.499  0.00  0.00    +0.002 C 
ATOM     18  C   UNL     1      37.277 -24.707 -12.556  0.00  0.00    +0.011 C 
ENDBRANCH   5  13
BRANCH   6  19
ATOM     19  C   UNL     1      34.344 -19.372 -22.436  0.00  0.00    +0.056 C 
BRANCH  19  20
ATOM     20  C   UNL     1      35.347 -18.579 -23.271  0.00  0.00    +0.093 C 
BRANCH  20  22
ATOM     21  S   UNL     1      33.164 -15.938 -26.401  0.00  0.00    -0.101 S 
ATOM     22  N   UNL     1      34.676 -17.712 -24.192  0.00  0.00    -0.320 N 
ATOM     23  N   UNL     1      34.717 -15.859 -22.701  0.00  0.00    -0.233 NA
ATOM     24  N   UNL     1      33.776 -13.705 -23.281  0.00  0.00    -0.247 NA
ATOM     25  C   UNL     1      34.371 -16.370 -23.898  0.00  0.00    +0.118 C 
ATOM     26  C   UNL     1      33.717 -15.561 -24.821  0.00  0.00    +0.145 C 
ATOM     27  C   UNL     1      33.434 -14.237 -24.486  0.00  0.00    +0.073 C 
ATOM     28  C   UNL     1      32.763 -13.552 -25.542  0.00  0.00    +0.022 C 
ATOM     29  C   UNL     1      32.555 -14.359 -26.638  0.00  0.00    +0.033 C 
ATOM     30  C   UNL     1      34.402 -14.571 -22.467  0.00  0.00    +0.251 C 
ATOM     31  H   UNL     1      34.416 -18.071 -25.071  0.00  0.00    +0.148 HD
ENDBRANCH  20  22
ENDBRANCH  19  20
ENDBRANCH   6  19
TORSDOF 4
ENDMDL
MODEL 5
REMARK VINA RESULT:     -11.3      3.702      4.572
REMARK  Name = 24995524
REMARK  4 active torsions:
REMARK  status: ('A' for Active; 'I' for Inactive)
REMARK    1  A    between atoms: N_5  and  C_13
REMARK    2  A    between atoms: C_6  and  C_19
REMARK    3  A    between atoms: C_19  and  C_20
REMARK    4  A    between atoms: C_20  and  N_22
REMARK                            x       y       z     vdW  Elec       q    Type
REMARK                         _______ _______ _______ _____ _____    ______ ____
ROOT
ATOM      1  S   UNL     1      33.132 -19.819 -21.099  0.00  0.00    -0.056 S 
ATOM      2  O   UNL     1      33.359 -22.849 -17.554  0.00  0.00    -0.252 OA
ATOM      3  N   UNL     1      34.745 -21.277 -19.701  0.00  0.00    -0.223 NA
ATOM      4  N   UNL     1      32.411 -21.369 -19.113  0.00  0.00    -0.248 N 
ATOM      5  N   UNL     1      31.054 -22.453 -17.552  0.00  0.00    -0.268 N 
ATOM      6  C   UNL     1      34.801 -19.775 -21.494  0.00  0.00    +0.031 C 
ATOM      7  C   UNL     1      35.499 -20.610 -20.648  0.00  0.00    +0.103 C 
ATOM      8  C   UNL     1      33.483 -20.937 -19.845  0.00  0.00    +0.166 C 
ATOM      9  C   UNL     1      32.370 -22.289 -18.015  0.00  0.00    +0.310 C 
ATOM     10  H   UNL     1      31.541 -20.993 -19.380  0.00  0.00    +0.158 HD
ATOM     11  H   UNL     1      30.362 -21.935 -18.024  0.00  0.00    +0.156 HD
ENDROOT
BRANCH   5  13
ATOM     12 CL   UNL     1      32.139 -25.004 -13.230  0.00  0.00    -0.082 Cl
ATOM     13  C   UNL     1      30.600 -23.271 -16.490  0.00  0.00    +0.052 C 
ATOM     14  C   UNL     1      31.490 -23.684 -15.499  0.00  0.00    +0.026 C 
ATOM     15  C   UNL     1      29.262 -23.663 -16.435  0.00  0.00    +0.015 C 
ATOM     16  C   UNL     1      31.041 -24.492 -14.453  0.00  0.00    +0.059 C 
ATOM     17  C   UNL     1      28.814 -24.470 -15.390  0.00  0.00    +0.002 C 
ATOM     18  C   UNL     1      29.704 -24.883 -14.399  0.00  0.00    +0.011 C 
ENDBRANCH   5  13
BRANCH   6  19
ATOM     19  C   UNL     1      35.299 -18.909 -22.625  0.00  0.00    +0.056 C 
BRANCH  19  20
ATOM     20  C   UNL     1      34.865 -17.450 -22.499  0.00  0.00    +0.093 C 
BRANCH  20  22
ATOM     21  S   UNL     1      32.947 -16.151 -26.521  0.00  0.00    -0.101 S 
ATOM     22  N   UNL     1      34.274 -16.984 -23.718  0.00  0.00    -0.320 N 
ATOM     23  N   UNL     1      34.259 -14.712 -23.011  0.00  0.00    -0.233 NA
ATOM     24  N   UNL     1      33.405 -12.926 -24.404  0.00  0.00    -0.247 NA
ATOM     25  C   UNL     1      33.980 -15.629 -23.958  0.00  0.00    +0.118 C 
ATOM     26  C   UNL     1      33.405 -15.218 -25.156  0.00  0.00    +0.145 C 
ATOM     27  C   UNL     1      33.130 -13.865 -25.350  0.00  0.00    +0.073 C 
ATOM     28  C   UNL     1      32.544 -13.618 -26.627  0.00  0.00    +0.022 C 
ATOM     29  C   UNL     1      32.390 -14.772 -27.362  0.00  0.00    +0.033 C 
ATOM     30  C   UNL     1      33.958 -13.430 -23.289  0.00  0.00    +0.251 C 
ATOM     31  H   UNL     1      34.063 -17.642 -24.419  0.00  0.00    +0.148 HD
ENDBRANCH  20  22
ENDBRANCH  19  20
ENDBRANCH   6  19
TORSDOF 4
ENDMDL
MODEL 6
REMARK VINA RESULT:     -11.2      1.986      2.677
REMARK  Name = 24995524
REMARK  4 active torsions:
REMARK  status: ('A' for Active; 'I' for Inactive)
REMARK    1  A    between atoms: N_5  and  C_13
REMARK    2  A    between atoms: C_6  and  C_19
REMARK    3  A    between atoms: C_19  and  C_20
REMARK    4  A    between atoms: C_20  and  N_22
REMARK                            x       y       z     vdW  Elec       q    Type
REMARK                         _______ _______ _______ _____ _____    ______ ____
ROOT
ATOM      1  S   UNL     1      36.510 -19.553 -20.862  0.00  0.00    -0.056 S 
ATOM      2  O   UNL     1      34.596 -22.442 -17.733  0.00  0.00    -0.252 OA
ATOM      3  N   UNL     1      34.343 -20.820 -20.244  0.00  0.00    -0.223 NA
ATOM      4  N   UNL     1      36.225 -21.101 -18.766  0.00  0.00    -0.248 N 
ATOM      5  N   UNL     1      36.732 -22.251 -16.798  0.00  0.00    -0.268 N 
ATOM      6  C   UNL     1      35.153 -19.373 -21.895  0.00  0.00    +0.031 C 
ATOM      7  C   UNL     1      34.098 -20.117 -21.408  0.00  0.00    +0.103 C 
ATOM      8  C   UNL     1      35.582 -20.598 -19.865  0.00  0.00    +0.166 C 
ATOM      9  C   UNL     1      35.735 -21.987 -17.752  0.00  0.00    +0.310 C 
ATOM     10  H   UNL     1      37.160 -20.812 -18.657  0.00  0.00    +0.158 HD
ATOM     11  H   UNL     1      37.600 -21.811 -16.948  0.00  0.00    +0.156 HD
ENDROOT
BRANCH   5  13
ATOM     12 CL   UNL     1      38.871 -25.841 -13.815  0.00  0.00    -0.082 Cl
ATOM     13  C   UNL     1      36.642 -23.072 -15.650  0.00  0.00    +0.052 C 
ATOM     14  C   UNL     1      37.680 -23.948 -15.335  0.00  0.00    +0.026 C 
ATOM     15  C   UNL     1      35.513 -23.005 -14.832  0.00  0.00    +0.015 C 
ATOM     16  C   UNL     1      37.589 -24.759 -14.203  0.00  0.00    +0.059 C 
ATOM     17  C   UNL     1      35.423 -23.815 -13.700  0.00  0.00    +0.002 C 
ATOM     18  C   UNL     1      36.461 -24.691 -13.386  0.00  0.00    +0.011 C 
ENDBRANCH   5  13
BRANCH   6  19
ATOM     19  C   UNL     1      35.233 -18.499 -23.122  0.00  0.00    +0.056 C 
BRANCH  19  20
ATOM     20  C   UNL     1      34.665 -17.098 -22.898  0.00  0.00    +0.093 C 
BRANCH  20  22
ATOM     21  S   UNL     1      32.750 -15.645 -26.868  0.00  0.00    -0.101 S 
ATOM     22  N   UNL     1      34.076 -16.585 -24.098  0.00  0.00    -0.320 N 
ATOM     23  N   UNL     1      34.092 -14.338 -23.318  0.00  0.00    -0.233 NA
ATOM     24  N   UNL     1      33.256 -12.497 -24.649  0.00  0.00    -0.247 NA
ATOM     25  C   UNL     1      33.798 -15.220 -24.293  0.00  0.00    +0.118 C 
ATOM     26  C   UNL     1      33.225 -14.763 -25.474  0.00  0.00    +0.145 C 
ATOM     27  C   UNL     1      32.965 -13.401 -25.623  0.00  0.00    +0.073 C 
ATOM     28  C   UNL     1      32.378 -13.105 -26.890  0.00  0.00    +0.022 C 
ATOM     29  C   UNL     1      32.207 -14.233 -27.661  0.00  0.00    +0.033 C 
ATOM     30  C   UNL     1      33.806 -13.044 -23.552  0.00  0.00    +0.251 C 
ATOM     31  H   UNL     1      33.854 -17.218 -24.820  0.00  0.00    +0.148 HD
ENDBRANCH  20  22
ENDBRANCH  19  20
ENDBRANCH   6  19
TORSDOF 4
ENDMDL
MODEL 7
REMARK VINA RESULT:     -11.2      3.584      4.287
REMARK  Name = 24995524
REMARK  4 active torsions:
REMARK  status: ('A' for Active; 'I' for Inactive)
REMARK    1  A    between atoms: N_5  and  C_13
REMARK    2  A    between atoms: C_6  and  C_19
REMARK    3  A    between atoms: C_19  and  C_20
REMARK    4  A    between atoms: C_20  and  N_22
REMARK                            x       y       z     vdW  Elec       q    Type
REMARK                         _______ _______ _______ _____ _____    ______ ____
ROOT
ATOM      1  S   UNL     1      33.168 -19.847 -21.086  0.00  0.00    -0.056 S 
ATOM      2  O   UNL     1      33.347 -22.872 -17.535  0.00  0.00    -0.252 OA
ATOM      3  N   UNL     1      34.761 -21.310 -19.671  0.00  0.00    -0.223 NA
ATOM      4  N   UNL     1      32.421 -21.390 -19.104  0.00  0.00    -0.248 N 
ATOM      5  N   UNL     1      31.044 -22.465 -17.554  0.00  0.00    -0.268 N 
ATOM      6  C   UNL     1      34.840 -19.811 -21.465  0.00  0.00    +0.031 C 
ATOM      7  C   UNL     1      35.527 -20.648 -20.611  0.00  0.00    +0.103 C 
ATOM      8  C   UNL     1      33.502 -20.964 -19.827  0.00  0.00    +0.166 C 
ATOM      9  C   UNL     1      32.365 -22.308 -18.005  0.00  0.00    +0.310 C 
ATOM     10  H   UNL     1      31.555 -21.010 -19.379  0.00  0.00    +0.158 HD
ATOM     11  H   UNL     1      30.359 -21.944 -18.034  0.00  0.00    +0.156 HD
ENDROOT
BRANCH   5  13
ATOM     12 CL   UNL     1      32.083 -25.038 -13.234  0.00  0.00    -0.082 Cl
ATOM     13  C   UNL     1      30.577 -23.279 -16.496  0.00  0.00    +0.052 C 
ATOM     14  C   UNL     1      31.458 -23.706 -15.503  0.00  0.00    +0.026 C 
ATOM     15  C   UNL     1      29.234 -23.654 -16.446  0.00  0.00    +0.015 C 
ATOM     16  C   UNL     1      30.995 -24.509 -14.460  0.00  0.00    +0.059 C 
ATOM     17  C   UNL     1      28.772 -24.457 -15.404  0.00  0.00    +0.002 C 
ATOM     18  C   UNL     1      29.653 -24.884 -14.410  0.00  0.00    +0.011 C 
ENDBRANCH   5  13
BRANCH   6  19
ATOM     19  C   UNL     1      35.354 -18.949 -22.593  0.00  0.00    +0.056 C 
BRANCH  19  20
ATOM     20  C   UNL     1      34.246 -18.458 -23.524  0.00  0.00    +0.093 C 
BRANCH  20  22
ATOM     21  S   UNL     1      33.933 -13.844 -23.141  0.00  0.00    -0.101 S 
ATOM     22  N   UNL     1      34.126 -17.032 -23.471  0.00  0.00    -0.320 N 
ATOM     23  N   UNL     1      33.323 -16.872 -25.704  0.00  0.00    -0.233 NA
ATOM     24  N   UNL     1      32.756 -14.754 -26.730  0.00  0.00    -0.247 NA
ATOM     25  C   UNL     1      33.668 -16.260 -24.555  0.00  0.00    +0.118 C 
ATOM     26  C   UNL     1      33.567 -14.877 -24.461  0.00  0.00    +0.145 C 
ATOM     27  C   UNL     1      33.109 -14.152 -25.562  0.00  0.00    +0.073 C 
ATOM     28  C   UNL     1      33.067 -12.751 -25.296  0.00  0.00    +0.022 C 
ATOM     29  C   UNL     1      33.487 -12.449 -24.020  0.00  0.00    +0.033 C 
ATOM     30  C   UNL     1      32.892 -16.090 -26.712  0.00  0.00    +0.251 C 
ATOM     31  H   UNL     1      34.376 -16.571 -22.637  0.00  0.00    +0.148 HD
ENDBRANCH  20  22
ENDBRANCH  19  20
ENDBRANCH   6  19
TORSDOF 4
ENDMDL
MODEL 8
REMARK VINA RESULT:     -11.1      5.012     11.900
REMARK  Name = 24995524
REMARK  4 active torsions:
REMARK  status: ('A' for Active; 'I' for Inactive)
REMARK    1  A    between atoms: N_5  and  C_13
REMARK    2  A    between atoms: C_6  and  C_19
REMARK    3  A    between atoms: C_19  and  C_20
REMARK    4  A    between atoms: C_20  and  N_22
REMARK                            x       y       z     vdW  Elec       q    Type
REMARK                         _______ _______ _______ _____ _____    ______ ____
ROOT
ATOM      1  S   UNL     1      33.551 -20.156 -20.993  0.00  0.00    -0.056 S 
ATOM      2  O   UNL     1      35.272 -16.746 -23.678  0.00  0.00    -0.252 OA
ATOM      3  N   UNL     1      35.694 -18.826 -21.557  0.00  0.00    -0.223 NA
ATOM      4  N   UNL     1      33.699 -18.238 -22.773  0.00  0.00    -0.248 N 
ATOM      5  N   UNL     1      33.057 -16.721 -24.429  0.00  0.00    -0.268 N 
ATOM      6  C   UNL     1      34.987 -20.551 -20.144  0.00  0.00    +0.031 C 
ATOM      7  C   UNL     1      36.018 -19.742 -20.576  0.00  0.00    +0.103 C 
ATOM      8  C   UNL     1      34.420 -18.953 -21.855  0.00  0.00    +0.166 C 
ATOM      9  C   UNL     1      34.126 -17.180 -23.641  0.00  0.00    +0.310 C 
ATOM     10  H   UNL     1      32.750 -18.487 -22.849  0.00  0.00    +0.158 HD
ATOM     11  H   UNL     1      32.192 -17.170 -24.286  0.00  0.00    +0.156 HD
ENDROOT
BRANCH   5  13
ATOM     12 CL   UNL     1      33.353 -11.705 -25.485  0.00  0.00    -0.082 Cl
ATOM     13  C   UNL     1      33.071 -15.695 -25.402  0.00  0.00    +0.052 C 
ATOM     14  C   UNL     1      33.192 -14.362 -25.009  0.00  0.00    +0.026 C 
ATOM     15  C   UNL     1      32.964 -16.016 -26.756  0.00  0.00    +0.015 C 
ATOM     16  C   UNL     1      33.205 -13.351 -25.970  0.00  0.00    +0.059 C 
ATOM     17  C   UNL     1      32.977 -15.005 -27.716  0.00  0.00    +0.002 C 
ATOM     18  C   UNL     1      33.098 -13.673 -27.323  0.00  0.00    +0.011 C 
ENDBRANCH   5  13
BRANCH   6  19
ATOM     19  C   UNL     1      34.987 -21.642 -19.101  0.00  0.00    +0.056 C 
BRANCH  19  20
ATOM     20  C   UNL     1      34.010 -22.773 -19.417  0.00  0.00    +0.093 C 
BRANCH  20  22
ATOM     21  S   UNL     1      30.453 -22.860 -16.437  0.00  0.00    -0.101 S 
ATOM     22  N   UNL     1      32.955 -22.824 -18.450  0.00  0.00    -0.320 N 
ATOM     23  N   UNL     1      34.375 -23.662 -16.734  0.00  0.00    -0.233 NA
ATOM     24  N   UNL     1      33.567 -24.149 -14.505  0.00  0.00    -0.247 NA
ATOM     25  C   UNL     1      33.149 -23.265 -17.127  0.00  0.00    +0.118 C 
ATOM     26  C   UNL     1      32.098 -23.299 -16.218  0.00  0.00    +0.145 C 
ATOM     27  C   UNL     1      32.336 -23.745 -14.918  0.00  0.00    +0.073 C 
ATOM     28  C   UNL     1      31.153 -23.716 -14.120  0.00  0.00    +0.022 C 
ATOM     29  C   UNL     1      30.062 -23.257 -14.822  0.00  0.00    +0.033 C 
ATOM     30  C   UNL     1      34.508 -24.075 -15.460  0.00  0.00    +0.251 C 
ATOM     31  H   UNL     1      32.053 -22.538 -18.722  0.00  0.00    +0.148 HD
ENDBRANCH  20  22
ENDBRANCH  19  20
ENDBRANCH   6  19
TORSDOF 4
ENDMDL
MODEL 9
REMARK VINA RESULT:     -10.9      5.043     11.972
REMARK  Name = 24995524
REMARK  4 active torsions:
REMARK  status: ('A' for Active; 'I' for Inactive)
REMARK    1  A    between atoms: N_5  and  C_13
REMARK    2  A    between atoms: C_6  and  C_19
REMARK    3  A    between atoms: C_19  and  C_20
REMARK    4  A    between atoms: C_20  and  N_22
REMARK                            x       y       z     vdW  Elec       q    Type
REMARK                         _______ _______ _______ _____ _____    ______ ____
ROOT
ATOM      1  S   UNL     1      33.763 -20.133 -21.109  0.00  0.00    -0.056 S 
ATOM      2  O   UNL     1      35.339 -16.641 -23.778  0.00  0.00    -0.252 OA
ATOM      3  N   UNL     1      35.865 -18.757 -21.716  0.00  0.00    -0.223 NA
ATOM      4  N   UNL     1      33.821 -18.177 -22.852  0.00  0.00    -0.248 N 
ATOM      5  N   UNL     1      33.100 -16.638 -24.454  0.00  0.00    -0.268 N 
ATOM      6  C   UNL     1      35.234 -20.522 -20.316  0.00  0.00    +0.031 C 
ATOM      7  C   UNL     1      36.236 -19.688 -20.765  0.00  0.00    +0.103 C 
ATOM      8  C   UNL     1      34.584 -18.899 -21.974  0.00  0.00    +0.166 C 
ATOM      9  C   UNL     1      34.202 -17.095 -23.712  0.00  0.00    +0.310 C 
ATOM     10  H   UNL     1      32.874 -18.440 -22.901  0.00  0.00    +0.158 HD
ATOM     11  H   UNL     1      32.247 -17.103 -24.291  0.00  0.00    +0.156 HD
ENDROOT
BRANCH   5  13
ATOM     12 CL   UNL     1      33.230 -11.595 -25.410  0.00  0.00    -0.082 Cl
ATOM     13  C   UNL     1      33.065 -15.592 -25.405  0.00  0.00    +0.052 C 
ATOM     14  C   UNL     1      33.155 -14.265 -24.987  0.00  0.00    +0.026 C 
ATOM     15  C   UNL     1      32.941 -15.889 -26.763  0.00  0.00    +0.015 C 
ATOM     16  C   UNL     1      33.120 -13.234 -25.927  0.00  0.00    +0.059 C 
ATOM     17  C   UNL     1      32.905 -14.858 -27.702  0.00  0.00    +0.002 C 
ATOM     18  C   UNL     1      32.995 -13.531 -27.283  0.00  0.00    +0.011 C 
ENDBRANCH   5  13
BRANCH   6  19
ATOM     19  C   UNL     1      35.286 -21.634 -19.297  0.00  0.00    +0.056 C 
BRANCH  19  20
ATOM     20  C   UNL     1      33.925 -22.282 -19.048  0.00  0.00    +0.093 C 
BRANCH  20  22
ATOM     21  S   UNL     1      33.915 -24.086 -14.772  0.00  0.00    -0.101 S 
ATOM     22  N   UNL     1      33.854 -22.831 -17.727  0.00  0.00    -0.320 N 
ATOM     23  N   UNL     1      31.491 -22.588 -17.598  0.00  0.00    -0.233 NA
ATOM     24  N   UNL     1      30.223 -23.251 -15.645  0.00  0.00    -0.247 NA
ATOM     25  C   UNL     1      32.645 -22.977 -17.021  0.00  0.00    +0.118 C 
ATOM     26  C   UNL     1      32.619 -23.515 -15.740  0.00  0.00    +0.145 C 
ATOM     27  C   UNL     1      31.397 -23.639 -15.078  0.00  0.00    +0.073 C 
ATOM     28  C   UNL     1      31.551 -24.207 -13.778  0.00  0.00    +0.022 C 
ATOM     29  C   UNL     1      32.865 -24.496 -13.488  0.00  0.00    +0.033 C 
ATOM     30  C   UNL     1      30.362 -22.747 -16.882  0.00  0.00    +0.251 C 
ATOM     31  H   UNL     1      34.689 -23.119 -17.292  0.00  0.00    +0.148 HD
ENDBRANCH  20  22
ENDBRANCH  19  20
ENDBRANCH   6  19
TORSDOF 4
ENDMDL
