MODEL 1
REMARK VINA RESULT:     -11.2      0.000      0.000
REMARK  Name = 24963036
REMARK  7 active torsions:
REMARK  status: ('A' for Active; 'I' for Inactive)
REMARK    1  A    between atoms: N_2  and  C_20
REMARK    2  A    between atoms: C_3  and  C_7
REMARK    3  A    between atoms: C_11  and  C_12
REMARK    4  A    between atoms: C_12  and  O_13
REMARK    5  A    between atoms: O_13  and  C_14
REMARK    6  A    between atoms: C_20  and  C_21
REMARK    7  A    between atoms: C_26  and  C_29
REMARK                            x       y       z     vdW  Elec       q    Type
REMARK                         _______ _______ _______ _____ _____    ______ ____
ROOT
ATOM      1  O   UNL     1      32.553 -19.478 -22.724  0.00  0.00    -0.273 OA
ATOM      2  N   UNL     1      34.769 -19.241 -23.400  0.00  0.00    -0.299 N 
ATOM      3  C   UNL     1      33.735 -19.248 -22.479  0.00  0.00    +0.241 C 
ATOM      4  H   UNL     1      35.678 -19.041 -23.081  0.00  0.00    +0.150 HD
ENDROOT
BRANCH   3   7
ATOM      5  O   UNL     1      32.037 -20.526 -20.051  0.00  0.00    -0.272 OA
ATOM      6  N   UNL     1      34.308 -20.238 -20.393  0.00  0.00    -0.271 N 
ATOM      7  C   UNL     1      34.212 -18.961 -21.087  0.00  0.00    +0.152 C 
ATOM      8  C   UNL     1      35.632 -18.407 -21.078  0.00  0.00    +0.031 C 
ATOM      9  C   UNL     1      36.502 -19.662 -21.059  0.00  0.00    +0.024 C 
ATOM     10  C   UNL     1      35.702 -20.628 -20.199  0.00  0.00    +0.094 C 
ATOM     11  C   UNL     1      33.202 -20.885 -19.865  0.00  0.00    +0.256 C 
BRANCH  11  12
ATOM     12  C   UNL     1      33.498 -22.103 -19.028  0.00  0.00    +0.227 C 
BRANCH  12  13
ATOM     13  O   UNL     1      32.307 -22.429 -18.354  0.00  0.00    -0.347 OA
BRANCH  13  14
ATOM     14  C   UNL     1      32.533 -23.320 -17.268  0.00  0.00    +0.116 C 
ATOM     15  C   UNL     1      33.931 -23.086 -16.696  0.00  0.00    +0.030 C 
ATOM     16  C   UNL     1      31.452 -23.120 -16.208  0.00  0.00    +0.030 C 
ATOM     17  C   UNL     1      34.187 -23.951 -15.466  0.00  0.00    +0.002 C 
ATOM     18  C   UNL     1      31.706 -23.986 -14.977  0.00  0.00    +0.002 C 
ATOM     19  C   UNL     1      33.103 -23.754 -14.407  0.00  0.00    +0.000 C 
ENDBRANCH  13  14
ENDBRANCH  12  13
ENDBRANCH  11  12
ENDBRANCH   3   7
BRANCH   2  20
ATOM     20  C   UNL     1      34.576 -19.511 -24.806  0.00  0.00    +0.116 C 
BRANCH  20  21
ATOM     21  C   UNL     1      33.807 -18.417 -25.489  0.00  0.00    -0.003 C 
ATOM     22  C   UNL     1      32.557 -18.687 -26.045  0.00  0.00    -0.003 C 
ATOM     23  C   UNL     1      34.344 -17.132 -25.568  0.00  0.00    -0.003 C 
ATOM     24  C   UNL     1      31.842 -17.670 -26.680  0.00  0.00    +0.002 C 
ATOM     25  C   UNL     1      33.630 -16.116 -26.203  0.00  0.00    +0.002 C 
ATOM     26  C   UNL     1      32.379 -16.385 -26.759  0.00  0.00    +0.031 C 
BRANCH  26  29
ATOM     27  N   UNL     1      30.300 -15.496 -27.784  0.00  0.00    -0.343 N 
ATOM     28  N   UNL     1      32.226 -14.176 -27.694  0.00  0.00    -0.285 NA
ATOM     29  C   UNL     1      31.635 -15.326 -27.422  0.00  0.00    +0.117 C 
ATOM     30  H   UNL     1      29.814 -14.765 -28.232  0.00  0.00    +0.144 HD
ATOM     31  H   UNL     1      29.843 -16.347 -27.593  0.00  0.00    +0.144 HD
ATOM     32  H   UNL     1      31.724 -13.458 -28.141  0.00  0.00    +0.188 HD
ENDBRANCH  26  29
ENDBRANCH  20  21
ENDBRANCH   2  20
TORSDOF 7
ENDMDL
MODEL 2
REMARK VINA RESULT:     -11.2      3.918     10.542
REMARK  Name = 24963036
REMARK  7 active torsions:
REMARK  status: ('A' for Active; 'I' for Inactive)
REMARK    1  A    between atoms: N_2  and  C_20
REMARK    2  A    between atoms: C_3  and  C_7
REMARK    3  A    between atoms: C_11  and  C_12
REMARK    4  A    between atoms: C_12  and  O_13
REMARK    5  A    between atoms: O_13  and  C_14
REMARK    6  A    between atoms: C_20  and  C_21
REMARK    7  A    between atoms: C_26  and  C_29
REMARK                            x       y       z     vdW  Elec       q    Type
REMARK                         _______ _______ _______ _____ _____    ______ ____
ROOT
ATOM      1  O   UNL     1      34.659 -17.142 -26.002  0.00  0.00    -0.273 OA
ATOM      2  N   UNL     1      33.912 -17.415 -23.814  0.00  0.00    -0.299 N 
ATOM      3  C   UNL     1      33.805 -17.002 -25.130  0.00  0.00    +0.241 C 
ATOM      4  H   UNL     1      33.156 -17.246 -23.207  0.00  0.00    +0.150 HD
ENDROOT
BRANCH   3   7
ATOM      5  O   UNL     1      33.526 -13.855 -24.476  0.00  0.00    -0.272 OA
ATOM      6  N   UNL     1      32.745 -15.168 -26.214  0.00  0.00    -0.271 N 
ATOM      7  C   UNL     1      32.481 -16.359 -25.418  0.00  0.00    +0.152 C 
ATOM      8  C   UNL     1      31.608 -17.236 -26.309  0.00  0.00    +0.031 C 
ATOM      9  C   UNL     1      32.042 -16.849 -27.721  0.00  0.00    +0.024 C 
ATOM     10  C   UNL     1      32.331 -15.360 -27.602  0.00  0.00    +0.094 C 
ATOM     11  C   UNL     1      33.184 -13.979 -25.654  0.00  0.00    +0.256 C 
BRANCH  11  12
ATOM     12  C   UNL     1      33.238 -12.799 -26.591  0.00  0.00    +0.227 C 
BRANCH  12  13
ATOM     13  O   UNL     1      32.414 -11.804 -26.033  0.00  0.00    -0.347 OA
BRANCH  13  14
ATOM     14  C   UNL     1      33.132 -10.608 -25.757  0.00  0.00    +0.116 C 
ATOM     15  C   UNL     1      33.017 -10.272 -24.271  0.00  0.00    +0.030 C 
ATOM     16  C   UNL     1      34.590 -10.774 -26.185  0.00  0.00    +0.030 C 
ATOM     17  C   UNL     1      33.852  -9.049 -23.904  0.00  0.00    +0.002 C 
ATOM     18  C   UNL     1      35.425  -9.550 -25.820  0.00  0.00    +0.002 C 
ATOM     19  C   UNL     1      35.308  -9.213 -24.335  0.00  0.00    +0.000 C 
ENDBRANCH  13  14
ENDBRANCH  12  13
ENDBRANCH  11  12
ENDBRANCH   3   7
BRANCH   2  20
ATOM     20  C   UNL     1      35.081 -18.083 -23.288  0.00  0.00    +0.116 C 
BRANCH  20  21
ATOM     21  C   UNL     1      34.731 -19.046 -22.190  0.00  0.00    -0.003 C 
ATOM     22  C   UNL     1      35.742 -19.628 -21.426  0.00  0.00    -0.003 C 
ATOM     23  C   UNL     1      33.396 -19.360 -21.936  0.00  0.00    -0.003 C 
ATOM     24  C   UNL     1      35.418 -20.524 -20.406  0.00  0.00    +0.002 C 
ATOM     25  C   UNL     1      33.072 -20.255 -20.917  0.00  0.00    +0.002 C 
ATOM     26  C   UNL     1      34.082 -20.837 -20.152  0.00  0.00    +0.031 C 
BRANCH  26  29
ATOM     27  N   UNL     1      32.418 -22.023 -18.741  0.00  0.00    -0.343 N 
ATOM     28  N   UNL     1      34.704 -22.396 -18.433  0.00  0.00    -0.285 NA
ATOM     29  C   UNL     1      33.744 -21.771 -19.090  0.00  0.00    +0.117 C 
ATOM     30  H   UNL     1      32.212 -22.660 -18.019  0.00  0.00    +0.144 HD
ATOM     31  H   UNL     1      31.688 -21.564 -19.217  0.00  0.00    +0.144 HD
ATOM     32  H   UNL     1      34.478 -23.029 -17.714  0.00  0.00    +0.188 HD
ENDBRANCH  26  29
ENDBRANCH  20  21
ENDBRANCH   2  20
TORSDOF 7
ENDMDL
MODEL 3
REMARK VINA RESULT:     -11.0      4.480      9.566
REMARK  Name = 24963036
REMARK  7 active torsions:
REMARK  status: ('A' for Active; 'I' for Inactive)
REMARK    1  A    between atoms: N_2  and  C_20
REMARK    2  A    between atoms: C_3  and  C_7
REMARK    3  A    between atoms: C_11  and  C_12
REMARK    4  A    between atoms: C_12  and  O_13
REMARK    5  A    between atoms: O_13  and  C_14
REMARK    6  A    between atoms: C_20  and  C_21
REMARK    7  A    between atoms: C_26  and  C_29
REMARK                            x       y       z     vdW  Elec       q    Type
REMARK                         _______ _______ _______ _____ _____    ______ ____
ROOT
ATOM      1  O   UNL     1      34.947 -16.843 -25.900  0.00  0.00    -0.273 OA
ATOM      2  N   UNL     1      34.253 -17.101 -23.693  0.00  0.00    -0.299 N 
ATOM      3  C   UNL     1      34.137 -16.651 -24.996  0.00  0.00    +0.241 C 
ATOM      4  H   UNL     1      33.534 -16.883 -23.056  0.00  0.00    +0.150 HD
ENDROOT
BRANCH   3   7
ATOM      5  O   UNL     1      33.348 -14.411 -22.812  0.00  0.00    -0.272 OA
ATOM      6  N   UNL     1      33.182 -14.475 -25.120  0.00  0.00    -0.271 N 
ATOM      7  C   UNL     1      32.864 -15.893 -25.225  0.00  0.00    +0.152 C 
ATOM      8  C   UNL     1      32.348 -16.070 -26.648  0.00  0.00    +0.031 C 
ATOM      9  C   UNL     1      33.075 -14.976 -27.427  0.00  0.00    +0.024 C 
ATOM     10  C   UNL     1      33.154 -13.830 -26.430  0.00  0.00    +0.094 C 
ATOM     11  C   UNL     1      33.329 -13.833 -23.900  0.00  0.00    +0.256 C 
BRANCH  11  12
ATOM     12  C   UNL     1      33.482 -12.334 -23.969  0.00  0.00    +0.227 C 
BRANCH  12  13
ATOM     13  O   UNL     1      32.236 -11.786 -23.614  0.00  0.00    -0.347 OA
BRANCH  13  14
ATOM     14  C   UNL     1      32.274 -11.150 -22.342  0.00  0.00    +0.116 C 
ATOM     15  C   UNL     1      31.704  -9.737 -22.458  0.00  0.00    +0.030 C 
ATOM     16  C   UNL     1      31.499 -11.987 -21.326  0.00  0.00    +0.030 C 
ATOM     17  C   UNL     1      31.632  -9.046 -21.100  0.00  0.00    +0.002 C 
ATOM     18  C   UNL     1      31.428 -11.297 -19.967  0.00  0.00    +0.002 C 
ATOM     19  C   UNL     1      30.860  -9.885 -20.084  0.00  0.00    +0.000 C 
ENDBRANCH  13  14
ENDBRANCH  12  13
ENDBRANCH  11  12
ENDBRANCH   3   7
BRANCH   2  20
ATOM     20  C   UNL     1      35.377 -17.877 -23.221  0.00  0.00    +0.116 C 
BRANCH  20  21
ATOM     21  C   UNL     1      34.973 -18.872 -22.173  0.00  0.00    -0.003 C 
ATOM     22  C   UNL     1      35.945 -19.488 -21.385  0.00  0.00    -0.003 C 
ATOM     23  C   UNL     1      33.626 -19.183 -21.987  0.00  0.00    -0.003 C 
ATOM     24  C   UNL     1      35.570 -20.414 -20.410  0.00  0.00    +0.002 C 
ATOM     25  C   UNL     1      33.251 -20.108 -21.014  0.00  0.00    +0.002 C 
ATOM     26  C   UNL     1      34.222 -20.724 -20.226  0.00  0.00    +0.031 C 
BRANCH  26  29
ATOM     27  N   UNL     1      32.490 -21.973 -18.958  0.00  0.00    -0.343 N 
ATOM     28  N   UNL     1      34.757 -22.314 -18.505  0.00  0.00    -0.285 NA
ATOM     29  C   UNL     1      33.831 -21.689 -19.211  0.00  0.00    +0.117 C 
ATOM     30  H   UNL     1      32.248 -22.631 -18.267  0.00  0.00    +0.144 HD
ATOM     31  H   UNL     1      31.785 -21.516 -19.472  0.00  0.00    +0.144 HD
ATOM     32  H   UNL     1      34.495 -22.968 -17.818  0.00  0.00    +0.188 HD
ENDBRANCH  26  29
ENDBRANCH  20  21
ENDBRANCH   2  20
TORSDOF 7
ENDMDL
MODEL 4
REMARK VINA RESULT:     -10.6      2.400     10.228
REMARK  Name = 24963036
REMARK  7 active torsions:
REMARK  status: ('A' for Active; 'I' for Inactive)
REMARK    1  A    between atoms: N_2  and  C_20
REMARK    2  A    between atoms: C_3  and  C_7
REMARK    3  A    between atoms: C_11  and  C_12
REMARK    4  A    between atoms: C_12  and  O_13
REMARK    5  A    between atoms: O_13  and  C_14
REMARK    6  A    between atoms: C_20  and  C_21
REMARK    7  A    between atoms: C_26  and  C_29
REMARK                            x       y       z     vdW  Elec       q    Type
REMARK                         _______ _______ _______ _____ _____    ______ ____
ROOT
ATOM      1  O   UNL     1      32.703 -19.526 -21.764  0.00  0.00    -0.273 OA
ATOM      2  N   UNL     1      34.075 -20.805 -20.386  0.00  0.00    -0.299 N 
ATOM      3  C   UNL     1      33.813 -19.840 -21.343  0.00  0.00    +0.241 C 
ATOM      4  H   UNL     1      35.011 -20.967 -20.128  0.00  0.00    +0.150 HD
ENDROOT
BRANCH   3   7
ATOM      5  O   UNL     1      34.477 -20.048 -24.493  0.00  0.00    -0.272 OA
ATOM      6  N   UNL     1      34.688 -18.329 -22.958  0.00  0.00    -0.271 N 
ATOM      7  C   UNL     1      35.061 -19.163 -21.824  0.00  0.00    +0.152 C 
ATOM      8  C   UNL     1      35.610 -18.187 -20.789  0.00  0.00    +0.031 C 
ATOM      9  C   UNL     1      34.857 -16.892 -21.089  0.00  0.00    +0.024 C 
ATOM     10  C   UNL     1      34.717 -16.912 -22.603  0.00  0.00    +0.094 C 
ATOM     11  C   UNL     1      34.495 -18.844 -24.231  0.00  0.00    +0.256 C 
BRANCH  11  12
ATOM     12  C   UNL     1      34.288 -17.824 -25.321  0.00  0.00    +0.227 C 
BRANCH  12  13
ATOM     13  O   UNL     1      32.935 -17.906 -25.698  0.00  0.00    -0.347 OA
BRANCH  13  14
ATOM     14  C   UNL     1      32.376 -16.626 -25.965  0.00  0.00    +0.116 C 
ATOM     15  C   UNL     1      33.471 -15.562 -25.893  0.00  0.00    +0.030 C 
ATOM     16  C   UNL     1      31.694 -16.639 -27.332  0.00  0.00    +0.030 C 
ATOM     17  C   UNL     1      32.940 -14.182 -26.268  0.00  0.00    +0.002 C 
ATOM     18  C   UNL     1      31.162 -15.259 -27.708  0.00  0.00    +0.002 C 
ATOM     19  C   UNL     1      32.256 -14.196 -27.633  0.00  0.00    +0.000 C 
ENDBRANCH  13  14
ENDBRANCH  12  13
ENDBRANCH  11  12
ENDBRANCH   3   7
BRANCH   2  20
ATOM     20  C   UNL     1      33.041 -21.586 -19.746  0.00  0.00    +0.116 C 
BRANCH  20  21
ATOM     21  C   UNL     1      33.518 -22.210 -18.467  0.00  0.00    -0.003 C 
ATOM     22  C   UNL     1      34.845 -22.052 -18.067  0.00  0.00    -0.003 C 
ATOM     23  C   UNL     1      32.635 -22.948 -17.679  0.00  0.00    -0.003 C 
ATOM     24  C   UNL     1      35.289 -22.633 -16.879  0.00  0.00    +0.002 C 
ATOM     25  C   UNL     1      33.079 -23.529 -16.491  0.00  0.00    +0.002 C 
ATOM     26  C   UNL     1      34.406 -23.371 -16.091  0.00  0.00    +0.031 C 
BRANCH  26  29
ATOM     27  N   UNL     1      35.166 -25.336 -14.778  0.00  0.00    -0.343 N 
ATOM     28  N   UNL     1      35.011 -23.234 -13.770  0.00  0.00    -0.285 NA
ATOM     29  C   UNL     1      34.869 -23.977 -14.853  0.00  0.00    +0.117 C 
ATOM     30  H   UNL     1      35.479 -25.726 -13.929  0.00  0.00    +0.144 HD
ATOM     31  H   UNL     1      35.063 -25.907 -15.573  0.00  0.00    +0.144 HD
ATOM     32  H   UNL     1      35.325 -23.642 -12.931  0.00  0.00    +0.188 HD
ENDBRANCH  26  29
ENDBRANCH  20  21
ENDBRANCH   2  20
TORSDOF 7
ENDMDL
MODEL 5
REMARK VINA RESULT:     -10.6      5.115      9.799
REMARK  Name = 24963036
REMARK  7 active torsions:
REMARK  status: ('A' for Active; 'I' for Inactive)
REMARK    1  A    between atoms: N_2  and  C_20
REMARK    2  A    between atoms: C_3  and  C_7
REMARK    3  A    between atoms: C_11  and  C_12
REMARK    4  A    between atoms: C_12  and  O_13
REMARK    5  A    between atoms: O_13  and  C_14
REMARK    6  A    between atoms: C_20  and  C_21
REMARK    7  A    between atoms: C_26  and  C_29
REMARK                            x       y       z     vdW  Elec       q    Type
REMARK                         _______ _______ _______ _____ _____    ______ ____
ROOT
ATOM      1  O   UNL     1      36.417 -20.520 -19.113  0.00  0.00    -0.273 OA
ATOM      2  N   UNL     1      35.933 -22.316 -17.714  0.00  0.00    -0.299 N 
ATOM      3  C   UNL     1      35.764 -21.522 -18.835  0.00  0.00    +0.241 C 
ATOM      4  H   UNL     1      35.346 -23.098 -17.601  0.00  0.00    +0.150 HD
ENDROOT
BRANCH   3   7
ATOM      5  O   UNL     1      33.789 -23.768 -17.625  0.00  0.00    -0.272 OA
ATOM      6  N   UNL     1      33.427 -21.938 -18.995  0.00  0.00    -0.271 N 
ATOM      7  C   UNL     1      34.678 -22.033 -19.734  0.00  0.00    +0.152 C 
ATOM      8  C   UNL     1      34.479 -21.134 -20.949  0.00  0.00    +0.031 C 
ATOM      9  C   UNL     1      33.495 -20.077 -20.451  0.00  0.00    +0.024 C 
ATOM     10  C   UNL     1      32.589 -20.859 -19.512  0.00  0.00    +0.094 C 
ATOM     11  C   UNL     1      33.054 -22.870 -18.039  0.00  0.00    +0.256 C 
BRANCH  11  12
ATOM     12  C   UNL     1      31.654 -22.722 -17.497  0.00  0.00    +0.227 C 
BRANCH  12  13
ATOM     13  O   UNL     1      31.780 -22.485 -16.117  0.00  0.00    -0.347 OA
BRANCH  13  14
ATOM     14  C   UNL     1      30.707 -23.056 -15.376  0.00  0.00    +0.116 C 
ATOM     15  C   UNL     1      29.545 -23.371 -16.318  0.00  0.00    +0.030 C 
ATOM     16  C   UNL     1      31.194 -24.307 -14.648  0.00  0.00    +0.030 C 
ATOM     17  C   UNL     1      28.404 -24.074 -15.588  0.00  0.00    +0.002 C 
ATOM     18  C   UNL     1      30.055 -25.011 -13.917  0.00  0.00    +0.002 C 
ATOM     19  C   UNL     1      28.893 -25.323 -14.857  0.00  0.00    +0.000 C 
ENDBRANCH  13  14
ENDBRANCH  12  13
ENDBRANCH  11  12
ENDBRANCH   3   7
BRANCH   2  20
ATOM     20  C   UNL     1      36.931 -22.053 -16.702  0.00  0.00    +0.116 C 
BRANCH  20  21
ATOM     21  C   UNL     1      36.699 -22.863 -15.460  0.00  0.00    -0.003 C 
ATOM     22  C   UNL     1      37.690 -23.730 -14.999  0.00  0.00    -0.003 C 
ATOM     23  C   UNL     1      35.493 -22.752 -14.769  0.00  0.00    -0.003 C 
ATOM     24  C   UNL     1      37.474 -24.485 -13.845  0.00  0.00    +0.002 C 
ATOM     25  C   UNL     1      35.277 -23.506 -13.616  0.00  0.00    +0.002 C 
ATOM     26  C   UNL     1      36.267 -24.372 -13.154  0.00  0.00    +0.031 C 
BRANCH  26  29
ATOM     27  N   UNL     1      35.326 -24.646 -10.873  0.00  0.00    -0.343 N 
ATOM     28  N   UNL     1      36.526 -26.386 -11.868  0.00  0.00    -0.285 NA
ATOM     29  C   UNL     1      36.043 -25.159 -11.952  0.00  0.00    +0.117 C 
ATOM     30  H   UNL     1      35.185 -25.196 -10.068  0.00  0.00    +0.144 HD
ATOM     31  H   UNL     1      34.961 -23.732 -10.914  0.00  0.00    +0.144 HD
ATOM     32  H   UNL     1      36.374 -26.921 -11.056  0.00  0.00    +0.188 HD
ENDBRANCH  26  29
ENDBRANCH  20  21
ENDBRANCH   2  20
TORSDOF 7
ENDMDL
MODEL 6
REMARK VINA RESULT:     -10.6      4.013      6.705
REMARK  Name = 24963036
REMARK  7 active torsions:
REMARK  status: ('A' for Active; 'I' for Inactive)
REMARK    1  A    between atoms: N_2  and  C_20
REMARK    2  A    between atoms: C_3  and  C_7
REMARK    3  A    between atoms: C_11  and  C_12
REMARK    4  A    between atoms: C_12  and  O_13
REMARK    5  A    between atoms: O_13  and  C_14
REMARK    6  A    between atoms: C_20  and  C_21
REMARK    7  A    between atoms: C_26  and  C_29
REMARK                            x       y       z     vdW  Elec       q    Type
REMARK                         _______ _______ _______ _____ _____    ______ ____
ROOT
ATOM      1  O   UNL     1      30.618 -22.415 -16.749  0.00  0.00    -0.273 OA
ATOM      2  N   UNL     1      32.398 -22.533 -18.245  0.00  0.00    -0.299 N 
ATOM      3  C   UNL     1      31.689 -22.895 -17.113  0.00  0.00    +0.241 C 
ATOM      4  H   UNL     1      33.248 -22.993 -18.432  0.00  0.00    +0.150 HD
ENDROOT
BRANCH   3   7
ATOM      5  O   UNL     1      34.910 -23.015 -17.244  0.00  0.00    -0.272 OA
ATOM      6  N   UNL     1      33.398 -23.377 -15.529  0.00  0.00    -0.271 N 
ATOM      7  C   UNL     1      32.363 -23.994 -16.348  0.00  0.00    +0.152 C 
ATOM      8  C   UNL     1      31.417 -24.649 -15.348  0.00  0.00    +0.031 C 
ATOM      9  C   UNL     1      31.554 -23.774 -14.104  0.00  0.00    +0.024 C 
ATOM     10  C   UNL     1      33.022 -23.374 -14.118  0.00  0.00    +0.094 C 
ATOM     11  C   UNL     1      34.629 -23.000 -16.044  0.00  0.00    +0.256 C 
BRANCH  11  12
ATOM     12  C   UNL     1      35.645 -22.541 -15.029  0.00  0.00    +0.227 C 
BRANCH  12  13
ATOM     13  O   UNL     1      36.884 -23.068 -15.433  0.00  0.00    -0.347 OA
BRANCH  13  14
ATOM     14  C   UNL     1      37.397 -24.008 -14.497  0.00  0.00    +0.116 C 
ATOM     15  C   UNL     1      36.982 -23.603 -13.083  0.00  0.00    +0.030 C 
ATOM     16  C   UNL     1      36.897 -25.408 -14.850  0.00  0.00    +0.030 C 
ATOM     17  C   UNL     1      37.425 -24.634 -12.049  0.00  0.00    +0.002 C 
ATOM     18  C   UNL     1      37.341 -26.440 -13.817  0.00  0.00    +0.002 C 
ATOM     19  C   UNL     1      36.928 -26.034 -12.405  0.00  0.00    +0.000 C 
ENDBRANCH  13  14
ENDBRANCH  12  13
ENDBRANCH  11  12
ENDBRANCH   3   7
BRANCH   2  20
ATOM     20  C   UNL     1      31.950 -21.513 -19.166  0.00  0.00    +0.116 C 
BRANCH  20  21
ATOM     21  C   UNL     1      33.099 -20.844 -19.864  0.00  0.00    -0.003 C 
ATOM     22  C   UNL     1      34.407 -21.252 -19.603  0.00  0.00    -0.003 C 
ATOM     23  C   UNL     1      32.858 -19.812 -20.772  0.00  0.00    -0.003 C 
ATOM     24  C   UNL     1      35.475 -20.630 -20.251  0.00  0.00    +0.002 C 
ATOM     25  C   UNL     1      33.925 -19.190 -21.419  0.00  0.00    +0.002 C 
ATOM     26  C   UNL     1      35.233 -19.599 -21.159  0.00  0.00    +0.031 C 
BRANCH  26  29
ATOM     27  N   UNL     1      36.150 -18.177 -22.977  0.00  0.00    -0.343 N 
ATOM     28  N   UNL     1      37.573 -19.091 -21.365  0.00  0.00    -0.285 NA
ATOM     29  C   UNL     1      36.346 -18.950 -21.833  0.00  0.00    +0.117 C 
ATOM     30  H   UNL     1      36.918 -17.746 -23.417  0.00  0.00    +0.144 HD
ATOM     31  H   UNL     1      35.243 -18.062 -23.343  0.00  0.00    +0.144 HD
ATOM     32  H   UNL     1      38.327 -18.652 -21.819  0.00  0.00    +0.188 HD
ENDBRANCH  26  29
ENDBRANCH  20  21
ENDBRANCH   2  20
TORSDOF 7
ENDMDL
MODEL 7
REMARK VINA RESULT:     -10.6      3.297     10.315
REMARK  Name = 24963036
REMARK  7 active torsions:
REMARK  status: ('A' for Active; 'I' for Inactive)
REMARK    1  A    between atoms: N_2  and  C_20
REMARK    2  A    between atoms: C_3  and  C_7
REMARK    3  A    between atoms: C_11  and  C_12
REMARK    4  A    between atoms: C_12  and  O_13
REMARK    5  A    between atoms: O_13  and  C_14
REMARK    6  A    between atoms: C_20  and  C_21
REMARK    7  A    between atoms: C_26  and  C_29
REMARK                            x       y       z     vdW  Elec       q    Type
REMARK                         _______ _______ _______ _____ _____    ______ ____
ROOT
ATOM      1  O   UNL     1      36.470 -18.526 -21.468  0.00  0.00    -0.273 OA
ATOM      2  N   UNL     1      35.177 -20.142 -20.402  0.00  0.00    -0.299 N 
ATOM      3  C   UNL     1      35.386 -19.050 -21.227  0.00  0.00    +0.241 C 
ATOM      4  H   UNL     1      34.258 -20.473 -20.286  0.00  0.00    +0.150 HD
ENDROOT
BRANCH   3   7
ATOM      5  O   UNL     1      34.575 -15.977 -20.675  0.00  0.00    -0.272 OA
ATOM      6  N   UNL     1      34.430 -17.322 -22.553  0.00  0.00    -0.271 N 
ATOM      7  C   UNL     1      34.114 -18.558 -21.849  0.00  0.00    +0.152 C 
ATOM      8  C   UNL     1      33.610 -19.503 -22.933  0.00  0.00    +0.031 C 
ATOM      9  C   UNL     1      34.343 -19.028 -24.186  0.00  0.00    +0.024 C 
ATOM     10  C   UNL     1      34.413 -17.520 -24.000  0.00  0.00    +0.094 C 
ATOM     11  C   UNL     1      34.565 -16.106 -21.900  0.00  0.00    +0.256 C 
BRANCH  11  12
ATOM     12  C   UNL     1      34.717 -14.902 -22.794  0.00  0.00    +0.227 C 
BRANCH  12  13
ATOM     13  O   UNL     1      33.657 -14.032 -22.481  0.00  0.00    -0.347 OA
BRANCH  13  14
ATOM     14  C   UNL     1      33.127 -13.395 -23.639  0.00  0.00    +0.116 C 
ATOM     15  C   UNL     1      33.852 -12.070 -23.872  0.00  0.00    +0.030 C 
ATOM     16  C   UNL     1      33.259 -14.327 -24.842  0.00  0.00    +0.030 C 
ATOM     17  C   UNL     1      33.388 -11.394 -25.158  0.00  0.00    +0.002 C 
ATOM     18  C   UNL     1      32.793 -13.652 -26.129  0.00  0.00    +0.002 C 
ATOM     19  C   UNL     1      33.516 -12.327 -26.360  0.00  0.00    +0.000 C 
ENDBRANCH  13  14
ENDBRANCH  12  13
ENDBRANCH  11  12
ENDBRANCH   3   7
BRANCH   2  20
ATOM     20  C   UNL     1      36.245 -20.818 -19.701  0.00  0.00    +0.116 C 
BRANCH  20  21
ATOM     21  C   UNL     1      35.737 -21.603 -18.526  0.00  0.00    -0.003 C 
ATOM     22  C   UNL     1      34.452 -22.145 -18.554  0.00  0.00    -0.003 C 
ATOM     23  C   UNL     1      36.548 -21.787 -17.407  0.00  0.00    -0.003 C 
ATOM     24  C   UNL     1      33.979 -22.874 -17.461  0.00  0.00    +0.002 C 
ATOM     25  C   UNL     1      36.076 -22.516 -16.315  0.00  0.00    +0.002 C 
ATOM     26  C   UNL     1      34.791 -23.058 -16.342  0.00  0.00    +0.031 C 
BRANCH  26  29
ATOM     27  N   UNL     1      34.804 -25.079 -14.900  0.00  0.00    -0.343 N 
ATOM     28  N   UNL     1      33.348 -23.312 -14.437  0.00  0.00    -0.285 NA
ATOM     29  C   UNL     1      34.298 -23.817 -15.204  0.00  0.00    +0.117 C 
ATOM     30  H   UNL     1      34.456 -25.576 -14.123  0.00  0.00    +0.144 HD
ATOM     31  H   UNL     1      35.510 -25.475 -15.461  0.00  0.00    +0.144 HD
ATOM     32  H   UNL     1      33.014 -23.823 -13.666  0.00  0.00    +0.188 HD
ENDBRANCH  26  29
ENDBRANCH  20  21
ENDBRANCH   2  20
TORSDOF 7
ENDMDL
MODEL 8
REMARK VINA RESULT:     -10.5      2.818      4.417
REMARK  Name = 24963036
REMARK  7 active torsions:
REMARK  status: ('A' for Active; 'I' for Inactive)
REMARK    1  A    between atoms: N_2  and  C_20
REMARK    2  A    between atoms: C_3  and  C_7
REMARK    3  A    between atoms: C_11  and  C_12
REMARK    4  A    between atoms: C_12  and  O_13
REMARK    5  A    between atoms: O_13  and  C_14
REMARK    6  A    between atoms: C_20  and  C_21
REMARK    7  A    between atoms: C_26  and  C_29
REMARK                            x       y       z     vdW  Elec       q    Type
REMARK                         _______ _______ _______ _____ _____    ______ ____
ROOT
ATOM      1  O   UNL     1      36.611 -20.428 -18.361  0.00  0.00    -0.273 OA
ATOM      2  N   UNL     1      35.514 -20.300 -20.410  0.00  0.00    -0.299 N 
ATOM      3  C   UNL     1      35.891 -20.915 -19.229  0.00  0.00    +0.241 C 
ATOM      4  H   UNL     1      34.930 -20.793 -21.030  0.00  0.00    +0.150 HD
ENDROOT
BRANCH   3   7
ATOM      5  O   UNL     1      36.899 -22.704 -16.741  0.00  0.00    -0.272 OA
ATOM      6  N   UNL     1      34.820 -22.403 -17.712  0.00  0.00    -0.271 N 
ATOM      7  C   UNL     1      35.293 -22.282 -19.085  0.00  0.00    +0.152 C 
ATOM      8  C   UNL     1      34.043 -22.446 -19.942  0.00  0.00    +0.031 C 
ATOM      9  C   UNL     1      32.925 -21.922 -19.042  0.00  0.00    +0.024 C 
ATOM     10  C   UNL     1      33.361 -22.361 -17.652  0.00  0.00    +0.094 C 
ATOM     11  C   UNL     1      35.670 -22.678 -16.653  0.00  0.00    +0.256 C 
BRANCH  11  12
ATOM     12  C   UNL     1      34.996 -22.944 -15.331  0.00  0.00    +0.227 C 
BRANCH  12  13
ATOM     13  O   UNL     1      35.015 -24.338 -15.142  0.00  0.00    -0.347 OA
BRANCH  13  14
ATOM     14  C   UNL     1      35.730 -24.709 -13.969  0.00  0.00    +0.116 C 
ATOM     15  C   UNL     1      37.116 -25.224 -14.355  0.00  0.00    +0.030 C 
ATOM     16  C   UNL     1      35.818 -23.514 -13.022  0.00  0.00    +0.030 C 
ATOM     17  C   UNL     1      37.959 -25.545 -13.125  0.00  0.00    +0.002 C 
ATOM     18  C   UNL     1      36.661 -23.834 -11.791  0.00  0.00    +0.002 C 
ATOM     19  C   UNL     1      38.044 -24.351 -12.177  0.00  0.00    +0.000 C 
ENDBRANCH  13  14
ENDBRANCH  12  13
ENDBRANCH  11  12
ENDBRANCH   3   7
BRANCH   2  20
ATOM     20  C   UNL     1      35.938 -18.967 -20.778  0.00  0.00    +0.116 C 
BRANCH  20  21
ATOM     21  C   UNL     1      35.253 -18.483 -22.023  0.00  0.00    -0.003 C 
ATOM     22  C   UNL     1      35.156 -17.115 -22.278  0.00  0.00    -0.003 C 
ATOM     23  C   UNL     1      34.712 -19.401 -22.923  0.00  0.00    -0.003 C 
ATOM     24  C   UNL     1      34.518 -16.665 -23.435  0.00  0.00    +0.002 C 
ATOM     25  C   UNL     1      34.075 -18.951 -24.079  0.00  0.00    +0.002 C 
ATOM     26  C   UNL     1      33.978 -17.584 -24.335  0.00  0.00    +0.031 C 
BRANCH  26  29
ATOM     27  N   UNL     1      31.923 -17.071 -25.631  0.00  0.00    -0.343 N 
ATOM     28  N   UNL     1      34.030 -16.721 -26.578  0.00  0.00    -0.285 NA
ATOM     29  C   UNL     1      33.313 -17.114 -25.540  0.00  0.00    +0.117 C 
ATOM     30  H   UNL     1      31.493 -16.749 -26.457  0.00  0.00    +0.144 HD
ATOM     31  H   UNL     1      31.370 -17.363 -24.870  0.00  0.00    +0.144 HD
ATOM     32  H   UNL     1      33.582 -16.403 -27.394  0.00  0.00    +0.188 HD
ENDBRANCH  26  29
ENDBRANCH  20  21
ENDBRANCH   2  20
TORSDOF 7
ENDMDL
MODEL 9
REMARK VINA RESULT:     -10.5      5.012      9.734
REMARK  Name = 24963036
REMARK  7 active torsions:
REMARK  status: ('A' for Active; 'I' for Inactive)
REMARK    1  A    between atoms: N_2  and  C_20
REMARK    2  A    between atoms: C_3  and  C_7
REMARK    3  A    between atoms: C_11  and  C_12
REMARK    4  A    between atoms: C_12  and  O_13
REMARK    5  A    between atoms: O_13  and  C_14
REMARK    6  A    between atoms: C_20  and  C_21
REMARK    7  A    between atoms: C_26  and  C_29
REMARK                            x       y       z     vdW  Elec       q    Type
REMARK                         _______ _______ _______ _____ _____    ______ ____
ROOT
ATOM      1  O   UNL     1      33.834 -14.666 -27.708  0.00  0.00    -0.273 OA
ATOM      2  N   UNL     1      33.323 -15.808 -25.745  0.00  0.00    -0.299 N 
ATOM      3  C   UNL     1      33.166 -14.805 -26.686  0.00  0.00    +0.241 C 
ATOM      4  H   UNL     1      32.724 -15.814 -24.963  0.00  0.00    +0.150 HD
ENDROOT
BRANCH   3   7
ATOM      5  O   UNL     1      33.005 -13.753 -23.640  0.00  0.00    -0.272 OA
ATOM      6  N   UNL     1      32.627 -12.720 -25.676  0.00  0.00    -0.271 N 
ATOM      7  C   UNL     1      32.042 -13.875 -26.343  0.00  0.00    +0.152 C 
ATOM      8  C   UNL     1      31.377 -13.306 -27.592  0.00  0.00    +0.031 C 
ATOM      9  C   UNL     1      32.224 -12.077 -27.915  0.00  0.00    +0.024 C 
ATOM     10  C   UNL     1      32.603 -11.543 -26.541  0.00  0.00    +0.094 C 
ATOM     11  C   UNL     1      32.998 -12.739 -24.340  0.00  0.00    +0.256 C 
BRANCH  11  12
ATOM     12  C   UNL     1      33.421 -11.412 -23.763  0.00  0.00    +0.227 C 
BRANCH  12  13
ATOM     13  O   UNL     1      32.252 -10.786 -23.295  0.00  0.00    -0.347 OA
BRANCH  13  14
ATOM     14  C   UNL     1      32.306 -10.531 -21.896  0.00  0.00    +0.116 C 
ATOM     15  C   UNL     1      31.815  -9.112 -21.614  0.00  0.00    +0.030 C 
ATOM     16  C   UNL     1      31.470 -11.572 -21.152  0.00  0.00    +0.030 C 
ATOM     17  C   UNL     1      31.761  -8.822 -20.117  0.00  0.00    +0.002 C 
ATOM     18  C   UNL     1      31.416 -11.283 -19.655  0.00  0.00    +0.002 C 
ATOM     19  C   UNL     1      30.929  -9.864 -19.374  0.00  0.00    +0.000 C 
ENDBRANCH  13  14
ENDBRANCH  12  13
ENDBRANCH  11  12
ENDBRANCH   3   7
BRANCH   2  20
ATOM     20  C   UNL     1      34.323 -16.846 -25.854  0.00  0.00    +0.116 C 
BRANCH  20  21
ATOM     21  C   UNL     1      34.562 -17.535 -24.543  0.00  0.00    -0.003 C 
ATOM     22  C   UNL     1      34.859 -16.785 -23.405  0.00  0.00    -0.003 C 
ATOM     23  C   UNL     1      34.490 -18.926 -24.462  0.00  0.00    -0.003 C 
ATOM     24  C   UNL     1      35.083 -17.425 -22.185  0.00  0.00    +0.002 C 
ATOM     25  C   UNL     1      34.714 -19.566 -23.243  0.00  0.00    +0.002 C 
ATOM     26  C   UNL     1      35.011 -18.816 -22.105  0.00  0.00    +0.031 C 
BRANCH  26  29
ATOM     27  N   UNL     1      34.255 -20.254 -20.227  0.00  0.00    -0.343 N 
ATOM     28  N   UNL     1      36.414 -19.362 -20.232  0.00  0.00    -0.285 NA
ATOM     29  C   UNL     1      35.245 -19.484 -20.835  0.00  0.00    +0.117 C 
ATOM     30  H   UNL     1      34.435 -20.698 -19.367  0.00  0.00    +0.144 HD
ATOM     31  H   UNL     1      33.375 -20.355 -20.659  0.00  0.00    +0.144 HD
ATOM     32  H   UNL     1      36.575 -19.813 -19.373  0.00  0.00    +0.188 HD
ENDBRANCH  26  29
ENDBRANCH  20  21
ENDBRANCH   2  20
TORSDOF 7
ENDMDL
