MODEL 1
REMARK VINA RESULT:     -13.0      0.000      0.000
REMARK  Name = 9911830
REMARK  5 active torsions:
REMARK  status: ('A' for Active; 'I' for Inactive)
REMARK    1  A    between atoms: C_2  and  O_20
REMARK    2  A    between atoms: C_3  and  N_10
REMARK    3  A    between atoms: O_20  and  C_24
REMARK    4  A    between atoms: C_26  and  O_31
REMARK    5  A    between atoms: C_28  and  O_33
REMARK                            x       y       z     vdW  Elec       q    Type
REMARK                         _______ _______ _______ _____ _____    ______ ____
ROOT
ATOM      1 CL   UNL     1      36.746 -19.403 -20.908  0.00  0.00    -0.081 Cl
ATOM      2  C   UNL     1      34.315 -22.047 -19.201  0.00  0.00    +0.146 C 
ATOM      3  C   UNL     1      34.048 -19.802 -20.798  0.00  0.00    +0.062 C 
ATOM      4  C   UNL     1      35.450 -21.367 -19.606  0.00  0.00    +0.050 C 
ATOM      5  C   UNL     1      33.049 -21.630 -19.576  0.00  0.00    +0.039 C 
ATOM      6  C   UNL     1      35.316 -20.236 -20.412  0.00  0.00    +0.074 C 
ATOM      7  C   UNL     1      32.915 -20.500 -20.381  0.00  0.00    +0.019 C 
ENDROOT
BRANCH   3  10
ATOM      8  O   UNL     1      33.770 -16.633 -26.863  0.00  0.00    -0.357 OA
ATOM      9  O   UNL     1      34.153 -19.528 -23.770  0.00  0.00    -0.252 OA
ATOM     10  N   UNL     1      33.879 -18.673 -21.607  0.00  0.00    -0.267 N 
ATOM     11  N   UNL     1      33.708 -17.259 -23.421  0.00  0.00    -0.251 N 
ATOM     12  N   UNL     1      33.878 -17.510 -25.790  0.00  0.00    -0.062 NA
ATOM     13  C   UNL     1      33.935 -18.584 -23.017  0.00  0.00    +0.309 C 
ATOM     14  C   UNL     1      33.679 -16.742 -24.738  0.00  0.00    +0.177 C 
ATOM     15  C   UNL     1      33.445 -15.408 -25.029  0.00  0.00    +0.073 C 
ATOM     16  C   UNL     1      33.512 -15.384 -26.396  0.00  0.00    +0.156 C 
ATOM     17  C   UNL     1      33.366 -14.326 -27.403  0.00  0.00    +0.075 C 
ATOM     18  H   UNL     1      33.695 -17.831 -21.132  0.00  0.00    +0.156 HD
ATOM     19  H   UNL     1      33.548 -16.609 -22.699  0.00  0.00    +0.158 HD
ENDBRANCH   3  10
BRANCH   2  20
ATOM     20  O   UNL     1      34.447 -23.167 -18.402  0.00  0.00    -0.453 OA
BRANCH  20  24
ATOM     21  N   UNL     1      32.173 -23.279 -14.935  0.00  0.00    -0.244 NA
ATOM     22  C   UNL     1      34.337 -23.330 -15.994  0.00  0.00    +0.055 C 
ATOM     23  C   UNL     1      33.514 -23.363 -14.850  0.00  0.00    +0.087 C 
ATOM     24  C   UNL     1      33.719 -23.206 -17.247  0.00  0.00    +0.148 C 
ATOM     25  C   UNL     1      35.734 -23.421 -15.868  0.00  0.00    +0.045 C 
ATOM     26  C   UNL     1      36.321 -23.543 -14.613  0.00  0.00    +0.173 C 
ATOM     27  C   UNL     1      34.128 -23.486 -13.606  0.00  0.00    +0.059 C 
ATOM     28  C   UNL     1      35.516 -23.575 -13.480  0.00  0.00    +0.174 C 
ATOM     29  C   UNL     1      32.338 -23.120 -17.338  0.00  0.00    +0.058 C 
ATOM     30  C   UNL     1      31.617 -23.160 -16.162  0.00  0.00    +0.102 C 
BRANCH  26  31
ATOM     31  O   UNL     1      37.676 -23.629 -14.507  0.00  0.00    -0.468 OA
ATOM     32  C   UNL     1      38.262 -24.915 -14.702  0.00  0.00    +0.253 C 
ENDBRANCH  26  31
BRANCH  28  33
ATOM     33  O   UNL     1      36.070 -23.694 -12.240  0.00  0.00    -0.468 OA
ATOM     34  C   UNL     1      35.409 -24.554 -11.315  0.00  0.00    +0.253 C 
ENDBRANCH  28  33
ENDBRANCH  20  24
ENDBRANCH   2  20
TORSDOF 5
ENDMDL
MODEL 2
REMARK VINA RESULT:     -12.9      2.528     11.449
REMARK  Name = 9911830
REMARK  5 active torsions:
REMARK  status: ('A' for Active; 'I' for Inactive)
REMARK    1  A    between atoms: C_2  and  O_20
REMARK    2  A    between atoms: C_3  and  N_10
REMARK    3  A    between atoms: O_20  and  C_24
REMARK    4  A    between atoms: C_26  and  O_31
REMARK    5  A    between atoms: C_28  and  O_33
REMARK                            x       y       z     vdW  Elec       q    Type
REMARK                         _______ _______ _______ _____ _____    ______ ____
ROOT
ATOM      1 CL   UNL     1      32.413 -21.275 -19.512  0.00  0.00    -0.081 Cl
ATOM      2  C   UNL     1      35.126 -19.249 -21.596  0.00  0.00    +0.146 C 
ATOM      3  C   UNL     1      35.136 -21.082 -19.522  0.00  0.00    +0.062 C 
ATOM      4  C   UNL     1      33.923 -19.744 -21.127  0.00  0.00    +0.050 C 
ATOM      5  C   UNL     1      36.335 -19.650 -21.053  0.00  0.00    +0.039 C 
ATOM      6  C   UNL     1      33.927 -20.668 -20.082  0.00  0.00    +0.074 C 
ATOM      7  C   UNL     1      36.339 -20.574 -20.009  0.00  0.00    +0.019 C 
ENDROOT
BRANCH   3  10
ATOM      8  O   UNL     1      37.555 -23.460 -13.574  0.00  0.00    -0.357 OA
ATOM      9  O   UNL     1      36.837 -21.145 -17.068  0.00  0.00    -0.252 OA
ATOM     10  N   UNL     1      35.175 -22.009 -18.475  0.00  0.00    -0.267 N 
ATOM     11  N   UNL     1      35.711 -23.122 -16.528  0.00  0.00    -0.251 N 
ATOM     12  N   UNL     1      37.254 -22.767 -14.740  0.00  0.00    -0.062 NA
ATOM     13  C   UNL     1      35.998 -22.002 -17.325  0.00  0.00    +0.309 C 
ATOM     14  C   UNL     1      36.305 -23.491 -15.297  0.00  0.00    +0.177 C 
ATOM     15  C   UNL     1      35.947 -24.625 -14.587  0.00  0.00    +0.073 C 
ATOM     16  C   UNL     1      36.770 -24.565 -13.494  0.00  0.00    +0.156 C 
ATOM     17  C   UNL     1      36.958 -25.419 -12.315  0.00  0.00    +0.075 C 
ATOM     18  H   UNL     1      34.547 -22.762 -18.548  0.00  0.00    +0.156 HD
ATOM     19  H   UNL     1      35.010 -23.725 -16.866  0.00  0.00    +0.158 HD
ENDBRANCH   3  10
BRANCH   2  20
ATOM     20  O   UNL     1      35.123 -18.332 -22.631  0.00  0.00    -0.453 OA
BRANCH  20  24
ATOM     21  N   UNL     1      34.111 -14.433 -21.647  0.00  0.00    -0.244 NA
ATOM     22  C   UNL     1      34.273 -16.174 -23.304  0.00  0.00    +0.055 C 
ATOM     23  C   UNL     1      33.946 -14.860 -22.913  0.00  0.00    +0.087 C 
ATOM     24  C   UNL     1      34.784 -17.044 -22.331  0.00  0.00    +0.148 C 
ATOM     25  C   UNL     1      34.087 -16.586 -24.635  0.00  0.00    +0.045 C 
ATOM     26  C   UNL     1      33.578 -15.701 -25.581  0.00  0.00    +0.173 C 
ATOM     27  C   UNL     1      33.439 -13.995 -23.880  0.00  0.00    +0.059 C 
ATOM     28  C   UNL     1      33.254 -14.405 -25.203  0.00  0.00    +0.174 C 
ATOM     29  C   UNL     1      34.955 -16.607 -21.025  0.00  0.00    +0.058 C 
ATOM     30  C   UNL     1      34.607 -15.303 -20.738  0.00  0.00    +0.102 C 
BRANCH  26  31
ATOM     31  O   UNL     1      33.404 -16.116 -26.867  0.00  0.00    -0.468 OA
ATOM     32  C   UNL     1      32.147 -16.705 -27.194  0.00  0.00    +0.253 C 
ENDBRANCH  26  31
BRANCH  28  33
ATOM     33  O   UNL     1      32.753 -13.522 -26.113  0.00  0.00    -0.468 OA
ATOM     34  C   UNL     1      33.057 -12.143 -25.913  0.00  0.00    +0.253 C 
ENDBRANCH  28  33
ENDBRANCH  20  24
ENDBRANCH   2  20
TORSDOF 5
ENDMDL
MODEL 3
REMARK VINA RESULT:     -12.6      2.436     11.541
REMARK  Name = 9911830
REMARK  5 active torsions:
REMARK  status: ('A' for Active; 'I' for Inactive)
REMARK    1  A    between atoms: C_2  and  O_20
REMARK    2  A    between atoms: C_3  and  N_10
REMARK    3  A    between atoms: O_20  and  C_24
REMARK    4  A    between atoms: C_26  and  O_31
REMARK    5  A    between atoms: C_28  and  O_33
REMARK                            x       y       z     vdW  Elec       q    Type
REMARK                         _______ _______ _______ _____ _____    ______ ____
ROOT
ATOM      1 CL   UNL     1      32.569 -20.946 -19.717  0.00  0.00    -0.081 Cl
ATOM      2  C   UNL     1      35.344 -18.808 -21.597  0.00  0.00    +0.146 C 
ATOM      3  C   UNL     1      35.294 -20.800 -19.676  0.00  0.00    +0.062 C 
ATOM      4  C   UNL     1      34.126 -19.318 -21.185  0.00  0.00    +0.050 C 
ATOM      5  C   UNL     1      36.538 -19.271 -21.072  0.00  0.00    +0.039 C 
ATOM      6  C   UNL     1      34.100 -20.322 -20.217  0.00  0.00    +0.074 C 
ATOM      7  C   UNL     1      36.513 -20.275 -20.105  0.00  0.00    +0.019 C 
ENDROOT
BRANCH   3  10
ATOM      8  O   UNL     1      37.448 -23.589 -13.805  0.00  0.00    -0.357 OA
ATOM      9  O   UNL     1      36.855 -21.016 -17.139  0.00  0.00    -0.252 OA
ATOM     10  N   UNL     1      35.304 -21.807 -18.706  0.00  0.00    -0.267 N 
ATOM     11  N   UNL     1      35.764 -23.061 -16.826  0.00  0.00    -0.251 N 
ATOM     12  N   UNL     1      37.191 -22.811 -14.927  0.00  0.00    -0.062 NA
ATOM     13  C   UNL     1      36.059 -21.872 -17.512  0.00  0.00    +0.309 C 
ATOM     14  C   UNL     1      36.299 -23.512 -15.596  0.00  0.00    +0.177 C 
ATOM     15  C   UNL     1      35.937 -24.710 -15.001  0.00  0.00    +0.073 C 
ATOM     16  C   UNL     1      36.695 -24.717 -13.860  0.00  0.00    +0.156 C 
ATOM     17  C   UNL     1      36.844 -25.660 -12.744  0.00  0.00    +0.075 C 
ATOM     18  H   UNL     1      34.705 -22.569 -18.876  0.00  0.00    +0.156 HD
ATOM     19  H   UNL     1      35.102 -23.653 -17.252  0.00  0.00    +0.158 HD
ENDBRANCH   3  10
BRANCH   2  20
ATOM     20  O   UNL     1      35.370 -17.811 -22.555  0.00  0.00    -0.453 OA
BRANCH  20  24
ATOM     21  N   UNL     1      33.550 -18.669 -26.182  0.00  0.00    -0.244 NA
ATOM     22  C   UNL     1      34.152 -17.053 -24.498  0.00  0.00    +0.055 C 
ATOM     23  C   UNL     1      33.549 -17.403 -25.724  0.00  0.00    +0.087 C 
ATOM     24  C   UNL     1      34.765 -18.069 -23.751  0.00  0.00    +0.148 C 
ATOM     25  C   UNL     1      34.132 -15.721 -24.051  0.00  0.00    +0.045 C 
ATOM     26  C   UNL     1      33.517 -14.732 -24.813  0.00  0.00    +0.173 C 
ATOM     27  C   UNL     1      32.940 -16.394 -26.466  0.00  0.00    +0.059 C 
ATOM     28  C   UNL     1      32.921 -15.069 -26.021  0.00  0.00    +0.174 C 
ATOM     29  C   UNL     1      34.768 -19.375 -24.220  0.00  0.00    +0.058 C 
ATOM     30  C   UNL     1      34.152 -19.620 -25.431  0.00  0.00    +0.102 C 
BRANCH  26  31
ATOM     31  O   UNL     1      33.507 -13.445 -24.366  0.00  0.00    -0.468 OA
ATOM     32  C   UNL     1      32.812 -13.188 -23.147  0.00  0.00    +0.253 C 
ENDBRANCH  26  31
BRANCH  28  33
ATOM     33  O   UNL     1      32.313 -14.117 -26.784  0.00  0.00    -0.468 OA
ATOM     34  C   UNL     1      33.145 -13.358 -27.659  0.00  0.00    +0.253 C 
ENDBRANCH  28  33
ENDBRANCH  20  24
ENDBRANCH   2  20
TORSDOF 5
ENDMDL
MODEL 4
REMARK VINA RESULT:     -12.4      1.535      2.464
REMARK  Name = 9911830
REMARK  5 active torsions:
REMARK  status: ('A' for Active; 'I' for Inactive)
REMARK    1  A    between atoms: C_2  and  O_20
REMARK    2  A    between atoms: C_3  and  N_10
REMARK    3  A    between atoms: O_20  and  C_24
REMARK    4  A    between atoms: C_26  and  O_31
REMARK    5  A    between atoms: C_28  and  O_33
REMARK                            x       y       z     vdW  Elec       q    Type
REMARK                         _______ _______ _______ _____ _____    ______ ____
ROOT
ATOM      1 CL   UNL     1      36.761 -19.315 -21.145  0.00  0.00    -0.081 Cl
ATOM      2  C   UNL     1      34.284 -21.727 -19.181  0.00  0.00    +0.146 C 
ATOM      3  C   UNL     1      34.055 -19.560 -20.888  0.00  0.00    +0.062 C 
ATOM      4  C   UNL     1      35.431 -21.133 -19.676  0.00  0.00    +0.050 C 
ATOM      5  C   UNL     1      33.024 -21.263 -19.519  0.00  0.00    +0.039 C 
ATOM      6  C   UNL     1      35.316 -20.041 -20.536  0.00  0.00    +0.074 C 
ATOM      7  C   UNL     1      32.909 -20.171 -20.380  0.00  0.00    +0.019 C 
ENDROOT
BRANCH   3  10
ATOM      8  O   UNL     1      33.491 -16.730 -27.098  0.00  0.00    -0.357 OA
ATOM      9  O   UNL     1      33.916 -19.466 -23.869  0.00  0.00    -0.252 OA
ATOM     10  N   UNL     1      33.905 -18.469 -21.750  0.00  0.00    -0.267 N 
ATOM     11  N   UNL     1      33.686 -17.151 -23.630  0.00  0.00    -0.251 N 
ATOM     12  N   UNL     1      33.624 -17.550 -25.984  0.00  0.00    -0.062 NA
ATOM     13  C   UNL     1      33.842 -18.466 -23.163  0.00  0.00    +0.309 C 
ATOM     14  C   UNL     1      33.581 -16.709 -24.971  0.00  0.00    +0.177 C 
ATOM     15  C   UNL     1      33.428 -15.379 -25.326  0.00  0.00    +0.073 C 
ATOM     16  C   UNL     1      33.375 -15.439 -26.693  0.00  0.00    +0.156 C 
ATOM     17  C   UNL     1      33.225 -14.431 -27.750  0.00  0.00    +0.075 C 
ATOM     18  H   UNL     1      33.831 -17.588 -21.316  0.00  0.00    +0.156 HD
ATOM     19  H   UNL     1      33.643 -16.449 -22.940  0.00  0.00    +0.158 HD
ENDBRANCH   3  10
BRANCH   2  20
ATOM     20  O   UNL     1      34.396 -22.808 -18.326  0.00  0.00    -0.453 OA
BRANCH  20  24
ATOM     21  N   UNL     1      37.094 -22.439 -15.198  0.00  0.00    -0.244 NA
ATOM     22  C   UNL     1      34.945 -23.174 -16.003  0.00  0.00    +0.055 C 
ATOM     23  C   UNL     1      35.900 -23.022 -14.977  0.00  0.00    +0.087 C 
ATOM     24  C   UNL     1      35.268 -22.697 -17.281  0.00  0.00    +0.148 C 
ATOM     25  C   UNL     1      33.709 -23.788 -15.736  0.00  0.00    +0.045 C 
ATOM     26  C   UNL     1      33.414 -24.252 -14.458  0.00  0.00    +0.173 C 
ATOM     27  C   UNL     1      35.580 -23.496 -13.707  0.00  0.00    +0.059 C 
ATOM     28  C   UNL     1      34.351 -24.106 -13.443  0.00  0.00    +0.174 C 
ATOM     29  C   UNL     1      36.496 -22.096 -17.512  0.00  0.00    +0.058 C 
ATOM     30  C   UNL     1      37.366 -21.993 -16.446  0.00  0.00    +0.102 C 
BRANCH  26  31
ATOM     31  O   UNL     1      32.212 -24.845 -14.217  0.00  0.00    -0.468 OA
ATOM     32  C   UNL     1      31.095 -23.984 -14.005  0.00  0.00    +0.253 C 
ENDBRANCH  26  31
BRANCH  28  33
ATOM     33  O   UNL     1      34.084 -24.554 -12.184  0.00  0.00    -0.468 OA
ATOM     34  C   UNL     1      35.177 -24.608 -11.269  0.00  0.00    +0.253 C 
ENDBRANCH  28  33
ENDBRANCH  20  24
ENDBRANCH   2  20
TORSDOF 5
ENDMDL
MODEL 5
REMARK VINA RESULT:     -11.6      3.399     11.367
REMARK  Name = 9911830
REMARK  5 active torsions:
REMARK  status: ('A' for Active; 'I' for Inactive)
REMARK    1  A    between atoms: C_2  and  O_20
REMARK    2  A    between atoms: C_3  and  N_10
REMARK    3  A    between atoms: O_20  and  C_24
REMARK    4  A    between atoms: C_26  and  O_31
REMARK    5  A    between atoms: C_28  and  O_33
REMARK                            x       y       z     vdW  Elec       q    Type
REMARK                         _______ _______ _______ _____ _____    ______ ____
ROOT
ATOM      1 CL   UNL     1      36.782 -20.769 -19.583  0.00  0.00    -0.081 Cl
ATOM      2  C   UNL     1      34.773 -18.734 -22.345  0.00  0.00    +0.146 C 
ATOM      3  C   UNL     1      34.174 -20.568 -20.361  0.00  0.00    +0.062 C 
ATOM      4  C   UNL     1      35.794 -19.234 -21.557  0.00  0.00    +0.050 C 
ATOM      5  C   UNL     1      33.459 -19.129 -22.165  0.00  0.00    +0.039 C 
ATOM      6  C   UNL     1      35.493 -20.157 -20.557  0.00  0.00    +0.074 C 
ATOM      7  C   UNL     1      33.157 -20.052 -21.164  0.00  0.00    +0.019 C 
ENDROOT
BRANCH   3  10
ATOM      8  O   UNL     1      29.821 -23.412 -15.904  0.00  0.00    -0.357 OA
ATOM      9  O   UNL     1      31.599 -20.975 -18.903  0.00  0.00    -0.252 OA
ATOM     10  N   UNL     1      33.837 -21.490 -19.365  0.00  0.00    -0.267 N 
ATOM     11  N   UNL     1      32.696 -22.701 -17.768  0.00  0.00    -0.251 N 
ATOM     12  N   UNL     1      30.482 -22.666 -16.872  0.00  0.00    -0.062 NA
ATOM     13  C   UNL     1      32.601 -21.653 -18.697  0.00  0.00    +0.309 C 
ATOM     14  C   UNL     1      31.691 -23.187 -16.897  0.00  0.00    +0.177 C 
ATOM     15  C   UNL     1      31.891 -24.234 -16.012  0.00  0.00    +0.073 C 
ATOM     16  C   UNL     1      30.671 -24.343 -15.399  0.00  0.00    +0.156 C 
ATOM     17  C   UNL     1      30.132 -25.225 -14.357  0.00  0.00    +0.075 C 
ATOM     18  H   UNL     1      34.554 -22.109 -19.096  0.00  0.00    +0.156 HD
ATOM     19  H   UNL     1      33.569 -23.154 -17.715  0.00  0.00    +0.158 HD
ENDBRANCH   3  10
BRANCH   2  20
ATOM     20  O   UNL     1      35.071 -17.819 -23.339  0.00  0.00    -0.453 OA
BRANCH  20  24
ATOM     21  N   UNL     1      33.930 -13.890 -22.664  0.00  0.00    -0.244 NA
ATOM     22  C   UNL     1      34.047 -15.786 -24.146  0.00  0.00    +0.055 C 
ATOM     23  C   UNL     1      33.681 -14.455 -23.860  0.00  0.00    +0.087 C 
ATOM     24  C   UNL     1      34.687 -16.524 -23.140  0.00  0.00    +0.148 C 
ATOM     25  C   UNL     1      33.772 -16.344 -25.406  0.00  0.00    +0.045 C 
ATOM     26  C   UNL     1      33.135 -15.589 -26.386  0.00  0.00    +0.173 C 
ATOM     27  C   UNL     1      33.046 -13.722 -24.859  0.00  0.00    +0.059 C 
ATOM     28  C   UNL     1      32.772 -14.276 -26.112  0.00  0.00    +0.174 C 
ATOM     29  C   UNL     1      34.944 -15.945 -21.906  0.00  0.00    +0.058 C 
ATOM     30  C   UNL     1      34.549 -14.636 -21.721  0.00  0.00    +0.102 C 
BRANCH  26  31
ATOM     31  O   UNL     1      32.875 -16.144 -27.602  0.00  0.00    -0.468 OA
ATOM     32  C   UNL     1      31.692 -16.932 -27.717  0.00  0.00    +0.253 C 
ENDBRANCH  26  31
BRANCH  28  33
ATOM     33  O   UNL     1      32.147 -13.518 -27.057  0.00  0.00    -0.468 OA
ATOM     34  C   UNL     1      32.579 -12.166 -27.194  0.00  0.00    +0.253 C 
ENDBRANCH  28  33
ENDBRANCH  20  24
ENDBRANCH   2  20
TORSDOF 5
ENDMDL
MODEL 6
REMARK VINA RESULT:     -11.4      3.572     11.002
REMARK  Name = 9911830
REMARK  5 active torsions:
REMARK  status: ('A' for Active; 'I' for Inactive)
REMARK    1  A    between atoms: C_2  and  O_20
REMARK    2  A    between atoms: C_3  and  N_10
REMARK    3  A    between atoms: O_20  and  C_24
REMARK    4  A    between atoms: C_26  and  O_31
REMARK    5  A    between atoms: C_28  and  O_33
REMARK                            x       y       z     vdW  Elec       q    Type
REMARK                         _______ _______ _______ _____ _____    ______ ____
ROOT
ATOM      1 CL   UNL     1      36.659 -21.653 -18.957  0.00  0.00    -0.081 Cl
ATOM      2  C   UNL     1      35.074 -19.237 -21.689  0.00  0.00    +0.146 C 
ATOM      3  C   UNL     1      34.138 -21.030 -19.799  0.00  0.00    +0.062 C 
ATOM      4  C   UNL     1      35.981 -19.915 -20.894  0.00  0.00    +0.050 C 
ATOM      5  C   UNL     1      33.710 -19.434 -21.561  0.00  0.00    +0.039 C 
ATOM      6  C   UNL     1      35.510 -20.818 -19.941  0.00  0.00    +0.074 C 
ATOM      7  C   UNL     1      33.239 -20.337 -20.608  0.00  0.00    +0.019 C 
ENDROOT
BRANCH   3  10
ATOM      8  O   UNL     1      29.153 -23.538 -15.830  0.00  0.00    -0.357 OA
ATOM      9  O   UNL     1      31.407 -21.239 -18.609  0.00  0.00    -0.252 OA
ATOM     10  N   UNL     1      33.633 -21.926 -18.852  0.00  0.00    -0.267 N 
ATOM     11  N   UNL     1      32.247 -23.048 -17.389  0.00  0.00    -0.251 N 
ATOM     12  N   UNL     1      29.963 -22.843 -16.719  0.00  0.00    -0.062 NA
ATOM     13  C   UNL     1      32.327 -21.994 -18.312  0.00  0.00    +0.309 C 
ATOM     14  C   UNL     1      31.125 -23.457 -16.629  0.00  0.00    +0.177 C 
ATOM     15  C   UNL     1      31.153 -24.518 -15.739  0.00  0.00    +0.073 C 
ATOM     16  C   UNL     1      29.873 -24.534 -15.252  0.00  0.00    +0.156 C 
ATOM     17  C   UNL     1      29.165 -25.374 -14.278  0.00  0.00    +0.075 C 
ATOM     18  H   UNL     1      34.269 -22.599 -18.518  0.00  0.00    +0.156 HD
ATOM     19  H   UNL     1      33.072 -23.568 -17.254  0.00  0.00    +0.158 HD
ENDBRANCH   3  10
BRANCH   2  20
ATOM     20  O   UNL     1      35.540 -18.343 -22.635  0.00  0.00    -0.453 OA
BRANCH  20  24
ATOM     21  N   UNL     1      33.489 -18.179 -26.236  0.00  0.00    -0.244 NA
ATOM     22  C   UNL     1      34.318 -17.055 -24.272  0.00  0.00    +0.055 C 
ATOM     23  C   UNL     1      33.631 -17.059 -25.503  0.00  0.00    +0.087 C 
ATOM     24  C   UNL     1      34.861 -18.265 -23.817  0.00  0.00    +0.148 C 
ATOM     25  C   UNL     1      34.446 -15.866 -23.534  0.00  0.00    +0.045 C 
ATOM     26  C   UNL     1      33.897 -14.679 -24.010  0.00  0.00    +0.173 C 
ATOM     27  C   UNL     1      33.091 -15.857 -25.956  0.00  0.00    +0.059 C 
ATOM     28  C   UNL     1      33.219 -14.675 -25.222  0.00  0.00    +0.174 C 
ATOM     29  C   UNL     1      34.717 -19.421 -24.569  0.00  0.00    +0.058 C 
ATOM     30  C   UNL     1      34.028 -19.326 -25.761  0.00  0.00    +0.102 C 
BRANCH  26  31
ATOM     31  O   UNL     1      34.031 -13.535 -23.282  0.00  0.00    -0.468 OA
ATOM     32  C   UNL     1      33.047 -13.284 -22.280  0.00  0.00    +0.253 C 
ENDBRANCH  26  31
BRANCH  28  33
ATOM     33  O   UNL     1      32.674 -13.524 -25.707  0.00  0.00    -0.468 OA
ATOM     34  C   UNL     1      32.885 -13.238 -27.088  0.00  0.00    +0.253 C 
ENDBRANCH  28  33
ENDBRANCH  20  24
ENDBRANCH   2  20
TORSDOF 5
ENDMDL
MODEL 7
REMARK VINA RESULT:     -11.3      3.822      5.416
REMARK  Name = 9911830
REMARK  5 active torsions:
REMARK  status: ('A' for Active; 'I' for Inactive)
REMARK    1  A    between atoms: C_2  and  O_20
REMARK    2  A    between atoms: C_3  and  N_10
REMARK    3  A    between atoms: O_20  and  C_24
REMARK    4  A    between atoms: C_26  and  O_31
REMARK    5  A    between atoms: C_28  and  O_33
REMARK                            x       y       z     vdW  Elec       q    Type
REMARK                         _______ _______ _______ _____ _____    ______ ____
ROOT
ATOM      1 CL   UNL     1      34.561 -16.484 -25.481  0.00  0.00    -0.081 Cl
ATOM      2  C   UNL     1      35.095 -18.024 -21.855  0.00  0.00    +0.146 C 
ATOM      3  C   UNL     1      34.590 -15.523 -22.927  0.00  0.00    +0.062 C 
ATOM      4  C   UNL     1      34.970 -17.890 -23.226  0.00  0.00    +0.050 C 
ATOM      5  C   UNL     1      34.974 -16.936 -21.006  0.00  0.00    +0.039 C 
ATOM      6  C   UNL     1      34.715 -16.630 -23.767  0.00  0.00    +0.074 C 
ATOM      7  C   UNL     1      34.718 -15.677 -21.547  0.00  0.00    +0.019 C 
ENDROOT
BRANCH   3  10
ATOM      8  O   UNL     1      31.481  -9.423 -22.806  0.00  0.00    -0.357 OA
ATOM      9  O   UNL     1      32.780 -13.373 -21.915  0.00  0.00    -0.252 OA
ATOM     10  N   UNL     1      34.333 -14.246 -23.437  0.00  0.00    -0.267 N 
ATOM     11  N   UNL     1      33.507 -12.115 -23.747  0.00  0.00    -0.251 N 
ATOM     12  N   UNL     1      31.961 -10.709 -22.592  0.00  0.00    -0.062 NA
ATOM     13  C   UNL     1      33.466 -13.252 -22.926  0.00  0.00    +0.309 C 
ATOM     14  C   UNL     1      32.794 -10.902 -23.594  0.00  0.00    +0.177 C 
ATOM     15  C   UNL     1      32.908  -9.834 -24.468  0.00  0.00    +0.073 C 
ATOM     16  C   UNL     1      32.052  -8.912 -23.927  0.00  0.00    +0.156 C 
ATOM     17  C   UNL     1      31.654  -7.550 -24.303  0.00  0.00    +0.075 C 
ATOM     18  H   UNL     1      34.820 -14.008 -24.258  0.00  0.00    +0.156 HD
ATOM     19  H   UNL     1      34.107 -12.167 -24.527  0.00  0.00    +0.158 HD
ENDBRANCH   3  10
BRANCH   2  20
ATOM     20  O   UNL     1      35.349 -19.272 -21.317  0.00  0.00    -0.453 OA
BRANCH  20  24
ATOM     21  N   UNL     1      32.074 -21.385 -19.900  0.00  0.00    -0.244 NA
ATOM     22  C   UNL     1      34.431 -20.896 -19.783  0.00  0.00    +0.055 C 
ATOM     23  C   UNL     1      33.283 -21.586 -19.343  0.00  0.00    +0.087 C 
ATOM     24  C   UNL     1      34.286 -19.980 -20.834  0.00  0.00    +0.148 C 
ATOM     25  C   UNL     1      35.678 -21.131 -19.178  0.00  0.00    +0.045 C 
ATOM     26  C   UNL     1      35.793 -22.047 -18.136  0.00  0.00    +0.173 C 
ATOM     27  C   UNL     1      33.427 -22.497 -18.299  0.00  0.00    +0.059 C 
ATOM     28  C   UNL     1      34.666 -22.730 -17.697  0.00  0.00    +0.174 C 
ATOM     29  C   UNL     1      33.042 -19.770 -21.411  0.00  0.00    +0.058 C 
ATOM     30  C   UNL     1      31.977 -20.492 -20.912  0.00  0.00    +0.102 C 
BRANCH  26  31
ATOM     31  O   UNL     1      37.008 -22.263 -17.560  0.00  0.00    -0.468 OA
ATOM     32  C   UNL     1      37.110 -22.034 -16.156  0.00  0.00    +0.253 C 
ENDBRANCH  26  31
BRANCH  28  33
ATOM     33  O   UNL     1      34.756 -23.631 -16.678  0.00  0.00    -0.468 OA
ATOM     34  C   UNL     1      33.721 -23.606 -15.698  0.00  0.00    +0.253 C 
ENDBRANCH  28  33
ENDBRANCH  20  24
ENDBRANCH   2  20
TORSDOF 5
ENDMDL
MODEL 8
REMARK VINA RESULT:     -11.2      1.760      1.936
REMARK  Name = 9911830
REMARK  5 active torsions:
REMARK  status: ('A' for Active; 'I' for Inactive)
REMARK    1  A    between atoms: C_2  and  O_20
REMARK    2  A    between atoms: C_3  and  N_10
REMARK    3  A    between atoms: O_20  and  C_24
REMARK    4  A    between atoms: C_26  and  O_31
REMARK    5  A    between atoms: C_28  and  O_33
REMARK                            x       y       z     vdW  Elec       q    Type
REMARK                         _______ _______ _______ _____ _____    ______ ____
ROOT
ATOM      1 CL   UNL     1      36.980 -19.530 -20.885  0.00  0.00    -0.081 Cl
ATOM      2  C   UNL     1      34.554 -22.066 -19.017  0.00  0.00    +0.146 C 
ATOM      3  C   UNL     1      34.287 -19.961 -20.794  0.00  0.00    +0.062 C 
ATOM      4  C   UNL     1      35.687 -21.404 -19.454  0.00  0.00    +0.050 C 
ATOM      5  C   UNL     1      33.290 -21.701 -19.448  0.00  0.00    +0.039 C 
ATOM      6  C   UNL     1      35.553 -20.344 -20.350  0.00  0.00    +0.074 C 
ATOM      7  C   UNL     1      33.156 -20.641 -20.344  0.00  0.00    +0.019 C 
ENDROOT
BRANCH   3  10
ATOM      8  O   UNL     1      34.427 -13.332 -22.505  0.00  0.00    -0.357 OA
ATOM      9  O   UNL     1      34.693 -17.027 -20.415  0.00  0.00    -0.252 OA
ATOM     10  N   UNL     1      34.118 -18.904 -21.693  0.00  0.00    -0.267 N 
ATOM     11  N   UNL     1      34.037 -16.806 -22.649  0.00  0.00    -0.251 N 
ATOM     12  N   UNL     1      34.486 -14.582 -21.902  0.00  0.00    -0.062 NA
ATOM     13  C   UNL     1      34.323 -17.521 -21.475  0.00  0.00    +0.309 C 
ATOM     14  C   UNL     1      34.113 -15.408 -22.858  0.00  0.00    +0.177 C 
ATOM     15  C   UNL     1      33.806 -14.799 -24.064  0.00  0.00    +0.073 C 
ATOM     16  C   UNL     1      34.021 -13.474 -23.793  0.00  0.00    +0.156 C 
ATOM     17  C   UNL     1      33.903 -12.243 -24.583  0.00  0.00    +0.075 C 
ATOM     18  H   UNL     1      33.819 -19.154 -22.597  0.00  0.00    +0.156 HD
ATOM     19  H   UNL     1      33.748 -17.343 -23.423  0.00  0.00    +0.158 HD
ENDBRANCH   3  10
BRANCH   2  20
ATOM     20  O   UNL     1      34.685 -23.117 -18.128  0.00  0.00    -0.453 OA
BRANCH  20  24
ATOM     21  N   UNL     1      31.853 -23.364 -15.109  0.00  0.00    -0.244 NA
ATOM     22  C   UNL     1      34.132 -23.647 -15.837  0.00  0.00    +0.055 C 
ATOM     23  C   UNL     1      33.127 -23.711 -14.850  0.00  0.00    +0.087 C 
ATOM     24  C   UNL     1      33.771 -23.207 -17.118  0.00  0.00    +0.148 C 
ATOM     25  C   UNL     1      35.453 -24.018 -15.532  0.00  0.00    +0.045 C 
ATOM     26  C   UNL     1      35.784 -24.451 -14.252  0.00  0.00    +0.173 C 
ATOM     27  C   UNL     1      33.487 -24.149 -13.578  0.00  0.00    +0.059 C 
ATOM     28  C   UNL     1      34.800 -24.516 -13.274  0.00  0.00    +0.174 C 
ATOM     29  C   UNL     1      32.458 -22.848 -17.389  0.00  0.00    +0.058 C 
ATOM     30  C   UNL     1      31.545 -22.944 -16.358  0.00  0.00    +0.102 C 
BRANCH  26  31
ATOM     31  O   UNL     1      37.069 -24.806 -13.972  0.00  0.00    -0.468 OA
ATOM     32  C   UNL     1      37.472 -26.125 -14.336  0.00  0.00    +0.253 C 
ENDBRANCH  26  31
BRANCH  28  33
ATOM     33  O   UNL     1      35.102 -24.938 -12.013  0.00  0.00    -0.468 OA
ATOM     34  C   UNL     1      35.409 -23.932 -11.050  0.00  0.00    +0.253 C 
ENDBRANCH  28  33
ENDBRANCH  20  24
ENDBRANCH   2  20
TORSDOF 5
ENDMDL
MODEL 9
REMARK VINA RESULT:     -11.0      3.214     12.361
REMARK  Name = 9911830
REMARK  5 active torsions:
REMARK  status: ('A' for Active; 'I' for Inactive)
REMARK    1  A    between atoms: C_2  and  O_20
REMARK    2  A    between atoms: C_3  and  N_10
REMARK    3  A    between atoms: O_20  and  C_24
REMARK    4  A    between atoms: C_26  and  O_31
REMARK    5  A    between atoms: C_28  and  O_33
REMARK                            x       y       z     vdW  Elec       q    Type
REMARK                         _______ _______ _______ _____ _____    ______ ____
ROOT
ATOM      1 CL   UNL     1      34.869 -16.476 -21.656  0.00  0.00    -0.081 Cl
ATOM      2  C   UNL     1      34.326 -16.956 -25.565  0.00  0.00    +0.146 C 
ATOM      3  C   UNL     1      34.518 -18.593 -23.342  0.00  0.00    +0.062 C 
ATOM      4  C   UNL     1      34.525 -16.385 -24.321  0.00  0.00    +0.050 C 
ATOM      5  C   UNL     1      34.220 -18.327 -25.724  0.00  0.00    +0.039 C 
ATOM      6  C   UNL     1      34.622 -17.209 -23.201  0.00  0.00    +0.074 C 
ATOM      7  C   UNL     1      34.317 -19.151 -24.604  0.00  0.00    +0.019 C 
ENDROOT
BRANCH   3  10
ATOM      8  O   UNL     1      31.808 -22.256 -18.231  0.00  0.00    -0.357 OA
ATOM      9  O   UNL     1      32.372 -19.723 -21.600  0.00  0.00    -0.252 OA
ATOM     10  N   UNL     1      34.609 -19.448 -22.239  0.00  0.00    -0.267 N 
ATOM     11  N   UNL     1      34.096 -20.786 -20.432  0.00  0.00    -0.251 N 
ATOM     12  N   UNL     1      32.085 -21.444 -19.324  0.00  0.00    -0.062 NA
ATOM     13  C   UNL     1      33.564 -19.964 -21.437  0.00  0.00    +0.309 C 
ATOM     14  C   UNL     1      33.398 -21.493 -19.424  0.00  0.00    +0.177 C 
ATOM     15  C   UNL     1      34.023 -22.282 -18.472  0.00  0.00    +0.073 C 
ATOM     16  C   UNL     1      32.971 -22.749 -17.732  0.00  0.00    +0.156 C 
ATOM     17  C   UNL     1      32.861 -23.633 -16.565  0.00  0.00    +0.075 C 
ATOM     18  H   UNL     1      35.518 -19.728 -21.989  0.00  0.00    +0.156 HD
ATOM     19  H   UNL     1      35.076 -20.884 -20.427  0.00  0.00    +0.158 HD
ENDBRANCH   3  10
BRANCH   2  20
ATOM     20  O   UNL     1      34.232 -16.140 -26.678  0.00  0.00    -0.453 OA
BRANCH  20  24
ATOM     21  N   UNL     1      30.490 -14.582 -27.558  0.00  0.00    -0.244 NA
ATOM     22  C   UNL     1      32.810 -14.217 -27.020  0.00  0.00    +0.055 C 
ATOM     23  C   UNL     1      31.518 -13.744 -27.323  0.00  0.00    +0.087 C 
ATOM     24  C   UNL     1      33.009 -15.604 -26.965  0.00  0.00    +0.148 C 
ATOM     25  C   UNL     1      33.860 -13.313 -26.780  0.00  0.00    +0.045 C 
ATOM     26  C   UNL     1      33.635 -11.941 -26.841  0.00  0.00    +0.173 C 
ATOM     27  C   UNL     1      31.320 -12.366 -27.377  0.00  0.00    +0.059 C 
ATOM     28  C   UNL     1      32.363 -11.468 -27.140  0.00  0.00    +0.174 C 
ATOM     29  C   UNL     1      31.953 -16.470 -27.206  0.00  0.00    +0.058 C 
ATOM     30  C   UNL     1      30.724 -15.913 -27.496  0.00  0.00    +0.102 C 
BRANCH  26  31
ATOM     31  O   UNL     1      34.662 -11.078 -26.607  0.00  0.00    -0.468 OA
ATOM     32  C   UNL     1      34.981 -10.803 -25.244  0.00  0.00    +0.253 C 
ENDBRANCH  26  31
BRANCH  28  33
ATOM     33  O   UNL     1      32.120 -10.128 -27.205  0.00  0.00    -0.468 OA
ATOM     34  C   UNL     1      32.116  -9.409 -25.973  0.00  0.00    +0.253 C 
ENDBRANCH  28  33
ENDBRANCH  20  24
ENDBRANCH   2  20
TORSDOF 5
ENDMDL
