MODEL 1
REMARK VINA RESULT:     -12.0      0.000      0.000
REMARK  Name = 46937030
REMARK  7 active torsions:
REMARK  status: ('A' for Active; 'I' for Inactive)
REMARK    1  A    between atoms: C_3  and  C_10
REMARK    2  A    between atoms: C_7  and  C_25
REMARK    3  A    between atoms: N_9  and  C_12
REMARK    4  A    between atoms: C_12  and  C_13
REMARK    5  A    between atoms: C_18  and  C_21
REMARK    6  A    between atoms: C_25  and  N_26
REMARK    7  A    between atoms: N_26  and  C_29
REMARK                            x       y       z     vdW  Elec       q    Type
REMARK                         _______ _______ _______ _____ _____    ______ ____
ROOT
ATOM      1  O   UNL     1      35.228 -25.327 -12.196  0.00  0.00    -0.277 OA
ATOM      2  N   UNL     1      35.765 -24.023 -14.026  0.00  0.00    -0.275 N 
ATOM      3  C   UNL     1      35.518 -22.939 -14.975  0.00  0.00    +0.152 C 
ATOM      4  C   UNL     1      36.907 -22.526 -15.452  0.00  0.00    +0.031 C 
ATOM      5  C   UNL     1      37.146 -24.481 -14.103  0.00  0.00    +0.094 C 
ATOM      6  C   UNL     1      37.717 -23.816 -15.344  0.00  0.00    +0.024 C 
ATOM      7  C   UNL     1      34.904 -24.501 -13.051  0.00  0.00    +0.204 C 
ENDROOT
BRANCH   3  10
ATOM      8  O   UNL     1      34.361 -24.670 -16.143  0.00  0.00    -0.273 OA
ATOM      9  N   UNL     1      34.448 -22.540 -17.079  0.00  0.00    -0.299 N 
ATOM     10  C   UNL     1      34.711 -23.493 -16.110  0.00  0.00    +0.241 C 
ATOM     11  H   UNL     1      34.782 -21.625 -16.940  0.00  0.00    +0.150 HD
BRANCH   9  12
ATOM     12  C   UNL     1      33.706 -22.824 -18.287  0.00  0.00    +0.116 C 
BRANCH  12  13
ATOM     13  C   UNL     1      33.858 -21.734 -19.309  0.00  0.00    -0.003 C 
ATOM     14  C   UNL     1      32.726 -21.127 -19.853  0.00  0.00    -0.003 C 
ATOM     15  C   UNL     1      35.130 -21.330 -19.714  0.00  0.00    -0.003 C 
ATOM     16  C   UNL     1      32.866 -20.114 -20.802  0.00  0.00    +0.002 C 
ATOM     17  C   UNL     1      35.270 -20.317 -20.663  0.00  0.00    +0.002 C 
ATOM     18  C   UNL     1      34.139 -19.709 -21.206  0.00  0.00    +0.031 C 
BRANCH  18  21
ATOM     19  N   UNL     1      33.534 -18.648 -23.368  0.00  0.00    -0.343 N 
ATOM     20  N   UNL     1      35.149 -17.674 -21.990  0.00  0.00    -0.285 NA
ATOM     21  C   UNL     1      34.285 -18.653 -22.195  0.00  0.00    +0.117 C 
ATOM     22  H   UNL     1      33.649 -17.923 -24.024  0.00  0.00    +0.144 HD
ATOM     23  H   UNL     1      32.887 -19.370 -23.541  0.00  0.00    +0.144 HD
ATOM     24  H   UNL     1      35.251 -16.958 -22.659  0.00  0.00    +0.188 HD
ENDBRANCH  18  21
ENDBRANCH  12  13
ENDBRANCH   9  12
ENDBRANCH   3  10
BRANCH   7  25
ATOM     25  C   UNL     1      33.501 -23.948 -13.077  0.00  0.00    +0.006 C 
BRANCH  25  26
ATOM     26  N   UNL     1      32.673 -24.923 -13.769  0.00  0.00    +0.391 N 
ATOM     27  H   UNL     1      32.930 -24.940 -14.757  0.00  0.00    -0.084 HD
ATOM     28  H   UNL     1      32.825 -25.840 -13.349  0.00  0.00    -0.084 HD
BRANCH  26  29
ATOM     29  C   UNL     1      31.254 -24.574 -13.645  0.00  0.00    -0.061 C 
ATOM     30  C   UNL     1      31.051 -23.070 -13.873  0.00  0.00    -0.021 C 
ATOM     31  C   UNL     1      30.431 -25.525 -14.527  0.00  0.00    -0.021 C 
ATOM     32  C   UNL     1      28.952 -25.158 -14.663  0.00  0.00    -0.002 C 
ATOM     33  C   UNL     1      31.417 -22.506 -15.246  0.00  0.00    -0.002 C 
ATOM     34  C   UNL     1      28.580 -24.508 -15.998  0.00  0.00    -0.000 C 
ATOM     35  C   UNL     1      30.627 -23.013 -16.452  0.00  0.00    -0.000 C 
ATOM     36  C   UNL     1      29.114 -23.096 -16.251  0.00  0.00    -0.000 C 
ENDBRANCH  26  29
ENDBRANCH  25  26
ENDBRANCH   7  25
TORSDOF 7
ENDMDL
MODEL 2
REMARK VINA RESULT:     -11.4      2.174      6.598
REMARK  Name = 46937030
REMARK  7 active torsions:
REMARK  status: ('A' for Active; 'I' for Inactive)
REMARK    1  A    between atoms: C_3  and  C_10
REMARK    2  A    between atoms: C_7  and  C_25
REMARK    3  A    between atoms: N_9  and  C_12
REMARK    4  A    between atoms: C_12  and  C_13
REMARK    5  A    between atoms: C_18  and  C_21
REMARK    6  A    between atoms: C_25  and  N_26
REMARK    7  A    between atoms: N_26  and  C_29
REMARK                            x       y       z     vdW  Elec       q    Type
REMARK                         _______ _______ _______ _____ _____    ______ ____
ROOT
ATOM      1  O   UNL     1      37.928 -22.434 -16.264  0.00  0.00    -0.277 OA
ATOM      2  N   UNL     1      36.923 -24.210 -15.182  0.00  0.00    -0.275 N 
ATOM      3  C   UNL     1      35.831 -25.158 -14.963  0.00  0.00    +0.152 C 
ATOM      4  C   UNL     1      36.506 -26.382 -14.352  0.00  0.00    +0.031 C 
ATOM      5  C   UNL     1      38.137 -24.645 -14.504  0.00  0.00    +0.094 C 
ATOM      6  C   UNL     1      37.703 -25.793 -13.609  0.00  0.00    +0.024 C 
ATOM      7  C   UNL     1      36.926 -23.111 -16.027  0.00  0.00    +0.204 C 
ENDROOT
BRANCH   3  10
ATOM      8  O   UNL     1      35.251 -23.816 -13.076  0.00  0.00    -0.273 OA
ATOM      9  N   UNL     1      33.561 -24.907 -14.247  0.00  0.00    -0.299 N 
ATOM     10  C   UNL     1      34.871 -24.542 -13.991  0.00  0.00    +0.241 C 
ATOM     11  H   UNL     1      33.379 -25.496 -15.015  0.00  0.00    +0.150 HD
BRANCH   9  12
ATOM     12  C   UNL     1      32.445 -24.466 -13.441  0.00  0.00    +0.116 C 
BRANCH  12  13
ATOM     13  C   UNL     1      31.220 -24.208 -14.271  0.00  0.00    -0.003 C 
ATOM     14  C   UNL     1      31.210 -23.158 -15.190  0.00  0.00    -0.003 C 
ATOM     15  C   UNL     1      30.094 -25.017 -14.123  0.00  0.00    -0.003 C 
ATOM     16  C   UNL     1      30.072 -22.918 -15.961  0.00  0.00    +0.002 C 
ATOM     17  C   UNL     1      28.956 -24.777 -14.895  0.00  0.00    +0.002 C 
ATOM     18  C   UNL     1      28.946 -23.727 -15.814  0.00  0.00    +0.031 C 
BRANCH  18  21
ATOM     19  N   UNL     1      27.006 -22.317 -16.456  0.00  0.00    -0.343 N 
ATOM     20  N   UNL     1      27.378 -24.364 -17.520  0.00  0.00    -0.285 NA
ATOM     21  C   UNL     1      27.761 -23.478 -16.618  0.00  0.00    +0.117 C 
ATOM     22  H   UNL     1      26.207 -22.169 -17.012  0.00  0.00    +0.144 HD
ATOM     23  H   UNL     1      27.272 -21.646 -15.787  0.00  0.00    +0.144 HD
ATOM     24  H   UNL     1      26.575 -24.197 -18.065  0.00  0.00    +0.188 HD
ENDBRANCH  18  21
ENDBRANCH  12  13
ENDBRANCH   9  12
ENDBRANCH   3  10
BRANCH   7  25
ATOM     25  C   UNL     1      35.607 -22.765 -16.669  0.00  0.00    +0.006 C 
BRANCH  25  26
ATOM     26  N   UNL     1      35.794 -21.505 -17.371  0.00  0.00    +0.391 N 
ATOM     27  H   UNL     1      35.071 -20.847 -17.077  0.00  0.00    -0.084 HD
ATOM     28  H   UNL     1      36.718 -21.137 -17.146  0.00  0.00    -0.084 HD
BRANCH  26  29
ATOM     29  C   UNL     1      35.703 -21.705 -18.820  0.00  0.00    -0.061 C 
ATOM     30  C   UNL     1      34.448 -22.514 -19.171  0.00  0.00    -0.021 C 
ATOM     31  C   UNL     1      35.869 -20.347 -19.520  0.00  0.00    -0.021 C 
ATOM     32  C   UNL     1      35.595 -20.361 -21.025  0.00  0.00    -0.002 C 
ATOM     33  C   UNL     1      33.090 -21.899 -18.832  0.00  0.00    -0.002 C 
ATOM     34  C   UNL     1      34.244 -19.765 -21.429  0.00  0.00    -0.000 C 
ATOM     35  C   UNL     1      32.708 -20.597 -19.535  0.00  0.00    -0.000 C 
ATOM     36  C   UNL     1      32.995 -20.560 -21.037  0.00  0.00    -0.000 C 
ENDBRANCH  26  29
ENDBRANCH  25  26
ENDBRANCH   7  25
TORSDOF 7
ENDMDL
MODEL 3
REMARK VINA RESULT:     -10.6      6.411     12.298
REMARK  Name = 46937030
REMARK  7 active torsions:
REMARK  status: ('A' for Active; 'I' for Inactive)
REMARK    1  A    between atoms: C_3  and  C_10
REMARK    2  A    between atoms: C_7  and  C_25
REMARK    3  A    between atoms: N_9  and  C_12
REMARK    4  A    between atoms: C_12  and  C_13
REMARK    5  A    between atoms: C_18  and  C_21
REMARK    6  A    between atoms: C_25  and  N_26
REMARK    7  A    between atoms: N_26  and  C_29
REMARK                            x       y       z     vdW  Elec       q    Type
REMARK                         _______ _______ _______ _____ _____    ______ ____
ROOT
ATOM      1  O   UNL     1      32.973 -13.057 -26.867  0.00  0.00    -0.277 OA
ATOM      2  N   UNL     1      32.601 -15.281 -26.363  0.00  0.00    -0.275 N 
ATOM      3  C   UNL     1      32.411 -16.396 -25.437  0.00  0.00    +0.152 C 
ATOM      4  C   UNL     1      31.576 -17.404 -26.221  0.00  0.00    +0.031 C 
ATOM      5  C   UNL     1      32.197 -15.647 -27.714  0.00  0.00    +0.094 C 
ATOM      6  C   UNL     1      31.984 -17.152 -27.670  0.00  0.00    +0.024 C 
ATOM      7  C   UNL     1      32.964 -13.980 -26.050  0.00  0.00    +0.204 C 
ENDROOT
BRANCH   3  10
ATOM      8  O   UNL     1      34.622 -17.117 -25.974  0.00  0.00    -0.273 OA
ATOM      9  N   UNL     1      33.880 -17.293 -23.774  0.00  0.00    -0.299 N 
ATOM     10  C   UNL     1      33.760 -16.963 -25.113  0.00  0.00    +0.241 C 
ATOM     11  H   UNL     1      33.116 -17.121 -23.177  0.00  0.00    +0.150 HD
BRANCH   9  12
ATOM     12  C   UNL     1      35.075 -17.879 -23.208  0.00  0.00    +0.116 C 
BRANCH  12  13
ATOM     13  C   UNL     1      34.755 -18.895 -22.149  0.00  0.00    -0.003 C 
ATOM     14  C   UNL     1      35.781 -19.451 -21.385  0.00  0.00    -0.003 C 
ATOM     15  C   UNL     1      33.433 -19.282 -21.931  0.00  0.00    -0.003 C 
ATOM     16  C   UNL     1      35.485 -20.395 -20.402  0.00  0.00    +0.002 C 
ATOM     17  C   UNL     1      33.137 -20.226 -20.947  0.00  0.00    +0.002 C 
ATOM     18  C   UNL     1      34.163 -20.782 -20.182  0.00  0.00    +0.031 C 
BRANCH  18  21
ATOM     19  N   UNL     1      32.538 -22.127 -18.873  0.00  0.00    -0.343 N 
ATOM     20  N   UNL     1      34.830 -22.330 -18.469  0.00  0.00    -0.285 NA
ATOM     21  C   UNL     1      33.853 -21.765 -19.157  0.00  0.00    +0.117 C 
ATOM     22  H   UNL     1      32.351 -22.796 -18.175  0.00  0.00    +0.144 HD
ATOM     23  H   UNL     1      31.795 -21.716 -19.372  0.00  0.00    +0.144 HD
ATOM     24  H   UNL     1      34.622 -22.995 -17.774  0.00  0.00    +0.188 HD
ENDBRANCH  18  21
ENDBRANCH  12  13
ENDBRANCH   9  12
ENDBRANCH   3  10
BRANCH   7  25
ATOM     25  C   UNL     1      33.360 -13.729 -24.617  0.00  0.00    +0.006 C 
BRANCH  25  26
ATOM     26  N   UNL     1      32.258 -13.018 -23.990  0.00  0.00    +0.391 N 
ATOM     27  H   UNL     1      31.949 -12.265 -24.607  0.00  0.00    -0.084 HD
ATOM     28  H   UNL     1      31.494 -13.673 -23.826  0.00  0.00    -0.084 HD
BRANCH  26  29
ATOM     29  C   UNL     1      32.676 -12.447 -22.706  0.00  0.00    -0.061 C 
ATOM     30  C   UNL     1      33.187 -11.013 -22.899  0.00  0.00    -0.021 C 
ATOM     31  C   UNL     1      31.549 -12.649 -21.682  0.00  0.00    -0.021 C 
ATOM     32  C   UNL     1      31.754 -11.926 -20.349  0.00  0.00    -0.002 C 
ATOM     33  C   UNL     1      32.195  -9.972 -23.422  0.00  0.00    -0.002 C 
ATOM     34  C   UNL     1      30.913 -10.658 -20.180  0.00  0.00    -0.000 C 
ATOM     35  C   UNL     1      30.982  -9.652 -22.549  0.00  0.00    -0.000 C 
ATOM     36  C   UNL     1      31.281  -9.462 -21.062  0.00  0.00    -0.000 C 
ENDBRANCH  26  29
ENDBRANCH  25  26
ENDBRANCH   7  25
TORSDOF 7
ENDMDL
MODEL 4
REMARK VINA RESULT:     -10.5      6.904     13.326
REMARK  Name = 46937030
REMARK  7 active torsions:
REMARK  status: ('A' for Active; 'I' for Inactive)
REMARK    1  A    between atoms: C_3  and  C_10
REMARK    2  A    between atoms: C_7  and  C_25
REMARK    3  A    between atoms: N_9  and  C_12
REMARK    4  A    between atoms: C_12  and  C_13
REMARK    5  A    between atoms: C_18  and  C_21
REMARK    6  A    between atoms: C_25  and  N_26
REMARK    7  A    between atoms: N_26  and  C_29
REMARK                            x       y       z     vdW  Elec       q    Type
REMARK                         _______ _______ _______ _____ _____    ______ ____
ROOT
ATOM      1  O   UNL     1      32.981 -13.309 -27.372  0.00  0.00    -0.277 OA
ATOM      2  N   UNL     1      32.632 -15.420 -26.502  0.00  0.00    -0.275 N 
ATOM      3  C   UNL     1      32.476 -16.369 -25.401  0.00  0.00    +0.152 C 
ATOM      4  C   UNL     1      31.620 -17.490 -25.984  0.00  0.00    +0.031 C 
ATOM      5  C   UNL     1      32.187 -16.001 -27.762  0.00  0.00    +0.094 C 
ATOM      6  C   UNL     1      31.981 -17.478 -27.467  0.00  0.00    +0.024 C 
ATOM      7  C   UNL     1      33.000 -14.087 -26.417  0.00  0.00    +0.204 C 
ENDROOT
BRANCH   3  10
ATOM      8  O   UNL     1      34.778 -16.841 -25.820  0.00  0.00    -0.273 OA
ATOM      9  N   UNL     1      33.872 -17.393 -23.748  0.00  0.00    -0.299 N 
ATOM     10  C   UNL     1      33.836 -16.878 -25.032  0.00  0.00    +0.241 C 
ATOM     11  H   UNL     1      33.048 -17.367 -23.209  0.00  0.00    +0.150 HD
BRANCH   9  12
ATOM     12  C   UNL     1      35.060 -17.967 -23.158  0.00  0.00    +0.116 C 
BRANCH  12  13
ATOM     13  C   UNL     1      34.729 -18.976 -22.097  0.00  0.00    -0.003 C 
ATOM     14  C   UNL     1      35.753 -19.588 -21.373  0.00  0.00    -0.003 C 
ATOM     15  C   UNL     1      33.398 -19.303 -21.835  0.00  0.00    -0.003 C 
ATOM     16  C   UNL     1      35.446 -20.526 -20.387  0.00  0.00    +0.002 C 
ATOM     17  C   UNL     1      33.091 -20.241 -20.849  0.00  0.00    +0.002 C 
ATOM     18  C   UNL     1      34.115 -20.851 -20.125  0.00  0.00    +0.031 C 
BRANCH  18  21
ATOM     19  N   UNL     1      32.481 -22.231 -18.863  0.00  0.00    -0.343 N 
ATOM     20  N   UNL     1      34.760 -22.349 -18.358  0.00  0.00    -0.285 NA
ATOM     21  C   UNL     1      33.795 -21.828 -19.096  0.00  0.00    +0.117 C 
ATOM     22  H   UNL     1      32.287 -22.894 -18.161  0.00  0.00    +0.144 HD
ATOM     23  H   UNL     1      31.748 -21.852 -19.399  0.00  0.00    +0.144 HD
ATOM     24  H   UNL     1      34.544 -23.010 -17.661  0.00  0.00    +0.188 HD
ENDBRANCH  18  21
ENDBRANCH  12  13
ENDBRANCH   9  12
ENDBRANCH   3  10
BRANCH   7  25
ATOM     25  C   UNL     1      33.441 -13.606 -25.057  0.00  0.00    +0.006 C 
BRANCH  25  26
ATOM     26  N   UNL     1      32.655 -12.422 -24.750  0.00  0.00    +0.391 N 
ATOM     27  H   UNL     1      32.280 -12.034 -25.617  0.00  0.00    -0.084 HD
ATOM     28  H   UNL     1      31.895 -12.684 -24.123  0.00  0.00    -0.084 HD
BRANCH  26  29
ATOM     29  C   UNL     1      33.485 -11.409 -24.090  0.00  0.00    -0.061 C 
ATOM     30  C   UNL     1      34.645 -10.989 -25.003  0.00  0.00    -0.021 C 
ATOM     31  C   UNL     1      32.577 -10.288 -23.564  0.00  0.00    -0.021 C 
ATOM     32  C   UNL     1      33.315  -9.059 -23.030  0.00  0.00    -0.002 C 
ATOM     33  C   UNL     1      34.293 -10.320 -26.332  0.00  0.00    -0.002 C 
ATOM     34  C   UNL     1      33.304  -7.853 -23.974  0.00  0.00    -0.000 C 
ATOM     35  C   UNL     1      33.567  -8.976 -26.276  0.00  0.00    -0.000 C 
ATOM     36  C   UNL     1      34.124  -7.977 -25.261  0.00  0.00    -0.000 C 
ENDBRANCH  26  29
ENDBRANCH  25  26
ENDBRANCH   7  25
TORSDOF 7
ENDMDL
MODEL 5
REMARK VINA RESULT:     -10.3      6.426     12.065
REMARK  Name = 46937030
REMARK  7 active torsions:
REMARK  status: ('A' for Active; 'I' for Inactive)
REMARK    1  A    between atoms: C_3  and  C_10
REMARK    2  A    between atoms: C_7  and  C_25
REMARK    3  A    between atoms: N_9  and  C_12
REMARK    4  A    between atoms: C_12  and  C_13
REMARK    5  A    between atoms: C_18  and  C_21
REMARK    6  A    between atoms: C_25  and  N_26
REMARK    7  A    between atoms: N_26  and  C_29
REMARK                            x       y       z     vdW  Elec       q    Type
REMARK                         _______ _______ _______ _____ _____    ______ ____
ROOT
ATOM      1  O   UNL     1      33.378 -12.589 -25.469  0.00  0.00    -0.277 OA
ATOM      2  N   UNL     1      33.358 -14.878 -25.162  0.00  0.00    -0.275 N 
ATOM      3  C   UNL     1      33.044 -16.093 -24.412  0.00  0.00    +0.152 C 
ATOM      4  C   UNL     1      32.914 -17.177 -25.477  0.00  0.00    +0.031 C 
ATOM      5  C   UNL     1      33.701 -15.191 -26.544  0.00  0.00    +0.094 C 
ATOM      6  C   UNL     1      33.854 -16.703 -26.583  0.00  0.00    +0.024 C 
ATOM      7  C   UNL     1      33.223 -13.567 -24.736  0.00  0.00    +0.204 C 
ENDROOT
BRANCH   3  10
ATOM      8  O   UNL     1      35.101 -15.572 -23.318  0.00  0.00    -0.273 OA
ATOM      9  N   UNL     1      34.113 -17.644 -22.935  0.00  0.00    -0.299 N 
ATOM     10  C   UNL     1      34.197 -16.383 -23.499  0.00  0.00    +0.241 C 
ATOM     11  H   UNL     1      33.336 -18.207 -23.157  0.00  0.00    +0.150 HD
BRANCH   9  12
ATOM     12  C   UNL     1      35.111 -18.177 -22.035  0.00  0.00    +0.116 C 
BRANCH  12  13
ATOM     13  C   UNL     1      34.575 -19.308 -21.207  0.00  0.00    -0.003 C 
ATOM     14  C   UNL     1      35.453 -20.146 -20.519  0.00  0.00    -0.003 C 
ATOM     15  C   UNL     1      33.199 -19.522 -21.126  0.00  0.00    -0.003 C 
ATOM     16  C   UNL     1      34.955 -21.197 -19.749  0.00  0.00    +0.002 C 
ATOM     17  C   UNL     1      32.701 -20.574 -20.356  0.00  0.00    +0.002 C 
ATOM     18  C   UNL     1      33.579 -21.411 -19.667  0.00  0.00    +0.031 C 
BRANCH  18  21
ATOM     19  N   UNL     1      31.974 -22.326 -18.007  0.00  0.00    -0.343 N 
ATOM     20  N   UNL     1      33.621 -23.700 -18.936  0.00  0.00    -0.285 NA
ATOM     21  C   UNL     1      33.059 -22.506 -18.864  0.00  0.00    +0.117 C 
ATOM     22  H   UNL     1      31.639 -23.082 -17.473  0.00  0.00    +0.144 HD
ATOM     23  H   UNL     1      31.544 -21.443 -17.937  0.00  0.00    +0.144 HD
ATOM     24  H   UNL     1      33.271 -24.442 -18.393  0.00  0.00    +0.188 HD
ENDBRANCH  18  21
ENDBRANCH  12  13
ENDBRANCH   9  12
ENDBRANCH   3  10
BRANCH   7  25
ATOM     25  C   UNL     1      32.865 -13.376 -23.284  0.00  0.00    +0.006 C 
BRANCH  25  26
ATOM     26  N   UNL     1      33.194 -12.001 -22.942  0.00  0.00    +0.391 N 
ATOM     27  H   UNL     1      33.778 -11.994 -22.105  0.00  0.00    -0.084 HD
ATOM     28  H   UNL     1      33.694 -11.579 -23.724  0.00  0.00    -0.084 HD
BRANCH  26  29
ATOM     29  C   UNL     1      31.975 -11.228 -22.686  0.00  0.00    -0.061 C 
ATOM     30  C   UNL     1      31.116 -11.921 -21.619  0.00  0.00    -0.021 C 
ATOM     31  C   UNL     1      32.362  -9.765 -22.420  0.00  0.00    -0.021 C 
ATOM     32  C   UNL     1      31.216  -8.874 -21.935  0.00  0.00    -0.002 C 
ATOM     33  C   UNL     1      31.714 -12.078 -20.221  0.00  0.00    -0.002 C 
ATOM     34  C   UNL     1      31.246  -8.562 -20.437  0.00  0.00    -0.000 C 
ATOM     35  C   UNL     1      32.035 -10.803 -19.442  0.00  0.00    -0.000 C 
ATOM     36  C   UNL     1      30.952  -9.724 -19.484  0.00  0.00    -0.000 C 
ENDBRANCH  26  29
ENDBRANCH  25  26
ENDBRANCH   7  25
TORSDOF 7
ENDMDL
MODEL 6
REMARK VINA RESULT:     -10.0      1.642      2.683
REMARK  Name = 46937030
REMARK  7 active torsions:
REMARK  status: ('A' for Active; 'I' for Inactive)
REMARK    1  A    between atoms: C_3  and  C_10
REMARK    2  A    between atoms: C_7  and  C_25
REMARK    3  A    between atoms: N_9  and  C_12
REMARK    4  A    between atoms: C_12  and  C_13
REMARK    5  A    between atoms: C_18  and  C_21
REMARK    6  A    between atoms: C_25  and  N_26
REMARK    7  A    between atoms: N_26  and  C_29
REMARK                            x       y       z     vdW  Elec       q    Type
REMARK                         _______ _______ _______ _____ _____    ______ ____
ROOT
ATOM      1  O   UNL     1      32.927 -24.959 -12.786  0.00  0.00    -0.277 OA
ATOM      2  N   UNL     1      35.051 -24.072 -12.990  0.00  0.00    -0.275 N 
ATOM      3  C   UNL     1      36.009 -23.070 -13.454  0.00  0.00    +0.152 C 
ATOM      4  C   UNL     1      37.149 -23.135 -12.442  0.00  0.00    +0.031 C 
ATOM      5  C   UNL     1      35.637 -24.919 -11.960  0.00  0.00    +0.094 C 
ATOM      6  C   UNL     1      37.120 -24.586 -11.968  0.00  0.00    +0.024 C 
ATOM      7  C   UNL     1      33.709 -24.170 -13.321  0.00  0.00    +0.204 C 
ENDROOT
BRANCH   3  10
ATOM      8  O   UNL     1      36.732 -24.652 -15.089  0.00  0.00    -0.273 OA
ATOM      9  N   UNL     1      36.620 -22.401 -15.670  0.00  0.00    -0.299 N 
ATOM     10  C   UNL     1      36.484 -23.481 -14.815  0.00  0.00    +0.241 C 
ATOM     11  H   UNL     1      36.388 -21.504 -15.334  0.00  0.00    +0.150 HD
BRANCH   9  12
ATOM     12  C   UNL     1      37.084 -22.524 -17.033  0.00  0.00    +0.116 C 
BRANCH  12  13
ATOM     13  C   UNL     1      36.098 -21.959 -18.016  0.00  0.00    -0.003 C 
ATOM     14  C   UNL     1      36.521 -21.040 -18.976  0.00  0.00    -0.003 C 
ATOM     15  C   UNL     1      34.761 -22.354 -17.968  0.00  0.00    -0.003 C 
ATOM     16  C   UNL     1      35.606 -20.515 -19.889  0.00  0.00    +0.002 C 
ATOM     17  C   UNL     1      33.846 -21.829 -18.881  0.00  0.00    +0.002 C 
ATOM     18  C   UNL     1      34.269 -20.910 -19.841  0.00  0.00    +0.031 C 
BRANCH  18  21
ATOM     19  N   UNL     1      33.732 -19.587 -21.873  0.00  0.00    -0.343 N 
ATOM     20  N   UNL     1      32.023 -20.597 -20.639  0.00  0.00    -0.285 NA
ATOM     21  C   UNL     1      33.315 -20.363 -20.793  0.00  0.00    +0.117 C 
ATOM     22  H   UNL     1      33.068 -19.227 -22.505  0.00  0.00    +0.144 HD
ATOM     23  H   UNL     1      34.689 -19.399 -22.003  0.00  0.00    +0.144 HD
ATOM     24  H   UNL     1      31.376 -20.227 -21.282  0.00  0.00    +0.188 HD
ENDBRANCH  18  21
ENDBRANCH  12  13
ENDBRANCH   9  12
ENDBRANCH   3  10
BRANCH   7  25
ATOM     25  C   UNL     1      33.223 -23.237 -14.401  0.00  0.00    +0.006 C 
BRANCH  25  26
ATOM     26  N   UNL     1      31.814 -22.988 -14.145  0.00  0.00    +0.391 N 
ATOM     27  H   UNL     1      31.449 -23.719 -13.534  0.00  0.00    -0.084 HD
ATOM     28  H   UNL     1      31.716 -22.076 -13.700  0.00  0.00    -0.084 HD
BRANCH  26  29
ATOM     29  C   UNL     1      31.054 -22.986 -15.400  0.00  0.00    -0.061 C 
ATOM     30  C   UNL     1      30.944 -24.410 -15.961  0.00  0.00    -0.021 C 
ATOM     31  C   UNL     1      29.738 -22.223 -15.182  0.00  0.00    -0.021 C 
ATOM     32  C   UNL     1      28.745 -22.310 -16.343  0.00  0.00    -0.002 C 
ATOM     33  C   UNL     1      30.199 -25.447 -15.119  0.00  0.00    -0.002 C 
ATOM     34  C   UNL     1      27.573 -23.266 -16.104  0.00  0.00    -0.000 C 
ATOM     35  C   UNL     1      28.714 -25.206 -14.853  0.00  0.00    -0.000 C 
ATOM     36  C   UNL     1      27.899 -24.761 -16.068  0.00  0.00    -0.000 C 
ENDBRANCH  26  29
ENDBRANCH  25  26
ENDBRANCH   7  25
TORSDOF 7
ENDMDL
MODEL 7
REMARK VINA RESULT:      -9.9      1.909      4.972
REMARK  Name = 46937030
REMARK  7 active torsions:
REMARK  status: ('A' for Active; 'I' for Inactive)
REMARK    1  A    between atoms: C_3  and  C_10
REMARK    2  A    between atoms: C_7  and  C_25
REMARK    3  A    between atoms: N_9  and  C_12
REMARK    4  A    between atoms: C_12  and  C_13
REMARK    5  A    between atoms: C_18  and  C_21
REMARK    6  A    between atoms: C_25  and  N_26
REMARK    7  A    between atoms: N_26  and  C_29
REMARK                            x       y       z     vdW  Elec       q    Type
REMARK                         _______ _______ _______ _____ _____    ______ ____
ROOT
ATOM      1  O   UNL     1      32.662 -23.728 -12.981  0.00  0.00    -0.277 OA
ATOM      2  N   UNL     1      33.006 -23.535 -15.257  0.00  0.00    -0.275 N 
ATOM      3  C   UNL     1      33.739 -23.800 -16.495  0.00  0.00    +0.152 C 
ATOM      4  C   UNL     1      32.685 -23.689 -17.592  0.00  0.00    +0.031 C 
ATOM      5  C   UNL     1      31.679 -23.004 -15.538  0.00  0.00    +0.094 C 
ATOM      6  C   UNL     1      31.686 -22.684 -17.024  0.00  0.00    +0.024 C 
ATOM      7  C   UNL     1      33.391 -23.859 -13.966  0.00  0.00    +0.204 C 
ENDROOT
BRANCH   3  10
ATOM      8  O   UNL     1      35.221 -22.111 -15.689  0.00  0.00    -0.273 OA
ATOM      9  N   UNL     1      35.145 -22.549 -17.974  0.00  0.00    -0.299 N 
ATOM     10  C   UNL     1      34.782 -22.735 -16.651  0.00  0.00    +0.241 C 
ATOM     11  H   UNL     1      34.721 -23.113 -18.661  0.00  0.00    +0.150 HD
BRANCH   9  12
ATOM     12  C   UNL     1      36.116 -21.565 -18.397  0.00  0.00    +0.116 C 
BRANCH  12  13
ATOM     13  C   UNL     1      35.613 -20.735 -19.543  0.00  0.00    -0.003 C 
ATOM     14  C   UNL     1      34.276 -20.824 -19.932  0.00  0.00    -0.003 C 
ATOM     15  C   UNL     1      36.481 -19.876 -20.216  0.00  0.00    -0.003 C 
ATOM     16  C   UNL     1      33.808 -20.053 -20.997  0.00  0.00    +0.002 C 
ATOM     17  C   UNL     1      36.012 -19.105 -21.280  0.00  0.00    +0.002 C 
ATOM     18  C   UNL     1      34.676 -19.193 -21.670  0.00  0.00    +0.031 C 
BRANCH  18  21
ATOM     19  N   UNL     1      33.242 -18.885 -23.674  0.00  0.00    -0.343 N 
ATOM     20  N   UNL     1      34.647 -17.162 -22.954  0.00  0.00    -0.285 NA
ATOM     21  C   UNL     1      34.188 -18.388 -22.779  0.00  0.00    +0.117 C 
ATOM     22  H   UNL     1      32.926 -18.322 -24.417  0.00  0.00    +0.144 HD
ATOM     23  H   UNL     1      32.890 -19.797 -23.562  0.00  0.00    +0.144 HD
ATOM     24  H   UNL     1      34.318 -16.616 -23.705  0.00  0.00    +0.188 HD
ENDBRANCH  18  21
ENDBRANCH  12  13
ENDBRANCH   9  12
ENDBRANCH   3  10
BRANCH   7  25
ATOM     25  C   UNL     1      34.789 -24.401 -13.807  0.00  0.00    +0.006 C 
BRANCH  25  26
ATOM     26  N   UNL     1      34.878 -24.959 -12.468  0.00  0.00    +0.391 N 
ATOM     27  H   UNL     1      34.417 -24.329 -11.810  0.00  0.00    -0.084 HD
ATOM     28  H   UNL     1      34.422 -25.871 -12.460  0.00  0.00    -0.084 HD
BRANCH  26  29
ATOM     29  C   UNL     1      36.280 -25.127 -12.072  0.00  0.00    -0.061 C 
ATOM     30  C   UNL     1      36.752 -26.557 -12.369  0.00  0.00    -0.021 C 
ATOM     31  C   UNL     1      37.108 -23.984 -12.679  0.00  0.00    -0.021 C 
ATOM     32  C   UNL     1      38.623 -24.135 -12.525  0.00  0.00    -0.002 C 
ATOM     33  C   UNL     1      36.759 -27.011 -13.829  0.00  0.00    -0.002 C 
ATOM     34  C   UNL     1      39.349 -24.579 -13.797  0.00  0.00    -0.000 C 
ATOM     35  C   UNL     1      37.687 -26.275 -14.794  0.00  0.00    -0.000 C 
ATOM     36  C   UNL     1      39.099 -26.014 -14.269  0.00  0.00    -0.000 C 
ENDBRANCH  26  29
ENDBRANCH  25  26
ENDBRANCH   7  25
TORSDOF 7
ENDMDL
MODEL 8
REMARK VINA RESULT:      -9.7      1.701      4.799
REMARK  Name = 46937030
REMARK  7 active torsions:
REMARK  status: ('A' for Active; 'I' for Inactive)
REMARK    1  A    between atoms: C_3  and  C_10
REMARK    2  A    between atoms: C_7  and  C_25
REMARK    3  A    between atoms: N_9  and  C_12
REMARK    4  A    between atoms: C_12  and  C_13
REMARK    5  A    between atoms: C_18  and  C_21
REMARK    6  A    between atoms: C_25  and  N_26
REMARK    7  A    between atoms: N_26  and  C_29
REMARK                            x       y       z     vdW  Elec       q    Type
REMARK                         _______ _______ _______ _____ _____    ______ ____
ROOT
ATOM      1  O   UNL     1      30.712 -24.288 -12.648  0.00  0.00    -0.277 OA
ATOM      2  N   UNL     1      30.939 -23.733 -14.879  0.00  0.00    -0.275 N 
ATOM      3  C   UNL     1      31.495 -23.911 -16.219  0.00  0.00    +0.152 C 
ATOM      4  C   UNL     1      30.431 -23.339 -17.152  0.00  0.00    +0.031 C 
ATOM      5  C   UNL     1      29.773 -22.859 -14.908  0.00  0.00    +0.094 C 
ATOM      6  C   UNL     1      29.759 -22.261 -16.305  0.00  0.00    +0.024 C 
ATOM      7  C   UNL     1      31.316 -24.389 -13.718  0.00  0.00    +0.204 C 
ENDROOT
BRANCH   3  10
ATOM      8  O   UNL     1      33.170 -22.444 -15.360  0.00  0.00    -0.273 OA
ATOM      9  N   UNL     1      33.359 -23.213 -17.549  0.00  0.00    -0.299 N 
ATOM     10  C   UNL     1      32.760 -23.112 -16.305  0.00  0.00    +0.241 C 
ATOM     11  H   UNL     1      32.934 -23.784 -18.230  0.00  0.00    +0.150 HD
BRANCH   9  12
ATOM     12  C   UNL     1      34.579 -22.521 -17.898  0.00  0.00    +0.116 C 
BRANCH  12  13
ATOM     13  C   UNL     1      34.385 -21.591 -19.061  0.00  0.00    -0.003 C 
ATOM     14  C   UNL     1      33.097 -21.291 -19.505  0.00  0.00    -0.003 C 
ATOM     15  C   UNL     1      35.491 -21.028 -19.697  0.00  0.00    -0.003 C 
ATOM     16  C   UNL     1      32.915 -20.428 -20.585  0.00  0.00    +0.002 C 
ATOM     17  C   UNL     1      35.310 -20.165 -20.777  0.00  0.00    +0.002 C 
ATOM     18  C   UNL     1      34.022 -19.864 -21.221  0.00  0.00    +0.031 C 
BRANCH  18  21
ATOM     19  N   UNL     1      34.594 -17.803 -22.482  0.00  0.00    -0.343 N 
ATOM     20  N   UNL     1      32.923 -19.236 -23.264  0.00  0.00    -0.285 NA
ATOM     21  C   UNL     1      33.833 -18.963 -22.346  0.00  0.00    +0.117 C 
ATOM     22  H   UNL     1      34.449 -17.207 -23.252  0.00  0.00    +0.144 HD
ATOM     23  H   UNL     1      35.275 -17.579 -21.808  0.00  0.00    +0.144 HD
ATOM     24  H   UNL     1      32.793 -18.627 -24.026  0.00  0.00    +0.188 HD
ENDBRANCH  18  21
ENDBRANCH  12  13
ENDBRANCH   9  12
ENDBRANCH   3  10
BRANCH   7  25
ATOM     25  C   UNL     1      32.538 -25.265 -13.818  0.00  0.00    +0.006 C 
BRANCH  25  26
ATOM     26  N   UNL     1      33.524 -24.727 -12.895  0.00  0.00    +0.391 N 
ATOM     27  H   UNL     1      33.123 -23.927 -12.404  0.00  0.00    -0.084 HD
ATOM     28  H   UNL     1      33.783 -25.455 -12.229  0.00  0.00    -0.084 HD
BRANCH  26  29
ATOM     29  C   UNL     1      34.726 -24.297 -13.616  0.00  0.00    -0.061 C 
ATOM     30  C   UNL     1      35.785 -23.782 -12.632  0.00  0.00    -0.021 C 
ATOM     31  C   UNL     1      35.158 -25.417 -14.574  0.00  0.00    -0.021 C 
ATOM     32  C   UNL     1      36.514 -25.200 -15.249  0.00  0.00    -0.002 C 
ATOM     33  C   UNL     1      36.343 -24.772 -11.610  0.00  0.00    -0.002 C 
ATOM     34  C   UNL     1      37.655 -26.035 -14.662  0.00  0.00    -0.000 C 
ATOM     35  C   UNL     1      37.116 -25.978 -12.144  0.00  0.00    -0.000 C 
ATOM     36  C   UNL     1      38.124 -25.667 -13.252  0.00  0.00    -0.000 C 
ENDBRANCH  26  29
ENDBRANCH  25  26
ENDBRANCH   7  25
TORSDOF 7
ENDMDL
MODEL 9
REMARK VINA RESULT:      -9.7      2.514      6.765
REMARK  Name = 46937030
REMARK  7 active torsions:
REMARK  status: ('A' for Active; 'I' for Inactive)
REMARK    1  A    between atoms: C_3  and  C_10
REMARK    2  A    between atoms: C_7  and  C_25
REMARK    3  A    between atoms: N_9  and  C_12
REMARK    4  A    between atoms: C_12  and  C_13
REMARK    5  A    between atoms: C_18  and  C_21
REMARK    6  A    between atoms: C_25  and  N_26
REMARK    7  A    between atoms: N_26  and  C_29
REMARK                            x       y       z     vdW  Elec       q    Type
REMARK                         _______ _______ _______ _____ _____    ______ ____
ROOT
ATOM      1  O   UNL     1      31.861 -21.299 -18.963  0.00  0.00    -0.277 OA
ATOM      2  N   UNL     1      33.988 -21.094 -19.840  0.00  0.00    -0.275 N 
ATOM      3  C   UNL     1      35.360 -21.548 -20.060  0.00  0.00    +0.152 C 
ATOM      4  C   UNL     1      35.766 -20.911 -21.385  0.00  0.00    +0.031 C 
ATOM      5  C   UNL     1      33.637 -20.025 -20.766  0.00  0.00    +0.094 C 
ATOM      6  C   UNL     1      34.947 -19.623 -21.424  0.00  0.00    +0.024 C 
ATOM      7  C   UNL     1      33.042 -21.652 -18.996  0.00  0.00    +0.204 C 
ENDROOT
BRANCH   3  10
ATOM      8  O   UNL     1      36.816 -19.962 -19.027  0.00  0.00    -0.273 OA
ATOM      9  N   UNL     1      36.218 -21.879 -17.849  0.00  0.00    -0.299 N 
ATOM     10  C   UNL     1      36.206 -21.024 -18.938  0.00  0.00    +0.241 C 
ATOM     11  H   UNL     1      35.686 -22.706 -17.896  0.00  0.00    +0.150 HD
BRANCH   9  12
ATOM     12  C   UNL     1      36.976 -21.617 -16.646  0.00  0.00    +0.116 C 
BRANCH  12  13
ATOM     13  C   UNL     1      36.908 -22.763 -15.679  0.00  0.00    -0.003 C 
ATOM     14  C   UNL     1      35.803 -22.902 -14.839  0.00  0.00    -0.003 C 
ATOM     15  C   UNL     1      37.950 -23.688 -15.619  0.00  0.00    -0.003 C 
ATOM     16  C   UNL     1      35.740 -23.967 -13.940  0.00  0.00    +0.002 C 
ATOM     17  C   UNL     1      37.887 -24.753 -14.720  0.00  0.00    +0.002 C 
ATOM     18  C   UNL     1      36.781 -24.892 -13.881  0.00  0.00    +0.031 C 
BRANCH  18  21
ATOM     19  N   UNL     1      36.632 -27.322 -13.388  0.00  0.00    -0.343 N 
ATOM     20  N   UNL     1      36.730 -25.770 -11.644  0.00  0.00    -0.285 NA
ATOM     21  C   UNL     1      36.715 -26.003 -12.945  0.00  0.00    +0.117 C 
ATOM     22  H   UNL     1      36.588 -28.058 -12.736  0.00  0.00    +0.144 HD
ATOM     23  H   UNL     1      36.616 -27.516 -14.353  0.00  0.00    +0.144 HD
ATOM     24  H   UNL     1      36.685 -26.520 -11.009  0.00  0.00    +0.188 HD
ENDBRANCH  18  21
ENDBRANCH  12  13
ENDBRANCH   9  12
ENDBRANCH   3  10
BRANCH   7  25
ATOM     25  C   UNL     1      33.530 -22.751 -18.087  0.00  0.00    +0.006 C 
BRANCH  25  26
ATOM     26  N   UNL     1      32.358 -23.487 -17.642  0.00  0.00    +0.391 N 
ATOM     27  H   UNL     1      31.574 -23.276 -18.261  0.00  0.00    -0.084 HD
ATOM     28  H   UNL     1      32.566 -24.485 -17.666  0.00  0.00    -0.084 HD
BRANCH  26  29
ATOM     29  C   UNL     1      32.003 -23.110 -16.270  0.00  0.00    -0.061 C 
ATOM     30  C   UNL     1      30.498 -22.832 -16.163  0.00  0.00    -0.021 C 
ATOM     31  C   UNL     1      32.586 -24.151 -15.303  0.00  0.00    -0.021 C 
ATOM     32  C   UNL     1      32.128 -24.007 -13.850  0.00  0.00    -0.002 C 
ATOM     33  C   UNL     1      29.542 -23.990 -16.451  0.00  0.00    -0.002 C 
ATOM     34  C   UNL     1      31.070 -25.024 -13.414  0.00  0.00    -0.000 C 
ATOM     35  C   UNL     1      29.602 -25.203 -15.522  0.00  0.00    -0.000 C 
ATOM     36  C   UNL     1      29.676 -24.878 -14.030  0.00  0.00    -0.000 C 
ENDBRANCH  26  29
ENDBRANCH  25  26
ENDBRANCH   7  25
TORSDOF 7
ENDMDL
