MODEL 1
REMARK VINA RESULT:     -12.9      0.000      0.000
REMARK  Name = 44141871
REMARK  6 active torsions:
REMARK  status: ('A' for Active; 'I' for Inactive)
REMARK    1  A    between atoms: C_1  and  C_10
REMARK    2  A    between atoms: C_4  and  O_20
REMARK    3  A    between atoms: C_9  and  C_13
REMARK    4  A    between atoms: C_13  and  C_15
REMARK    5  A    between atoms: O_20  and  C_21
REMARK    6  A    between atoms: C_21  and  C_23
REMARK                            x       y       z     vdW  Elec       q    Type
REMARK                         _______ _______ _______ _____ _____    ______ ____
ROOT
ATOM      1  C   UNL     1      34.803 -18.594 -21.196  0.00  0.00    +0.015 C 
ATOM      2  C   UNL     1      36.026 -19.127 -20.787  0.00  0.00    +0.004 C 
ATOM      3  C   UNL     1      33.625 -19.308 -20.981  0.00  0.00    +0.004 C 
ATOM      4  C   UNL     1      34.890 -21.087 -19.946  0.00  0.00    +0.139 C 
ATOM      5  C   UNL     1      36.069 -20.373 -20.161  0.00  0.00    +0.037 C 
ATOM      6  C   UNL     1      33.668 -20.554 -20.355  0.00  0.00    +0.037 C 
ENDROOT
BRANCH   1  10
ATOM      7  N   UNL     1      34.693 -16.135 -21.145  0.00  0.00    -0.236 N 
ATOM      8  N   UNL     1      34.658 -15.040 -21.924  0.00  0.00    -0.180 NA
ATOM      9  C   UNL     1      34.768 -16.952 -23.170  0.00  0.00    +0.018 C 
ATOM     10  C   UNL     1      34.759 -17.305 -21.842  0.00  0.00    +0.063 C 
ATOM     11  C   UNL     1      34.705 -15.545 -23.159  0.00  0.00    +0.115 C 
ATOM     12  H   UNL     1      34.672 -16.096 -20.161  0.00  0.00    +0.174 HD
BRANCH   9  13
ATOM     13  C   UNL     1      34.829 -17.834 -24.347  0.00  0.00    +0.056 C 
BRANCH  13  15
ATOM     14  N   UNL     1      31.700 -17.174 -27.249  0.00  0.00    -0.242 NA
ATOM     15  C   UNL     1      33.725 -17.601 -25.371  0.00  0.00    -0.015 C 
ATOM     16  C   UNL     1      32.769 -18.585 -25.601  0.00  0.00    +0.017 C 
ATOM     17  C   UNL     1      33.670 -16.406 -26.077  0.00  0.00    +0.017 C 
ATOM     18  C   UNL     1      31.787 -18.324 -26.542  0.00  0.00    +0.099 C 
ATOM     19  C   UNL     1      32.646 -16.243 -26.997  0.00  0.00    +0.099 C 
ENDBRANCH  13  15
ENDBRANCH   9  13
ENDBRANCH   1  10
BRANCH   4  20
ATOM     20  O   UNL     1      34.932 -22.309 -19.329  0.00  0.00    -0.468 OA
BRANCH  20  21
ATOM     21  C   UNL     1      33.717 -23.045 -19.282  0.00  0.00    +0.264 C 
BRANCH  21  23
ATOM     22  N   UNL     1      31.911 -23.110 -17.670  0.00  0.00    -0.406 NA
ATOM     23  C   UNL     1      33.249 -23.141 -17.868  0.00  0.00    +0.152 C 
ATOM     24  C   UNL     1      32.323 -23.310 -15.305  0.00  0.00    +0.026 C 
ATOM     25  C   UNL     1      31.452 -23.193 -16.408  0.00  0.00    +0.113 C 
ATOM     26  C   UNL     1      34.178 -23.252 -16.854  0.00  0.00    +0.031 C 
ATOM     27  C   UNL     1      33.702 -23.338 -15.553  0.00  0.00    +0.005 C 
ATOM     28  C   UNL     1      31.808 -23.396 -14.000  0.00  0.00    +0.002 C 
ATOM     29  C   UNL     1      30.081 -23.165 -16.161  0.00  0.00    +0.085 C 
ATOM     30  C   UNL     1      30.433 -23.365 -13.782  0.00  0.00    -0.004 C 
ATOM     31  C   UNL     1      29.569 -23.251 -14.863  0.00  0.00    -0.019 C 
ENDBRANCH  21  23
ENDBRANCH  20  21
ENDBRANCH   4  20
TORSDOF 6
ENDMDL
MODEL 2
REMARK VINA RESULT:     -12.7      2.775     10.443
REMARK  Name = 44141871
REMARK  6 active torsions:
REMARK  status: ('A' for Active; 'I' for Inactive)
REMARK    1  A    between atoms: C_1  and  C_10
REMARK    2  A    between atoms: C_4  and  O_20
REMARK    3  A    between atoms: C_9  and  C_13
REMARK    4  A    between atoms: C_13  and  C_15
REMARK    5  A    between atoms: O_20  and  C_21
REMARK    6  A    between atoms: C_21  and  C_23
REMARK                            x       y       z     vdW  Elec       q    Type
REMARK                         _______ _______ _______ _____ _____    ______ ____
ROOT
ATOM      1  C   UNL     1      33.975 -22.876 -16.860  0.00  0.00    +0.015 C 
ATOM      2  C   UNL     1      33.069 -22.794 -17.918  0.00  0.00    +0.004 C 
ATOM      3  C   UNL     1      35.275 -22.394 -17.017  0.00  0.00    +0.004 C 
ATOM      4  C   UNL     1      34.762 -21.749 -19.288  0.00  0.00    +0.139 C 
ATOM      5  C   UNL     1      33.462 -22.230 -19.131  0.00  0.00    +0.037 C 
ATOM      6  C   UNL     1      35.668 -21.831 -18.231  0.00  0.00    +0.037 C 
ENDROOT
BRANCH   1  10
ATOM      7  N   UNL     1      32.297 -23.897 -15.377  0.00  0.00    -0.236 N 
ATOM      8  N   UNL     1      32.111 -24.407 -14.147  0.00  0.00    -0.180 NA
ATOM      9  C   UNL     1      34.262 -23.697 -14.445  0.00  0.00    +0.018 C 
ATOM     10  C   UNL     1      33.567 -23.458 -15.605  0.00  0.00    +0.063 C 
ATOM     11  C   UNL     1      33.315 -24.282 -13.582  0.00  0.00    +0.115 C 
ATOM     12  H   UNL     1      31.581 -23.846 -16.051  0.00  0.00    +0.174 HD
BRANCH   9  13
ATOM     13  C   UNL     1      35.677 -23.410 -14.154  0.00  0.00    +0.056 C 
BRANCH  13  15
ATOM     14  N   UNL     1      38.312 -26.809 -14.548  0.00  0.00    -0.242 NA
ATOM     15  C   UNL     1      36.607 -24.609 -14.293  0.00  0.00    -0.015 C 
ATOM     16  C   UNL     1      36.191 -25.737 -14.993  0.00  0.00    +0.017 C 
ATOM     17  C   UNL     1      37.873 -24.580 -13.721  0.00  0.00    +0.017 C 
ATOM     18  C   UNL     1      37.073 -26.800 -15.090  0.00  0.00    +0.099 C 
ATOM     19  C   UNL     1      38.681 -25.696 -13.875  0.00  0.00    +0.099 C 
ENDBRANCH  13  15
ENDBRANCH   9  13
ENDBRANCH   1  10
BRANCH   4  20
ATOM     20  O   UNL     1      35.148 -21.192 -20.479  0.00  0.00    -0.468 OA
BRANCH  20  21
ATOM     21  C   UNL     1      36.156 -20.192 -20.422  0.00  0.00    +0.264 C 
BRANCH  21  23
ATOM     22  N   UNL     1      35.377 -17.901 -20.480  0.00  0.00    -0.406 NA
ATOM     23  C   UNL     1      35.714 -18.996 -21.198  0.00  0.00    +0.152 C 
ATOM     24  C   UNL     1      34.894 -16.773 -22.553  0.00  0.00    +0.026 C 
ATOM     25  C   UNL     1      34.972 -16.803 -21.145  0.00  0.00    +0.113 C 
ATOM     26  C   UNL     1      35.669 -19.062 -22.575  0.00  0.00    +0.031 C 
ATOM     27  C   UNL     1      35.251 -17.929 -23.259  0.00  0.00    +0.005 C 
ATOM     28  C   UNL     1      34.468 -15.609 -23.215  0.00  0.00    +0.002 C 
ATOM     29  C   UNL     1      34.616 -15.653 -20.445  0.00  0.00    +0.085 C 
ATOM     30  C   UNL     1      34.117 -14.473 -22.490  0.00  0.00    -0.004 C 
ATOM     31  C   UNL     1      34.193 -14.496 -21.103  0.00  0.00    -0.019 C 
ENDBRANCH  21  23
ENDBRANCH  20  21
ENDBRANCH   4  20
TORSDOF 6
ENDMDL
MODEL 3
REMARK VINA RESULT:     -12.6      1.632      2.765
REMARK  Name = 44141871
REMARK  6 active torsions:
REMARK  status: ('A' for Active; 'I' for Inactive)
REMARK    1  A    between atoms: C_1  and  C_10
REMARK    2  A    between atoms: C_4  and  O_20
REMARK    3  A    between atoms: C_9  and  C_13
REMARK    4  A    between atoms: C_13  and  C_15
REMARK    5  A    between atoms: O_20  and  C_21
REMARK    6  A    between atoms: C_21  and  C_23
REMARK                            x       y       z     vdW  Elec       q    Type
REMARK                         _______ _______ _______ _____ _____    ______ ____
ROOT
ATOM      1  C   UNL     1      34.481 -19.325 -20.914  0.00  0.00    +0.015 C 
ATOM      2  C   UNL     1      35.634 -20.005 -20.521  0.00  0.00    +0.004 C 
ATOM      3  C   UNL     1      33.225 -19.862 -20.630  0.00  0.00    +0.004 C 
ATOM      4  C   UNL     1      34.275 -21.757 -19.561  0.00  0.00    +0.139 C 
ATOM      5  C   UNL     1      35.531 -21.220 -19.844  0.00  0.00    +0.037 C 
ATOM      6  C   UNL     1      33.122 -21.077 -19.953  0.00  0.00    +0.037 C 
ENDROOT
BRANCH   1  10
ATOM      7  N   UNL     1      34.832 -16.890 -20.973  0.00  0.00    -0.236 N 
ATOM      8  N   UNL     1      34.895 -15.828 -21.795  0.00  0.00    -0.180 NA
ATOM      9  C   UNL     1      34.484 -17.758 -22.947  0.00  0.00    +0.018 C 
ATOM     10  C   UNL     1      34.588 -18.069 -21.613  0.00  0.00    +0.063 C 
ATOM     11  C   UNL     1      34.682 -16.364 -23.000  0.00  0.00    +0.115 C 
ATOM     12  H   UNL     1      34.951 -16.822 -19.998  0.00  0.00    +0.174 HD
BRANCH   9  13
ATOM     13  C   UNL     1      34.223 -18.666 -24.077  0.00  0.00    +0.056 C 
BRANCH  13  15
ATOM     14  N   UNL     1      31.994 -16.894 -27.324  0.00  0.00    -0.242 NA
ATOM     15  C   UNL     1      33.437 -18.041 -25.222  0.00  0.00    -0.015 C 
ATOM     16  C   UNL     1      33.800 -16.794 -25.719  0.00  0.00    +0.017 C 
ATOM     17  C   UNL     1      32.355 -18.715 -25.775  0.00  0.00    +0.017 C 
ATOM     18  C   UNL     1      33.052 -16.269 -26.761  0.00  0.00    +0.099 C 
ATOM     19  C   UNL     1      31.672 -18.105 -26.815  0.00  0.00    +0.099 C 
ENDBRANCH  13  15
ENDBRANCH   9  13
ENDBRANCH   1  10
BRANCH   4  20
ATOM     20  O   UNL     1      34.174 -22.948 -18.893  0.00  0.00    -0.468 OA
BRANCH  20  21
ATOM     21  C   UNL     1      33.046 -23.113 -18.043  0.00  0.00    +0.264 C 
BRANCH  21  23
ATOM     22  N   UNL     1      34.846 -23.500 -16.472  0.00  0.00    -0.406 NA
ATOM     23  C   UNL     1      33.510 -23.390 -16.652  0.00  0.00    +0.152 C 
ATOM     24  C   UNL     1      34.430 -23.898 -14.132  0.00  0.00    +0.026 C 
ATOM     25  C   UNL     1      35.302 -23.750 -15.230  0.00  0.00    +0.113 C 
ATOM     26  C   UNL     1      32.580 -23.520 -15.641  0.00  0.00    +0.031 C 
ATOM     27  C   UNL     1      33.053 -23.778 -14.363  0.00  0.00    +0.005 C 
ATOM     28  C   UNL     1      34.942 -24.158 -12.849  0.00  0.00    +0.002 C 
ATOM     29  C   UNL     1      36.671 -23.871 -15.000  0.00  0.00    +0.085 C 
ATOM     30  C   UNL     1      36.314 -24.274 -12.648  0.00  0.00    -0.004 C 
ATOM     31  C   UNL     1      37.180 -24.129 -13.725  0.00  0.00    -0.019 C 
ENDBRANCH  21  23
ENDBRANCH  20  21
ENDBRANCH   4  20
TORSDOF 6
ENDMDL
MODEL 4
REMARK VINA RESULT:     -12.5      2.443      9.836
REMARK  Name = 44141871
REMARK  6 active torsions:
REMARK  status: ('A' for Active; 'I' for Inactive)
REMARK    1  A    between atoms: C_1  and  C_10
REMARK    2  A    between atoms: C_4  and  O_20
REMARK    3  A    between atoms: C_9  and  C_13
REMARK    4  A    between atoms: C_13  and  C_15
REMARK    5  A    between atoms: O_20  and  C_21
REMARK    6  A    between atoms: C_21  and  C_23
REMARK                            x       y       z     vdW  Elec       q    Type
REMARK                         _______ _______ _______ _____ _____    ______ ____
ROOT
ATOM      1  C   UNL     1      34.413 -22.939 -16.857  0.00  0.00    +0.015 C 
ATOM      2  C   UNL     1      35.614 -22.296 -17.156  0.00  0.00    +0.004 C 
ATOM      3  C   UNL     1      33.361 -22.912 -17.773  0.00  0.00    +0.004 C 
ATOM      4  C   UNL     1      34.712 -21.600 -19.287  0.00  0.00    +0.139 C 
ATOM      5  C   UNL     1      35.763 -21.627 -18.370  0.00  0.00    +0.037 C 
ATOM      6  C   UNL     1      33.511 -22.243 -18.988  0.00  0.00    +0.037 C 
ENDROOT
BRANCH   1  10
ATOM      7  N   UNL     1      35.157 -24.554 -15.156  0.00  0.00    -0.236 N 
ATOM      8  N   UNL     1      34.840 -25.091 -13.964  0.00  0.00    -0.180 NA
ATOM      9  C   UNL     1      33.284 -23.558 -14.635  0.00  0.00    +0.018 C 
ATOM     10  C   UNL     1      34.258 -23.631 -15.601  0.00  0.00    +0.063 C 
ATOM     11  C   UNL     1      33.695 -24.478 -13.651  0.00  0.00    +0.115 C 
ATOM     12  H   UNL     1      35.965 -24.805 -15.660  0.00  0.00    +0.174 HD
BRANCH   9  13
ATOM     13  C   UNL     1      32.078 -22.712 -14.619  0.00  0.00    +0.056 C 
BRANCH  13  15
ATOM     14  N   UNL     1      28.467 -24.718 -15.878  0.00  0.00    -0.242 NA
ATOM     15  C   UNL     1      30.804 -23.420 -15.063  0.00  0.00    -0.015 C 
ATOM     16  C   UNL     1      30.399 -24.589 -14.429  0.00  0.00    +0.017 C 
ATOM     17  C   UNL     1      30.043 -22.899 -16.103  0.00  0.00    +0.017 C 
ATOM     18  C   UNL     1      29.233 -25.194 -14.871  0.00  0.00    +0.099 C 
ATOM     19  C   UNL     1      28.893 -23.580 -16.469  0.00  0.00    +0.099 C 
ENDBRANCH  13  15
ENDBRANCH   9  13
ENDBRANCH   1  10
BRANCH   4  20
ATOM     20  O   UNL     1      34.860 -20.946 -20.481  0.00  0.00    -0.468 OA
BRANCH  20  21
ATOM     21  C   UNL     1      35.980 -20.080 -20.603  0.00  0.00    +0.264 C 
BRANCH  21  23
ATOM     22  N   UNL     1      35.268 -17.766 -20.594  0.00  0.00    -0.406 NA
ATOM     23  C   UNL     1      35.577 -18.849 -21.344  0.00  0.00    +0.152 C 
ATOM     24  C   UNL     1      34.830 -16.561 -22.633  0.00  0.00    +0.026 C 
ATOM     25  C   UNL     1      34.900 -16.637 -21.227  0.00  0.00    +0.113 C 
ATOM     26  C   UNL     1      35.538 -18.871 -22.723  0.00  0.00    +0.031 C 
ATOM     27  C   UNL     1      35.157 -17.706 -23.373  0.00  0.00    +0.005 C 
ATOM     28  C   UNL     1      34.441 -15.366 -23.261  0.00  0.00    +0.002 C 
ATOM     29  C   UNL     1      34.574 -15.499 -20.493  0.00  0.00    +0.085 C 
ATOM     30  C   UNL     1      34.121 -14.243 -22.503  0.00  0.00    -0.004 C 
ATOM     31  C   UNL     1      34.188 -14.310 -21.117  0.00  0.00    -0.019 C 
ENDBRANCH  21  23
ENDBRANCH  20  21
ENDBRANCH   4  20
TORSDOF 6
ENDMDL
MODEL 5
REMARK VINA RESULT:     -12.5      1.559      2.959
REMARK  Name = 44141871
REMARK  6 active torsions:
REMARK  status: ('A' for Active; 'I' for Inactive)
REMARK    1  A    between atoms: C_1  and  C_10
REMARK    2  A    between atoms: C_4  and  O_20
REMARK    3  A    between atoms: C_9  and  C_13
REMARK    4  A    between atoms: C_13  and  C_15
REMARK    5  A    between atoms: O_20  and  C_21
REMARK    6  A    between atoms: C_21  and  C_23
REMARK                            x       y       z     vdW  Elec       q    Type
REMARK                         _______ _______ _______ _____ _____    ______ ____
ROOT
ATOM      1  C   UNL     1      34.287 -18.936 -22.686  0.00  0.00    +0.015 C 
ATOM      2  C   UNL     1      35.518 -19.174 -22.075  0.00  0.00    +0.004 C 
ATOM      3  C   UNL     1      33.119 -19.450 -22.124  0.00  0.00    +0.004 C 
ATOM      4  C   UNL     1      34.412 -20.438 -20.338  0.00  0.00    +0.139 C 
ATOM      5  C   UNL     1      35.581 -19.925 -20.901  0.00  0.00    +0.037 C 
ATOM      6  C   UNL     1      33.181 -20.200 -20.950  0.00  0.00    +0.037 C 
ENDROOT
BRANCH   1  10
ATOM      7  N   UNL     1      33.764 -18.671 -25.077  0.00  0.00    -0.236 N 
ATOM      8  N   UNL     1      33.782 -17.794 -26.095  0.00  0.00    -0.180 NA
ATOM      9  C   UNL     1      34.567 -16.856 -24.165  0.00  0.00    +0.018 C 
ATOM     10  C   UNL     1      34.223 -18.159 -23.900  0.00  0.00    +0.063 C 
ATOM     11  C   UNL     1      34.274 -16.686 -25.533  0.00  0.00    +0.115 C 
ATOM     12  H   UNL     1      33.447 -19.599 -25.172  0.00  0.00    +0.174 HD
BRANCH   9  13
ATOM     13  C   UNL     1      35.119 -15.852 -23.239  0.00  0.00    +0.056 C 
BRANCH  13  15
ATOM     14  N   UNL     1      32.334 -12.764 -22.075  0.00  0.00    -0.242 NA
ATOM     15  C   UNL     1      34.137 -14.763 -22.829  0.00  0.00    -0.015 C 
ATOM     16  C   UNL     1      33.909 -14.501 -21.482  0.00  0.00    +0.017 C 
ATOM     17  C   UNL     1      33.465 -14.027 -23.798  0.00  0.00    +0.017 C 
ATOM     18  C   UNL     1      33.006 -13.500 -21.161  0.00  0.00    +0.099 C 
ATOM     19  C   UNL     1      32.582 -13.048 -23.373  0.00  0.00    +0.099 C 
ENDBRANCH  13  15
ENDBRANCH   9  13
ENDBRANCH   1  10
BRANCH   4  20
ATOM     20  O   UNL     1      34.473 -21.173 -19.184  0.00  0.00    -0.468 OA
BRANCH  20  21
ATOM     21  C   UNL     1      33.866 -22.458 -19.210  0.00  0.00    +0.264 C 
BRANCH  21  23
ATOM     22  N   UNL     1      31.970 -22.762 -17.736  0.00  0.00    -0.406 NA
ATOM     23  C   UNL     1      33.317 -22.774 -17.858  0.00  0.00    +0.152 C 
ATOM     24  C   UNL     1      32.242 -23.342 -15.414  0.00  0.00    +0.026 C 
ATOM     25  C   UNL     1      31.437 -23.042 -16.532  0.00  0.00    +0.113 C 
ATOM     26  C   UNL     1      34.185 -23.056 -16.824  0.00  0.00    +0.031 C 
ATOM     27  C   UNL     1      33.633 -23.344 -15.584  0.00  0.00    +0.005 C 
ATOM     28  C   UNL     1      31.652 -23.631 -14.171  0.00  0.00    +0.002 C 
ATOM     29  C   UNL     1      30.055 -23.040 -16.362  0.00  0.00    +0.085 C 
ATOM     30  C   UNL     1      30.267 -23.621 -14.030  0.00  0.00    -0.004 C 
ATOM     31  C   UNL     1      29.468 -23.327 -15.127  0.00  0.00    -0.019 C 
ENDBRANCH  21  23
ENDBRANCH  20  21
ENDBRANCH   4  20
TORSDOF 6
ENDMDL
MODEL 6
REMARK VINA RESULT:     -12.3      1.788      3.730
REMARK  Name = 44141871
REMARK  6 active torsions:
REMARK  status: ('A' for Active; 'I' for Inactive)
REMARK    1  A    between atoms: C_1  and  C_10
REMARK    2  A    between atoms: C_4  and  O_20
REMARK    3  A    between atoms: C_9  and  C_13
REMARK    4  A    between atoms: C_13  and  C_15
REMARK    5  A    between atoms: O_20  and  C_21
REMARK    6  A    between atoms: C_21  and  C_23
REMARK                            x       y       z     vdW  Elec       q    Type
REMARK                         _______ _______ _______ _____ _____    ______ ____
ROOT
ATOM      1  C   UNL     1      34.396 -18.616 -23.029  0.00  0.00    +0.015 C 
ATOM      2  C   UNL     1      33.488 -19.367 -22.283  0.00  0.00    +0.004 C 
ATOM      3  C   UNL     1      35.704 -18.451 -22.573  0.00  0.00    +0.004 C 
ATOM      4  C   UNL     1      35.196 -19.788 -20.626  0.00  0.00    +0.139 C 
ATOM      5  C   UNL     1      33.888 -19.953 -21.082  0.00  0.00    +0.037 C 
ATOM      6  C   UNL     1      36.104 -19.037 -21.372  0.00  0.00    +0.037 C 
ENDROOT
BRANCH   1  10
ATOM      7  N   UNL     1      33.236 -18.676 -25.199  0.00  0.00    -0.236 N 
ATOM      8  N   UNL     1      32.952 -17.945 -26.292  0.00  0.00    -0.180 NA
ATOM      9  C   UNL     1      34.202 -16.759 -24.791  0.00  0.00    +0.018 C 
ATOM     10  C   UNL     1      33.982 -18.012 -24.271  0.00  0.00    +0.063 C 
ATOM     11  C   UNL     1      33.544 -16.775 -26.037  0.00  0.00    +0.115 C 
ATOM     12  H   UNL     1      32.933 -19.605 -25.081  0.00  0.00    +0.174 HD
BRANCH   9  13
ATOM     13  C   UNL     1      34.954 -15.643 -24.193  0.00  0.00    +0.056 C 
BRANCH  13  15
ATOM     14  N   UNL     1      32.643 -13.146 -21.533  0.00  0.00    -0.242 NA
ATOM     15  C   UNL     1      34.139 -14.763 -23.255  0.00  0.00    -0.015 C 
ATOM     16  C   UNL     1      33.232 -13.844 -23.773  0.00  0.00    +0.017 C 
ATOM     17  C   UNL     1      34.298 -14.874 -21.878  0.00  0.00    +0.017 C 
ATOM     18  C   UNL     1      32.516 -13.066 -22.877  0.00  0.00    +0.099 C 
ATOM     19  C   UNL     1      33.534 -14.050 -21.068  0.00  0.00    +0.099 C 
ENDBRANCH  13  15
ENDBRANCH   9  13
ENDBRANCH   1  10
BRANCH   4  20
ATOM     20  O   UNL     1      35.589 -20.365 -19.448  0.00  0.00    -0.468 OA
BRANCH  20  21
ATOM     21  C   UNL     1      35.659 -21.785 -19.423  0.00  0.00    +0.264 C 
BRANCH  21  23
ATOM     22  N   UNL     1      35.353 -22.635 -17.177  0.00  0.00    -0.406 NA
ATOM     23  C   UNL     1      34.764 -22.307 -18.349  0.00  0.00    +0.152 C 
ATOM     24  C   UNL     1      33.185 -23.269 -16.341  0.00  0.00    +0.026 C 
ATOM     25  C   UNL     1      34.577 -23.109 -16.185  0.00  0.00    +0.113 C 
ATOM     26  C   UNL     1      33.412 -22.429 -18.596  0.00  0.00    +0.031 C 
ATOM     27  C   UNL     1      32.614 -22.918 -17.571  0.00  0.00    +0.005 C 
ATOM     28  C   UNL     1      32.405 -23.767 -15.283  0.00  0.00    +0.002 C 
ATOM     29  C   UNL     1      35.144 -23.458 -14.961  0.00  0.00    +0.085 C 
ATOM     30  C   UNL     1      32.998 -24.109 -14.070  0.00  0.00    -0.004 C 
ATOM     31  C   UNL     1      34.369 -23.953 -13.910  0.00  0.00    -0.019 C 
ENDBRANCH  21  23
ENDBRANCH  20  21
ENDBRANCH   4  20
TORSDOF 6
ENDMDL
MODEL 7
REMARK VINA RESULT:     -12.2      2.074      3.860
REMARK  Name = 44141871
REMARK  6 active torsions:
REMARK  status: ('A' for Active; 'I' for Inactive)
REMARK    1  A    between atoms: C_1  and  C_10
REMARK    2  A    between atoms: C_4  and  O_20
REMARK    3  A    between atoms: C_9  and  C_13
REMARK    4  A    between atoms: C_13  and  C_15
REMARK    5  A    between atoms: O_20  and  C_21
REMARK    6  A    between atoms: C_21  and  C_23
REMARK                            x       y       z     vdW  Elec       q    Type
REMARK                         _______ _______ _______ _____ _____    ______ ____
ROOT
ATOM      1  C   UNL     1      34.457 -18.629 -23.041  0.00  0.00    +0.015 C 
ATOM      2  C   UNL     1      33.533 -19.367 -22.300  0.00  0.00    +0.004 C 
ATOM      3  C   UNL     1      35.779 -18.532 -22.607  0.00  0.00    +0.004 C 
ATOM      4  C   UNL     1      35.254 -19.910 -20.693  0.00  0.00    +0.139 C 
ATOM      5  C   UNL     1      33.931 -20.007 -21.127  0.00  0.00    +0.037 C 
ATOM      6  C   UNL     1      36.177 -19.172 -21.434  0.00  0.00    +0.037 C 
ENDROOT
BRANCH   1  10
ATOM      7  N   UNL     1      33.310 -18.593 -25.219  0.00  0.00    -0.236 N 
ATOM      8  N   UNL     1      33.025 -17.812 -26.276  0.00  0.00    -0.180 NA
ATOM      9  C   UNL     1      34.255 -16.690 -24.711  0.00  0.00    +0.018 C 
ATOM     10  C   UNL     1      34.044 -17.968 -24.255  0.00  0.00    +0.063 C 
ATOM     11  C   UNL     1      33.605 -16.651 -25.960  0.00  0.00    +0.115 C 
ATOM     12  H   UNL     1      33.015 -19.530 -25.148  0.00  0.00    +0.174 HD
BRANCH   9  13
ATOM     13  C   UNL     1      34.993 -15.598 -24.054  0.00  0.00    +0.056 C 
BRANCH  13  15
ATOM     14  N   UNL     1      32.594 -13.126 -21.449  0.00  0.00    -0.242 NA
ATOM     15  C   UNL     1      34.147 -14.726 -23.135  0.00  0.00    -0.015 C 
ATOM     16  C   UNL     1      33.244 -13.816 -23.674  0.00  0.00    +0.017 C 
ATOM     17  C   UNL     1      34.274 -14.837 -21.756  0.00  0.00    +0.017 C 
ATOM     18  C   UNL     1      32.498 -13.047 -22.796  0.00  0.00    +0.099 C 
ATOM     19  C   UNL     1      33.482 -14.022 -20.963  0.00  0.00    +0.099 C 
ENDBRANCH  13  15
ENDBRANCH   9  13
ENDBRANCH   1  10
BRANCH   4  20
ATOM     20  O   UNL     1      35.646 -20.541 -19.543  0.00  0.00    -0.468 OA
BRANCH  20  21
ATOM     21  C   UNL     1      35.037 -21.794 -19.260  0.00  0.00    +0.264 C 
BRANCH  21  23
ATOM     22  N   UNL     1      34.362 -22.825 -17.176  0.00  0.00    -0.406 NA
ATOM     23  C   UNL     1      35.344 -22.188 -17.853  0.00  0.00    +0.152 C 
ATOM     24  C   UNL     1      35.836 -22.937 -15.275  0.00  0.00    +0.026 C 
ATOM     25  C   UNL     1      34.602 -23.195 -15.905  0.00  0.00    +0.113 C 
ATOM     26  C   UNL     1      36.582 -21.891 -17.322  0.00  0.00    +0.031 C 
ATOM     27  C   UNL     1      36.827 -22.274 -16.011  0.00  0.00    +0.005 C 
ATOM     28  C   UNL     1      36.053 -23.339 -13.945  0.00  0.00    +0.002 C 
ATOM     29  C   UNL     1      33.617 -23.854 -15.172  0.00  0.00    +0.085 C 
ATOM     30  C   UNL     1      35.051 -23.995 -13.236  0.00  0.00    -0.004 C 
ATOM     31  C   UNL     1      33.832 -24.254 -13.850  0.00  0.00    -0.019 C 
ENDBRANCH  21  23
ENDBRANCH  20  21
ENDBRANCH   4  20
TORSDOF 6
ENDMDL
MODEL 8
REMARK VINA RESULT:     -12.2      2.742     10.503
REMARK  Name = 44141871
REMARK  6 active torsions:
REMARK  status: ('A' for Active; 'I' for Inactive)
REMARK    1  A    between atoms: C_1  and  C_10
REMARK    2  A    between atoms: C_4  and  O_20
REMARK    3  A    between atoms: C_9  and  C_13
REMARK    4  A    between atoms: C_13  and  C_15
REMARK    5  A    between atoms: O_20  and  C_21
REMARK    6  A    between atoms: C_21  and  C_23
REMARK                            x       y       z     vdW  Elec       q    Type
REMARK                         _______ _______ _______ _____ _____    ______ ____
ROOT
ATOM      1  C   UNL     1      33.991 -22.854 -16.912  0.00  0.00    +0.015 C 
ATOM      2  C   UNL     1      35.295 -22.370 -17.009  0.00  0.00    +0.004 C 
ATOM      3  C   UNL     1      33.139 -22.785 -18.014  0.00  0.00    +0.004 C 
ATOM      4  C   UNL     1      34.895 -21.750 -19.310  0.00  0.00    +0.139 C 
ATOM      5  C   UNL     1      35.748 -21.818 -18.208  0.00  0.00    +0.037 C 
ATOM      6  C   UNL     1      33.591 -22.234 -19.213  0.00  0.00    +0.037 C 
ENDROOT
BRANCH   1  10
ATOM      7  N   UNL     1      32.234 -23.826 -15.488  0.00  0.00    -0.236 N 
ATOM      8  N   UNL     1      31.991 -24.330 -14.266  0.00  0.00    -0.180 NA
ATOM      9  C   UNL     1      34.172 -23.684 -14.489  0.00  0.00    +0.018 C 
ATOM     10  C   UNL     1      33.524 -23.425 -15.673  0.00  0.00    +0.063 C 
ATOM     11  C   UNL     1      33.179 -24.242 -13.660  0.00  0.00    +0.115 C 
ATOM     12  H   UNL     1      31.543 -23.753 -16.186  0.00  0.00    +0.174 HD
BRANCH   9  13
ATOM     13  C   UNL     1      35.584 -23.440 -14.151  0.00  0.00    +0.056 C 
BRANCH  13  15
ATOM     14  N   UNL     1      38.157 -26.879 -14.599  0.00  0.00    -0.242 NA
ATOM     15  C   UNL     1      36.491 -24.653 -14.309  0.00  0.00    -0.015 C 
ATOM     16  C   UNL     1      37.731 -24.683 -13.679  0.00  0.00    +0.017 C 
ATOM     17  C   UNL     1      36.084 -25.733 -15.083  0.00  0.00    +0.017 C 
ATOM     18  C   UNL     1      38.519 -25.809 -13.855  0.00  0.00    +0.099 C 
ATOM     19  C   UNL     1      36.946 -26.812 -15.196  0.00  0.00    +0.099 C 
ENDBRANCH  13  15
ENDBRANCH   9  13
ENDBRANCH   1  10
BRANCH   4  20
ATOM     20  O   UNL     1      35.340 -21.211 -20.488  0.00  0.00    -0.468 OA
BRANCH  20  21
ATOM     21  C   UNL     1      35.991 -19.949 -20.410  0.00  0.00    +0.264 C 
BRANCH  21  23
ATOM     22  N   UNL     1      35.094 -19.619 -22.635  0.00  0.00    -0.406 NA
ATOM     23  C   UNL     1      35.441 -19.043 -21.461  0.00  0.00    +0.152 C 
ATOM     24  C   UNL     1      34.429 -17.444 -23.429  0.00  0.00    +0.026 C 
ATOM     25  C   UNL     1      34.595 -18.833 -23.607  0.00  0.00    +0.113 C 
ATOM     26  C   UNL     1      35.316 -17.695 -21.194  0.00  0.00    +0.031 C 
ATOM     27  C   UNL     1      34.802 -16.887 -22.198  0.00  0.00    +0.005 C 
ATOM     28  C   UNL     1      33.904 -16.654 -24.466  0.00  0.00    +0.002 C 
ATOM     29  C   UNL     1      34.224 -19.386 -24.830  0.00  0.00    +0.085 C 
ATOM     30  C   UNL     1      33.542 -17.232 -25.679  0.00  0.00    -0.004 C 
ATOM     31  C   UNL     1      33.702 -18.600 -25.861  0.00  0.00    -0.019 C 
ENDBRANCH  21  23
ENDBRANCH  20  21
ENDBRANCH   4  20
TORSDOF 6
ENDMDL
MODEL 9
REMARK VINA RESULT:     -12.2      3.686      6.609
REMARK  Name = 44141871
REMARK  6 active torsions:
REMARK  status: ('A' for Active; 'I' for Inactive)
REMARK    1  A    between atoms: C_1  and  C_10
REMARK    2  A    between atoms: C_4  and  O_20
REMARK    3  A    between atoms: C_9  and  C_13
REMARK    4  A    between atoms: C_13  and  C_15
REMARK    5  A    between atoms: O_20  and  C_21
REMARK    6  A    between atoms: C_21  and  C_23
REMARK                            x       y       z     vdW  Elec       q    Type
REMARK                         _______ _______ _______ _____ _____    ______ ____
ROOT
ATOM      1  C   UNL     1      33.483 -14.419 -25.005  0.00  0.00    +0.015 C 
ATOM      2  C   UNL     1      33.806 -15.745 -25.292  0.00  0.00    +0.004 C 
ATOM      3  C   UNL     1      33.735 -13.900 -23.734  0.00  0.00    +0.004 C 
ATOM      4  C   UNL     1      34.634 -16.032 -23.040  0.00  0.00    +0.139 C 
ATOM      5  C   UNL     1      34.382 -16.551 -24.310  0.00  0.00    +0.037 C 
ATOM      6  C   UNL     1      34.311 -14.706 -22.753  0.00  0.00    +0.037 C 
ENDROOT
BRANCH   1  10
ATOM      7  N   UNL     1      31.700 -13.890 -26.617  0.00  0.00    -0.236 N 
ATOM      8  N   UNL     1      31.311 -12.992 -27.540  0.00  0.00    -0.180 NA
ATOM      9  C   UNL     1      33.305 -12.408 -26.591  0.00  0.00    +0.018 C 
ATOM     10  C   UNL     1      32.888 -13.585 -26.020  0.00  0.00    +0.063 C 
ATOM     11  C   UNL     1      32.295 -12.089 -27.519  0.00  0.00    +0.115 C 
ATOM     12  H   UNL     1      31.176 -14.692 -26.394  0.00  0.00    +0.174 HD
BRANCH   9  13
ATOM     13  C   UNL     1      34.530 -11.641 -26.306  0.00  0.00    +0.056 C 
BRANCH  13  15
ATOM     14  N   UNL     1      34.024  -8.455 -23.435  0.00  0.00    -0.242 NA
ATOM     15  C   UNL     1      34.352 -10.517 -25.293  0.00  0.00    -0.015 C 
ATOM     16  C   UNL     1      33.147 -10.377 -24.613  0.00  0.00    +0.017 C 
ATOM     17  C   UNL     1      35.392  -9.629 -25.046  0.00  0.00    +0.017 C 
ATOM     18  C   UNL     1      33.035  -9.338 -23.702  0.00  0.00    +0.099 C 
ATOM     19  C   UNL     1      35.179  -8.624 -24.115  0.00  0.00    +0.099 C 
ENDBRANCH  13  15
ENDBRANCH   9  13
ENDBRANCH   1  10
BRANCH   4  20
ATOM     20  O   UNL     1      35.203 -16.822 -22.077  0.00  0.00    -0.468 OA
BRANCH  20  21
ATOM     21  C   UNL     1      35.551 -18.147 -22.458  0.00  0.00    +0.264 C 
BRANCH  21  23
ATOM     22  N   UNL     1      35.572 -19.819 -20.709  0.00  0.00    -0.406 NA
ATOM     23  C   UNL     1      34.823 -19.120 -21.592  0.00  0.00    +0.152 C 
ATOM     24  C   UNL     1      33.558 -20.918 -19.974  0.00  0.00    +0.026 C 
ATOM     25  C   UNL     1      34.951 -20.707 -19.910  0.00  0.00    +0.113 C 
ATOM     26  C   UNL     1      33.457 -19.257 -21.728  0.00  0.00    +0.031 C 
ATOM     27  C   UNL     1      32.819 -20.173 -20.903  0.00  0.00    +0.005 C 
ATOM     28  C   UNL     1      32.942 -21.853 -19.124  0.00  0.00    +0.002 C 
ATOM     29  C   UNL     1      35.684 -21.448 -18.986  0.00  0.00    +0.085 C 
ATOM     30  C   UNL     1      33.699 -22.580 -18.210  0.00  0.00    -0.004 C 
ATOM     31  C   UNL     1      35.072 -22.377 -18.141  0.00  0.00    -0.019 C 
ENDBRANCH  21  23
ENDBRANCH  20  21
ENDBRANCH   4  20
TORSDOF 6
ENDMDL
