MODEL 1
REMARK VINA RESULT:     -13.5      0.000      0.000
REMARK  Name = 4887
REMARK  9 active torsions:
REMARK  status: ('A' for Active; 'I' for Inactive)
REMARK    1  A    between atoms: N_2  and  C_8
REMARK    2  A    between atoms: C_3  and  C_23
REMARK    3  A    between atoms: C_14  and  C_20
REMARK    4  A    between atoms: C_22  and  O_28
REMARK    5  A    between atoms: O_28  and  C_29
REMARK    6  A    between atoms: C_29  and  C_30
REMARK    7  A    between atoms: C_30  and  C_31
REMARK    8  A    between atoms: C_31  and  C_32
REMARK    9  A    between atoms: C_32  and  C_33
REMARK                            x       y       z     vdW  Elec       q    Type
REMARK                         _______ _______ _______ _____ _____    ______ ____
ROOT
ATOM      1  O   UNL     1      33.457 -23.931 -18.853  0.00  0.00    -0.270 OA
ATOM      2  N   UNL     1      33.517 -22.343 -17.121  0.00  0.00    -0.278 N 
ATOM      3  C   UNL     1      33.511 -22.773 -18.453  0.00  0.00    +0.250 C 
ATOM      4  H   UNL     1      33.564 -21.370 -16.981  0.00  0.00    +0.155 HD
ENDROOT
BRANCH   2   8
ATOM      5  O   UNL     1      31.108 -23.161 -16.095  0.00  0.00    -0.442 OA
ATOM      6  O   UNL     1      30.826 -25.450 -12.739  0.00  0.00    -0.286 OA
ATOM      7  C   UNL     1      32.246 -23.549 -15.435  0.00  0.00    +0.163 C 
ATOM      8  C   UNL     1      33.466 -23.127 -15.965  0.00  0.00    +0.086 C 
ATOM      9  C   UNL     1      32.222 -24.331 -14.282  0.00  0.00    +0.075 C 
ATOM     10  C   UNL     1      34.658 -23.490 -15.338  0.00  0.00    +0.018 C 
ATOM     11  C   UNL     1      33.413 -24.697 -13.651  0.00  0.00    +0.006 C 
ATOM     12  C   UNL     1      30.923 -24.761 -13.746  0.00  0.00    +0.202 C 
ATOM     13  C   UNL     1      34.632 -24.274 -14.184  0.00  0.00    +0.002 C 
ATOM     14  C   UNL     1      29.874 -23.561 -15.595  0.00  0.00    +0.213 C 
ATOM     15  C   UNL     1      29.731 -24.316 -14.493  0.00  0.00    +0.090 C 
BRANCH  14  20
ATOM     16  N   UNL     1      28.342 -23.581 -17.549  0.00  0.00    -0.107 NA
ATOM     17  N   UNL     1      28.044 -22.009 -15.946  0.00  0.00    -0.084 NA
ATOM     18  N   UNL     1      27.320 -22.746 -17.786  0.00  0.00    -0.140 N 
ATOM     19  N   UNL     1      27.107 -21.799 -16.862  0.00  0.00    -0.022 NA
ATOM     20  C   UNL     1      28.765 -23.080 -16.386  0.00  0.00    +0.109 C 
ATOM     21  H   UNL     1      26.759 -22.824 -18.591  0.00  0.00    +0.197 HD
ENDBRANCH  14  20
ENDBRANCH   2   8
BRANCH   3  23
ATOM     22  C   UNL     1      33.778 -19.664 -21.377  0.00  0.00    +0.139 C 
ATOM     23  C   UNL     1      33.603 -21.692 -19.470  0.00  0.00    +0.054 C 
ATOM     24  C   UNL     1      34.938 -20.282 -20.908  0.00  0.00    +0.037 C 
ATOM     25  C   UNL     1      32.532 -20.060 -20.893  0.00  0.00    +0.037 C 
ATOM     26  C   UNL     1      34.850 -21.296 -19.954  0.00  0.00    +0.008 C 
ATOM     27  C   UNL     1      32.444 -21.074 -19.939  0.00  0.00    +0.008 C 
BRANCH  22  28
ATOM     28  O   UNL     1      33.864 -18.677 -22.309  0.00  0.00    -0.475 OA
BRANCH  28  29
ATOM     29  C   UNL     1      35.085 -17.942 -22.366  0.00  0.00    +0.205 C 
BRANCH  29  30
ATOM     30  C   UNL     1      34.776 -16.460 -22.201  0.00  0.00    +0.048 C 
BRANCH  30  31
ATOM     31  C   UNL     1      34.591 -15.770 -23.551  0.00  0.00    +0.009 C 
BRANCH  31  32
ATOM     32  C   UNL     1      34.827 -16.743 -24.708  0.00  0.00    +0.026 C 
BRANCH  32  33
ATOM     33  C   UNL     1      33.625 -16.832 -25.615  0.00  0.00    -0.022 C 
ATOM     34  C   UNL     1      32.807 -17.961 -25.579  0.00  0.00    -0.004 C 
ATOM     35  C   UNL     1      33.332 -15.787 -26.489  0.00  0.00    -0.004 C 
ATOM     36  C   UNL     1      31.696 -18.045 -26.418  0.00  0.00    -0.000 C 
ATOM     37  C   UNL     1      32.221 -15.869 -27.328  0.00  0.00    -0.000 C 
ATOM     38  C   UNL     1      31.403 -16.998 -27.293  0.00  0.00    -0.000 C 
ENDBRANCH  32  33
ENDBRANCH  31  32
ENDBRANCH  30  31
ENDBRANCH  29  30
ENDBRANCH  28  29
ENDBRANCH  22  28
ENDBRANCH   3  23
TORSDOF 9
ENDMDL
MODEL 2
REMARK VINA RESULT:     -13.4      1.722      3.897
REMARK  Name = 4887
REMARK  9 active torsions:
REMARK  status: ('A' for Active; 'I' for Inactive)
REMARK    1  A    between atoms: N_2  and  C_8
REMARK    2  A    between atoms: C_3  and  C_23
REMARK    3  A    between atoms: C_14  and  C_20
REMARK    4  A    between atoms: C_22  and  O_28
REMARK    5  A    between atoms: O_28  and  C_29
REMARK    6  A    between atoms: C_29  and  C_30
REMARK    7  A    between atoms: C_30  and  C_31
REMARK    8  A    between atoms: C_31  and  C_32
REMARK    9  A    between atoms: C_32  and  C_33
REMARK                            x       y       z     vdW  Elec       q    Type
REMARK                         _______ _______ _______ _____ _____    ______ ____
ROOT
ATOM      1  O   UNL     1      33.354 -23.792 -18.643  0.00  0.00    -0.270 OA
ATOM      2  N   UNL     1      31.959 -22.122 -17.754  0.00  0.00    -0.278 N 
ATOM      3  C   UNL     1      32.957 -22.633 -18.592  0.00  0.00    +0.250 C 
ATOM      4  H   UNL     1      31.766 -21.162 -17.847  0.00  0.00    +0.155 HD
ENDROOT
BRANCH   2   8
ATOM      5  O   UNL     1      33.178 -23.316 -15.606  0.00  0.00    -0.442 OA
ATOM      6  O   UNL     1      31.091 -25.344 -12.758  0.00  0.00    -0.286 OA
ATOM      7  C   UNL     1      31.814 -23.421 -15.703  0.00  0.00    +0.163 C 
ATOM      8  C   UNL     1      31.204 -22.810 -16.799  0.00  0.00    +0.086 C 
ATOM      9  C   UNL     1      31.038 -24.099 -14.765  0.00  0.00    +0.075 C 
ATOM     10  C   UNL     1      29.820 -22.881 -16.953  0.00  0.00    +0.018 C 
ATOM     11  C   UNL     1      29.652 -24.173 -14.914  0.00  0.00    +0.006 C 
ATOM     12  C   UNL     1      31.707 -24.733 -13.620  0.00  0.00    +0.202 C 
ATOM     13  C   UNL     1      29.045 -23.562 -16.012  0.00  0.00    +0.002 C 
ATOM     14  C   UNL     1      33.821 -23.914 -14.528  0.00  0.00    +0.213 C 
ATOM     15  C   UNL     1      33.176 -24.592 -13.564  0.00  0.00    +0.090 C 
BRANCH  14  20
ATOM     16  N   UNL     1      36.030 -23.687 -15.639  0.00  0.00    -0.107 NA
ATOM     17  N   UNL     1      35.929 -23.573 -13.379  0.00  0.00    -0.084 NA
ATOM     18  N   UNL     1      37.218 -23.498 -15.048  0.00  0.00    -0.140 N 
ATOM     19  N   UNL     1      37.206 -23.424 -13.710  0.00  0.00    -0.022 NA
ATOM     20  C   UNL     1      35.253 -23.727 -14.554  0.00  0.00    +0.109 C 
ATOM     21  H   UNL     1      38.051 -23.418 -15.566  0.00  0.00    +0.197 HD
ENDBRANCH  14  20
ENDBRANCH   2   8
BRANCH   3  23
ATOM     22  C   UNL     1      34.818 -19.775 -21.171  0.00  0.00    +0.139 C 
ATOM     23  C   UNL     1      33.603 -21.639 -19.489  0.00  0.00    +0.054 C 
ATOM     24  C   UNL     1      35.602 -20.656 -20.426  0.00  0.00    +0.037 C 
ATOM     25  C   UNL     1      33.427 -19.826 -21.076  0.00  0.00    +0.037 C 
ATOM     26  C   UNL     1      34.994 -21.588 -19.584  0.00  0.00    +0.008 C 
ATOM     27  C   UNL     1      32.819 -20.758 -20.235  0.00  0.00    +0.008 C 
BRANCH  22  28
ATOM     28  O   UNL     1      35.410 -18.867 -21.994  0.00  0.00    -0.475 OA
BRANCH  28  29
ATOM     29  C   UNL     1      35.224 -17.488 -21.680  0.00  0.00    +0.205 C 
BRANCH  29  30
ATOM     30  C   UNL     1      34.518 -16.809 -22.845  0.00  0.00    +0.048 C 
BRANCH  30  31
ATOM     31  C   UNL     1      34.840 -17.492 -24.173  0.00  0.00    +0.009 C 
BRANCH  31  32
ATOM     32  C   UNL     1      33.595 -18.150 -24.774  0.00  0.00    +0.026 C 
BRANCH  32  33
ATOM     33  C   UNL     1      32.928 -17.255 -25.788  0.00  0.00    -0.022 C 
ATOM     34  C   UNL     1      31.693 -17.613 -26.328  0.00  0.00    -0.004 C 
ATOM     35  C   UNL     1      33.545 -16.070 -26.186  0.00  0.00    -0.004 C 
ATOM     36  C   UNL     1      31.075 -16.786 -27.266  0.00  0.00    -0.000 C 
ATOM     37  C   UNL     1      32.928 -15.242 -27.124  0.00  0.00    -0.000 C 
ATOM     38  C   UNL     1      31.693 -15.600 -27.664  0.00  0.00    -0.000 C 
ENDBRANCH  32  33
ENDBRANCH  31  32
ENDBRANCH  30  31
ENDBRANCH  29  30
ENDBRANCH  28  29
ENDBRANCH  22  28
ENDBRANCH   3  23
TORSDOF 9
ENDMDL
MODEL 3
REMARK VINA RESULT:     -13.3      1.115      2.513
REMARK  Name = 4887
REMARK  9 active torsions:
REMARK  status: ('A' for Active; 'I' for Inactive)
REMARK    1  A    between atoms: N_2  and  C_8
REMARK    2  A    between atoms: C_3  and  C_23
REMARK    3  A    between atoms: C_14  and  C_20
REMARK    4  A    between atoms: C_22  and  O_28
REMARK    5  A    between atoms: O_28  and  C_29
REMARK    6  A    between atoms: C_29  and  C_30
REMARK    7  A    between atoms: C_30  and  C_31
REMARK    8  A    between atoms: C_31  and  C_32
REMARK    9  A    between atoms: C_32  and  C_33
REMARK                            x       y       z     vdW  Elec       q    Type
REMARK                         _______ _______ _______ _____ _____    ______ ____
ROOT
ATOM      1  O   UNL     1      35.614 -22.372 -18.187  0.00  0.00    -0.270 OA
ATOM      2  N   UNL     1      33.345 -22.429 -17.576  0.00  0.00    -0.278 N 
ATOM      3  C   UNL     1      34.439 -22.079 -18.377  0.00  0.00    +0.250 C 
ATOM      4  H   UNL     1      32.466 -22.107 -17.880  0.00  0.00    +0.155 HD
ENDROOT
BRANCH   2   8
ATOM      5  O   UNL     1      30.988 -23.145 -16.370  0.00  0.00    -0.442 OA
ATOM      6  O   UNL     1      30.866 -25.330 -12.936  0.00  0.00    -0.286 OA
ATOM      7  C   UNL     1      32.156 -23.549 -15.774  0.00  0.00    +0.163 C 
ATOM      8  C   UNL     1      33.349 -23.179 -16.396  0.00  0.00    +0.086 C 
ATOM      9  C   UNL     1      32.187 -24.297 -14.600  0.00  0.00    +0.075 C 
ATOM     10  C   UNL     1      34.569 -23.559 -15.839  0.00  0.00    +0.018 C 
ATOM     11  C   UNL     1      33.407 -24.681 -14.038  0.00  0.00    +0.006 C 
ATOM     12  C   UNL     1      30.915 -24.673 -13.967  0.00  0.00    +0.202 C 
ATOM     13  C   UNL     1      34.599 -24.309 -14.662  0.00  0.00    +0.002 C 
ATOM     14  C   UNL     1      29.779 -23.495 -15.778  0.00  0.00    +0.213 C 
ATOM     15  C   UNL     1      29.688 -24.213 -14.647  0.00  0.00    +0.090 C 
BRANCH  14  20
ATOM     16  N   UNL     1      28.246 -23.383 -17.728  0.00  0.00    -0.107 NA
ATOM     17  N   UNL     1      27.835 -22.054 -15.941  0.00  0.00    -0.084 NA
ATOM     18  N   UNL     1      27.162 -22.605 -17.863  0.00  0.00    -0.140 N 
ATOM     19  N   UNL     1      26.882 -21.801 -16.829  0.00  0.00    -0.022 NA
ATOM     20  C   UNL     1      28.634 -23.003 -16.508  0.00  0.00    +0.109 C 
ATOM     21  H   UNL     1      26.606 -22.623 -18.675  0.00  0.00    +0.197 HD
ENDBRANCH  14  20
ENDBRANCH   2   8
BRANCH   3  23
ATOM     22  C   UNL     1      33.510 -19.678 -21.791  0.00  0.00    +0.139 C 
ATOM     23  C   UNL     1      34.117 -21.244 -19.563  0.00  0.00    +0.054 C 
ATOM     24  C   UNL     1      32.485 -20.150 -20.970  0.00  0.00    +0.037 C 
ATOM     25  C   UNL     1      34.838 -19.990 -21.498  0.00  0.00    +0.037 C 
ATOM     26  C   UNL     1      32.789 -20.933 -19.856  0.00  0.00    +0.008 C 
ATOM     27  C   UNL     1      35.142 -20.773 -20.385  0.00  0.00    +0.008 C 
BRANCH  22  28
ATOM     28  O   UNL     1      33.214 -18.912 -22.876  0.00  0.00    -0.475 OA
BRANCH  28  29
ATOM     29  C   UNL     1      34.113 -18.978 -23.982  0.00  0.00    +0.205 C 
BRANCH  29  30
ATOM     30  C   UNL     1      33.420 -18.413 -25.213  0.00  0.00    +0.048 C 
BRANCH  30  31
ATOM     31  C   UNL     1      33.810 -16.957 -25.462  0.00  0.00    +0.009 C 
BRANCH  31  32
ATOM     32  C   UNL     1      34.888 -16.497 -24.476  0.00  0.00    +0.026 C 
BRANCH  32  33
ATOM     33  C   UNL     1      34.348 -15.490 -23.492  0.00  0.00    -0.022 C 
ATOM     34  C   UNL     1      33.547 -14.439 -23.938  0.00  0.00    -0.004 C 
ATOM     35  C   UNL     1      34.649 -15.610 -22.136  0.00  0.00    -0.004 C 
ATOM     36  C   UNL     1      33.049 -13.507 -23.029  0.00  0.00    -0.000 C 
ATOM     37  C   UNL     1      34.151 -14.678 -21.225  0.00  0.00    -0.000 C 
ATOM     38  C   UNL     1      33.350 -13.627 -21.672  0.00  0.00    -0.000 C 
ENDBRANCH  32  33
ENDBRANCH  31  32
ENDBRANCH  30  31
ENDBRANCH  29  30
ENDBRANCH  28  29
ENDBRANCH  22  28
ENDBRANCH   3  23
TORSDOF 9
ENDMDL
MODEL 4
REMARK VINA RESULT:     -13.2      0.895      1.662
REMARK  Name = 4887
REMARK  9 active torsions:
REMARK  status: ('A' for Active; 'I' for Inactive)
REMARK    1  A    between atoms: N_2  and  C_8
REMARK    2  A    between atoms: C_3  and  C_23
REMARK    3  A    between atoms: C_14  and  C_20
REMARK    4  A    between atoms: C_22  and  O_28
REMARK    5  A    between atoms: O_28  and  C_29
REMARK    6  A    between atoms: C_29  and  C_30
REMARK    7  A    between atoms: C_30  and  C_31
REMARK    8  A    between atoms: C_31  and  C_32
REMARK    9  A    between atoms: C_32  and  C_33
REMARK                            x       y       z     vdW  Elec       q    Type
REMARK                         _______ _______ _______ _____ _____    ______ ____
ROOT
ATOM      1  O   UNL     1      33.450 -23.938 -18.839  0.00  0.00    -0.270 OA
ATOM      2  N   UNL     1      33.551 -22.362 -17.098  0.00  0.00    -0.278 N 
ATOM      3  C   UNL     1      33.532 -22.784 -18.433  0.00  0.00    +0.250 C 
ATOM      4  H   UNL     1      33.621 -21.391 -16.953  0.00  0.00    +0.155 HD
ENDROOT
BRANCH   2   8
ATOM      5  O   UNL     1      31.128 -23.169 -16.098  0.00  0.00    -0.442 OA
ATOM      6  O   UNL     1      30.800 -25.472 -12.756  0.00  0.00    -0.286 OA
ATOM      7  C   UNL     1      32.257 -23.568 -15.429  0.00  0.00    +0.163 C 
ATOM      8  C   UNL     1      33.484 -23.151 -15.946  0.00  0.00    +0.086 C 
ATOM      9  C   UNL     1      32.218 -24.355 -14.281  0.00  0.00    +0.075 C 
ATOM     10  C   UNL     1      34.668 -23.525 -15.310  0.00  0.00    +0.018 C 
ATOM     11  C   UNL     1      33.400 -24.732 -13.640  0.00  0.00    +0.006 C 
ATOM     12  C   UNL     1      30.911 -24.779 -13.758  0.00  0.00    +0.202 C 
ATOM     13  C   UNL     1      34.626 -24.313 -14.159  0.00  0.00    +0.002 C 
ATOM     14  C   UNL     1      29.886 -23.564 -15.612  0.00  0.00    +0.213 C 
ATOM     15  C   UNL     1      29.728 -24.323 -14.514  0.00  0.00    +0.090 C 
BRANCH  14  20
ATOM     16  N   UNL     1      28.366 -23.571 -17.575  0.00  0.00    -0.107 NA
ATOM     17  N   UNL     1      28.076 -21.992 -15.978  0.00  0.00    -0.084 NA
ATOM     18  N   UNL     1      27.356 -22.725 -17.820  0.00  0.00    -0.140 N 
ATOM     19  N   UNL     1      27.148 -21.774 -16.900  0.00  0.00    -0.022 NA
ATOM     20  C   UNL     1      28.788 -23.073 -16.410  0.00  0.00    +0.109 C 
ATOM     21  H   UNL     1      26.799 -22.799 -18.628  0.00  0.00    +0.197 HD
ENDBRANCH  14  20
ENDBRANCH   2   8
BRANCH   3  23
ATOM     22  C   UNL     1      33.863 -19.667 -21.341  0.00  0.00    +0.139 C 
ATOM     23  C   UNL     1      33.647 -21.701 -19.443  0.00  0.00    +0.054 C 
ATOM     24  C   UNL     1      32.605 -20.069 -20.889  0.00  0.00    +0.037 C 
ATOM     25  C   UNL     1      35.012 -20.282 -20.845  0.00  0.00    +0.037 C 
ATOM     26  C   UNL     1      32.498 -21.086 -19.940  0.00  0.00    +0.008 C 
ATOM     27  C   UNL     1      34.905 -21.299 -19.896  0.00  0.00    +0.008 C 
BRANCH  22  28
ATOM     28  O   UNL     1      33.968 -18.674 -22.265  0.00  0.00    -0.475 OA
BRANCH  28  29
ATOM     29  C   UNL     1      34.937 -18.847 -23.298  0.00  0.00    +0.205 C 
BRANCH  29  30
ATOM     30  C   UNL     1      34.214 -19.142 -24.605  0.00  0.00    +0.048 C 
BRANCH  30  31
ATOM     31  C   UNL     1      33.100 -18.132 -24.873  0.00  0.00    +0.009 C 
BRANCH  31  32
ATOM     32  C   UNL     1      32.700 -18.127 -26.350  0.00  0.00    +0.026 C 
BRANCH  32  33
ATOM     33  C   UNL     1      32.297 -16.750 -26.813  0.00  0.00    -0.022 C 
ATOM     34  C   UNL     1      33.194 -15.687 -26.701  0.00  0.00    -0.004 C 
ATOM     35  C   UNL     1      31.029 -16.538 -27.352  0.00  0.00    -0.004 C 
ATOM     36  C   UNL     1      32.822 -14.413 -27.128  0.00  0.00    -0.000 C 
ATOM     37  C   UNL     1      30.657 -15.264 -27.780  0.00  0.00    -0.000 C 
ATOM     38  C   UNL     1      31.553 -14.201 -27.668  0.00  0.00    -0.000 C 
ENDBRANCH  32  33
ENDBRANCH  31  32
ENDBRANCH  30  31
ENDBRANCH  29  30
ENDBRANCH  28  29
ENDBRANCH  22  28
ENDBRANCH   3  23
TORSDOF 9
ENDMDL
MODEL 5
REMARK VINA RESULT:     -12.8      1.287      2.101
REMARK  Name = 4887
REMARK  9 active torsions:
REMARK  status: ('A' for Active; 'I' for Inactive)
REMARK    1  A    between atoms: N_2  and  C_8
REMARK    2  A    between atoms: C_3  and  C_23
REMARK    3  A    between atoms: C_14  and  C_20
REMARK    4  A    between atoms: C_22  and  O_28
REMARK    5  A    between atoms: O_28  and  C_29
REMARK    6  A    between atoms: C_29  and  C_30
REMARK    7  A    between atoms: C_30  and  C_31
REMARK    8  A    between atoms: C_31  and  C_32
REMARK    9  A    between atoms: C_32  and  C_33
REMARK                            x       y       z     vdW  Elec       q    Type
REMARK                         _______ _______ _______ _____ _____    ______ ____
ROOT
ATOM      1  O   UNL     1      33.833 -23.433 -18.509  0.00  0.00    -0.270 OA
ATOM      2  N   UNL     1      35.219 -21.939 -17.337  0.00  0.00    -0.278 N 
ATOM      3  C   UNL     1      34.419 -22.361 -18.406  0.00  0.00    +0.250 C 
ATOM      4  H   UNL     1      35.614 -21.042 -17.421  0.00  0.00    +0.155 HD
ENDROOT
BRANCH   2   8
ATOM      5  O   UNL     1      33.222 -22.927 -15.738  0.00  0.00    -0.442 OA
ATOM      6  O   UNL     1      33.986 -24.981 -12.306  0.00  0.00    -0.286 OA
ATOM      7  C   UNL     1      34.518 -23.145 -15.345  0.00  0.00    +0.163 C 
ATOM      8  C   UNL     1      35.526 -22.638 -16.166  0.00  0.00    +0.086 C 
ATOM      9  C   UNL     1      34.851 -23.839 -14.184  0.00  0.00    +0.075 C 
ATOM     10  C   UNL     1      36.864 -22.828 -15.821  0.00  0.00    +0.018 C 
ATOM     11  C   UNL     1      36.189 -24.032 -13.834  0.00  0.00    +0.006 C 
ATOM     12  C   UNL     1      33.769 -24.362 -13.338  0.00  0.00    +0.202 C 
ATOM     13  C   UNL     1      37.195 -23.524 -14.657  0.00  0.00    +0.002 C 
ATOM     14  C   UNL     1      32.191 -23.416 -14.943  0.00  0.00    +0.213 C 
ATOM     15  C   UNL     1      32.393 -24.099 -13.804  0.00  0.00    +0.090 C 
BRANCH  14  20
ATOM     16  N   UNL     1      30.587 -22.810 -16.740  0.00  0.00    -0.107 NA
ATOM     17  N   UNL     1      29.803 -23.119 -14.638  0.00  0.00    -0.084 NA
ATOM     18  N   UNL     1      29.263 -22.636 -16.619  0.00  0.00    -0.140 N 
ATOM     19  N   UNL     1      28.756 -22.809 -15.391  0.00  0.00    -0.022 NA
ATOM     20  C   UNL     1      30.882 -23.112 -15.473  0.00  0.00    +0.109 C 
ATOM     21  H   UNL     1      28.697 -22.395 -17.387  0.00  0.00    +0.197 HD
ENDBRANCH  14  20
ENDBRANCH   2   8
BRANCH   3  23
ATOM     22  C   UNL     1      34.083 -19.588 -21.644  0.00  0.00    +0.139 C 
ATOM     23  C   UNL     1      34.303 -21.397 -19.531  0.00  0.00    +0.054 C 
ATOM     24  C   UNL     1      32.934 -20.064 -21.010  0.00  0.00    +0.037 C 
ATOM     25  C   UNL     1      35.341 -20.017 -21.221  0.00  0.00    +0.037 C 
ATOM     26  C   UNL     1      33.044 -20.968 -19.954  0.00  0.00    +0.008 C 
ATOM     27  C   UNL     1      35.452 -20.921 -20.165  0.00  0.00    +0.008 C 
BRANCH  22  28
ATOM     28  O   UNL     1      33.976 -18.704 -22.672  0.00  0.00    -0.475 OA
BRANCH  28  29
ATOM     29  C   UNL     1      35.118 -17.897 -22.956  0.00  0.00    +0.205 C 
BRANCH  29  30
ATOM     30  C   UNL     1      34.800 -16.452 -22.598  0.00  0.00    +0.048 C 
BRANCH  30  31
ATOM     31  C   UNL     1      34.456 -15.627 -23.837  0.00  0.00    +0.009 C 
BRANCH  31  32
ATOM     32  C   UNL     1      34.723 -16.418 -25.120  0.00  0.00    +0.026 C 
BRANCH  32  33
ATOM     33  C   UNL     1      33.473 -16.566 -25.952  0.00  0.00    -0.022 C 
ATOM     34  C   UNL     1      33.056 -15.520 -26.775  0.00  0.00    -0.004 C 
ATOM     35  C   UNL     1      32.735 -17.747 -25.898  0.00  0.00    -0.004 C 
ATOM     36  C   UNL     1      31.900 -15.656 -27.543  0.00  0.00    -0.000 C 
ATOM     37  C   UNL     1      31.580 -17.884 -26.667  0.00  0.00    -0.000 C 
ATOM     38  C   UNL     1      31.162 -16.839 -27.489  0.00  0.00    -0.000 C 
ENDBRANCH  32  33
ENDBRANCH  31  32
ENDBRANCH  30  31
ENDBRANCH  29  30
ENDBRANCH  28  29
ENDBRANCH  22  28
ENDBRANCH   3  23
TORSDOF 9
ENDMDL
MODEL 6
REMARK VINA RESULT:     -12.6      2.000      4.327
REMARK  Name = 4887
REMARK  9 active torsions:
REMARK  status: ('A' for Active; 'I' for Inactive)
REMARK    1  A    between atoms: N_2  and  C_8
REMARK    2  A    between atoms: C_3  and  C_23
REMARK    3  A    between atoms: C_14  and  C_20
REMARK    4  A    between atoms: C_22  and  O_28
REMARK    5  A    between atoms: O_28  and  C_29
REMARK    6  A    between atoms: C_29  and  C_30
REMARK    7  A    between atoms: C_30  and  C_31
REMARK    8  A    between atoms: C_31  and  C_32
REMARK    9  A    between atoms: C_32  and  C_33
REMARK                            x       y       z     vdW  Elec       q    Type
REMARK                         _______ _______ _______ _____ _____    ______ ____
ROOT
ATOM      1  O   UNL     1      33.223 -23.836 -18.613  0.00  0.00    -0.270 OA
ATOM      2  N   UNL     1      31.843 -22.161 -17.711  0.00  0.00    -0.278 N 
ATOM      3  C   UNL     1      32.840 -22.673 -18.549  0.00  0.00    +0.250 C 
ATOM      4  H   UNL     1      31.662 -21.197 -17.793  0.00  0.00    +0.155 HD
ENDROOT
BRANCH   2   8
ATOM      5  O   UNL     1      33.034 -23.420 -15.584  0.00  0.00    -0.442 OA
ATOM      6  O   UNL     1      30.901 -25.460 -12.779  0.00  0.00    -0.286 OA
ATOM      7  C   UNL     1      31.668 -23.496 -15.685  0.00  0.00    +0.163 C 
ATOM      8  C   UNL     1      31.072 -22.852 -16.771  0.00  0.00    +0.086 C 
ATOM      9  C   UNL     1      30.878 -24.177 -14.762  0.00  0.00    +0.075 C 
ATOM     10  C   UNL     1      29.687 -22.893 -16.928  0.00  0.00    +0.018 C 
ATOM     11  C   UNL     1      29.490 -24.221 -14.915  0.00  0.00    +0.006 C 
ATOM     12  C   UNL     1      31.532 -24.845 -13.629  0.00  0.00    +0.202 C 
ATOM     13  C   UNL     1      28.897 -23.576 -16.002  0.00  0.00    +0.002 C 
ATOM     14  C   UNL     1      33.663 -24.050 -14.516  0.00  0.00    +0.213 C 
ATOM     15  C   UNL     1      33.002 -24.734 -13.567  0.00  0.00    +0.090 C 
BRANCH  14  20
ATOM     16  N   UNL     1      35.818 -23.068 -13.769  0.00  0.00    -0.107 NA
ATOM     17  N   UNL     1      35.841 -24.631 -15.409  0.00  0.00    -0.084 NA
ATOM     18  N   UNL     1      37.043 -23.357 -14.231  0.00  0.00    -0.140 N 
ATOM     19  N   UNL     1      37.104 -24.278 -15.203  0.00  0.00    -0.022 NA
ATOM     20  C   UNL     1      35.098 -23.891 -14.536  0.00  0.00    +0.109 C 
ATOM     21  H   UNL     1      37.849 -22.919 -13.877  0.00  0.00    +0.197 HD
ENDBRANCH  14  20
ENDBRANCH   2   8
BRANCH   3  23
ATOM     22  C   UNL     1      34.753 -19.804 -21.078  0.00  0.00    +0.139 C 
ATOM     23  C   UNL     1      33.505 -21.676 -19.428  0.00  0.00    +0.054 C 
ATOM     24  C   UNL     1      33.360 -19.854 -21.008  0.00  0.00    +0.037 C 
ATOM     25  C   UNL     1      35.521 -20.690 -20.323  0.00  0.00    +0.037 C 
ATOM     26  C   UNL     1      32.736 -20.790 -20.183  0.00  0.00    +0.008 C 
ATOM     27  C   UNL     1      34.898 -21.626 -19.498  0.00  0.00    +0.008 C 
BRANCH  22  28
ATOM     28  O   UNL     1      35.361 -18.890 -21.881  0.00  0.00    -0.475 OA
BRANCH  28  29
ATOM     29  C   UNL     1      34.514 -18.009 -22.619  0.00  0.00    +0.205 C 
BRANCH  29  30
ATOM     30  C   UNL     1      34.781 -18.203 -24.106  0.00  0.00    +0.048 C 
BRANCH  30  31
ATOM     31  C   UNL     1      34.738 -16.877 -24.863  0.00  0.00    +0.009 C 
BRANCH  31  32
ATOM     32  C   UNL     1      33.311 -16.331 -24.944  0.00  0.00    +0.026 C 
BRANCH  32  33
ATOM     33  C   UNL     1      33.293 -14.824 -24.980  0.00  0.00    -0.022 C 
ATOM     34  C   UNL     1      33.581 -14.096 -23.826  0.00  0.00    -0.004 C 
ATOM     35  C   UNL     1      32.987 -14.158 -26.166  0.00  0.00    -0.004 C 
ATOM     36  C   UNL     1      33.564 -12.702 -23.858  0.00  0.00    -0.000 C 
ATOM     37  C   UNL     1      32.970 -12.763 -26.199  0.00  0.00    -0.000 C 
ATOM     38  C   UNL     1      33.258 -12.035 -25.045  0.00  0.00    -0.000 C 
ENDBRANCH  32  33
ENDBRANCH  31  32
ENDBRANCH  30  31
ENDBRANCH  29  30
ENDBRANCH  28  29
ENDBRANCH  22  28
ENDBRANCH   3  23
TORSDOF 9
ENDMDL
MODEL 7
REMARK VINA RESULT:     -12.2      6.611     12.891
REMARK  Name = 4887
REMARK  9 active torsions:
REMARK  status: ('A' for Active; 'I' for Inactive)
REMARK    1  A    between atoms: N_2  and  C_8
REMARK    2  A    between atoms: C_3  and  C_23
REMARK    3  A    between atoms: C_14  and  C_20
REMARK    4  A    between atoms: C_22  and  O_28
REMARK    5  A    between atoms: O_28  and  C_29
REMARK    6  A    between atoms: C_29  and  C_30
REMARK    7  A    between atoms: C_30  and  C_31
REMARK    8  A    between atoms: C_31  and  C_32
REMARK    9  A    between atoms: C_32  and  C_33
REMARK                            x       y       z     vdW  Elec       q    Type
REMARK                         _______ _______ _______ _____ _____    ______ ____
ROOT
ATOM      1  O   UNL     1      32.922 -13.833 -25.049  0.00  0.00    -0.270 OA
ATOM      2  N   UNL     1      34.268 -12.298 -23.883  0.00  0.00    -0.278 N 
ATOM      3  C   UNL     1      33.707 -13.553 -24.150  0.00  0.00    +0.250 C 
ATOM      4  H   UNL     1      34.884 -12.255 -23.117  0.00  0.00    +0.155 HD
ENDROOT
BRANCH   2   8
ATOM      5  O   UNL     1      32.847 -10.256 -22.728  0.00  0.00    -0.442 OA
ATOM      6  O   UNL     1      32.171  -6.718 -24.626  0.00  0.00    -0.286 OA
ATOM      7  C   UNL     1      33.337 -10.055 -23.993  0.00  0.00    +0.163 C 
ATOM      8  C   UNL     1      34.058 -11.100 -24.571  0.00  0.00    +0.086 C 
ATOM      9  C   UNL     1      33.142  -8.870 -24.700  0.00  0.00    +0.075 C 
ATOM     10  C   UNL     1      34.581 -10.955 -25.856  0.00  0.00    +0.018 C 
ATOM     11  C   UNL     1      33.665  -8.720 -25.987  0.00  0.00    +0.006 C 
ATOM     12  C   UNL     1      32.379  -7.786 -24.066  0.00  0.00    +0.202 C 
ATOM     13  C   UNL     1      34.385  -9.768 -26.563  0.00  0.00    +0.002 C 
ATOM     14  C   UNL     1      32.123  -9.237 -22.120  0.00  0.00    +0.213 C 
ATOM     15  C   UNL     1      31.874  -8.054 -22.705  0.00  0.00    +0.090 C 
BRANCH  14  20
ATOM     16  N   UNL     1      30.754 -10.509 -20.485  0.00  0.00    -0.107 NA
ATOM     17  N   UNL     1      32.189  -8.935 -19.714  0.00  0.00    -0.084 NA
ATOM     18  N   UNL     1      30.756 -10.378 -19.150  0.00  0.00    -0.140 N 
ATOM     19  N   UNL     1      31.591  -9.456 -18.651  0.00  0.00    -0.022 NA
ATOM     20  C   UNL     1      31.667  -9.585 -20.794  0.00  0.00    +0.109 C 
ATOM     21  H   UNL     1      30.178 -10.925 -18.572  0.00  0.00    +0.197 HD
ENDBRANCH  14  20
ENDBRANCH   2   8
BRANCH   3  23
ATOM     22  C   UNL     1      34.854 -16.675 -21.462  0.00  0.00    +0.139 C 
ATOM     23  C   UNL     1      34.106 -14.639 -23.216  0.00  0.00    +0.054 C 
ATOM     24  C   UNL     1      34.475 -15.428 -20.963  0.00  0.00    +0.037 C 
ATOM     25  C   UNL     1      34.860 -16.903 -22.838  0.00  0.00    +0.037 C 
ATOM     26  C   UNL     1      34.101 -14.410 -21.840  0.00  0.00    +0.008 C 
ATOM     27  C   UNL     1      34.485 -15.885 -23.715  0.00  0.00    +0.008 C 
BRANCH  22  28
ATOM     28  O   UNL     1      35.217 -17.668 -20.606  0.00  0.00    -0.475 OA
BRANCH  28  29
ATOM     29  C   UNL     1      35.151 -19.006 -21.099  0.00  0.00    +0.205 C 
BRANCH  29  30
ATOM     30  C   UNL     1      33.715 -19.499 -20.990  0.00  0.00    +0.048 C 
BRANCH  30  31
ATOM     31  C   UNL     1      33.612 -20.744 -20.110  0.00  0.00    +0.009 C 
BRANCH  31  32
ATOM     32  C   UNL     1      34.980 -21.405 -19.925  0.00  0.00    +0.026 C 
BRANCH  32  33
ATOM     33  C   UNL     1      35.161 -21.925 -18.521  0.00  0.00    -0.022 C 
ATOM     34  C   UNL     1      34.121 -22.606 -17.890  0.00  0.00    -0.004 C 
ATOM     35  C   UNL     1      36.368 -21.723 -17.853  0.00  0.00    -0.004 C 
ATOM     36  C   UNL     1      34.287 -23.086 -16.591  0.00  0.00    -0.000 C 
ATOM     37  C   UNL     1      36.536 -22.203 -16.554  0.00  0.00    -0.000 C 
ATOM     38  C   UNL     1      35.496 -22.884 -15.923  0.00  0.00    -0.000 C 
ENDBRANCH  32  33
ENDBRANCH  31  32
ENDBRANCH  30  31
ENDBRANCH  29  30
ENDBRANCH  28  29
ENDBRANCH  22  28
ENDBRANCH   3  23
TORSDOF 9
ENDMDL
MODEL 8
REMARK VINA RESULT:     -12.0      7.595     13.511
REMARK  Name = 4887
REMARK  9 active torsions:
REMARK  status: ('A' for Active; 'I' for Inactive)
REMARK    1  A    between atoms: N_2  and  C_8
REMARK    2  A    between atoms: C_3  and  C_23
REMARK    3  A    between atoms: C_14  and  C_20
REMARK    4  A    between atoms: C_22  and  O_28
REMARK    5  A    between atoms: O_28  and  C_29
REMARK    6  A    between atoms: C_29  and  C_30
REMARK    7  A    between atoms: C_30  and  C_31
REMARK    8  A    between atoms: C_31  and  C_32
REMARK    9  A    between atoms: C_32  and  C_33
REMARK                            x       y       z     vdW  Elec       q    Type
REMARK                         _______ _______ _______ _____ _____    ______ ____
ROOT
ATOM      1  O   UNL     1      34.951 -10.622 -24.445  0.00  0.00    -0.270 OA
ATOM      2  N   UNL     1      32.748 -10.152 -25.115  0.00  0.00    -0.278 N 
ATOM      3  C   UNL     1      33.835 -10.978 -24.807  0.00  0.00    +0.250 C 
ATOM      4  H   UNL     1      31.921 -10.610 -25.390  0.00  0.00    +0.155 HD
ENDROOT
BRANCH   2   8
ATOM      5  O   UNL     1      32.285  -8.832 -22.756  0.00  0.00    -0.442 OA
ATOM      6  O   UNL     1      32.107  -4.770 -22.524  0.00  0.00    -0.286 OA
ATOM      7  C   UNL     1      32.459  -8.073 -23.886  0.00  0.00    +0.163 C 
ATOM      8  C   UNL     1      32.694  -8.756 -25.081  0.00  0.00    +0.086 C 
ATOM      9  C   UNL     1      32.410  -6.681 -23.879  0.00  0.00    +0.075 C 
ATOM     10  C   UNL     1      32.878  -8.040 -26.264  0.00  0.00    +0.018 C 
ATOM     11  C   UNL     1      32.595  -5.961 -25.061  0.00  0.00    +0.006 C 
ATOM     12  C   UNL     1      32.162  -5.989 -22.606  0.00  0.00    +0.202 C 
ATOM     13  C   UNL     1      32.829  -6.645 -26.254  0.00  0.00    +0.002 C 
ATOM     14  C   UNL     1      32.048  -8.186 -21.547  0.00  0.00    +0.213 C 
ATOM     15  C   UNL     1      31.980  -6.851 -21.421  0.00  0.00    +0.090 C 
BRANCH  14  20
ATOM     16  N   UNL     1      31.987  -8.813 -19.145  0.00  0.00    -0.107 NA
ATOM     17  N   UNL     1      31.589 -10.412 -20.700  0.00  0.00    -0.084 NA
ATOM     18  N   UNL     1      31.738 -10.026 -18.631  0.00  0.00    -0.140 N 
ATOM     19  N   UNL     1      31.498 -11.003 -19.515  0.00  0.00    -0.022 NA
ATOM     20  C   UNL     1      31.882  -9.104 -20.445  0.00  0.00    +0.109 C 
ATOM     21  H   UNL     1      31.733 -10.189 -17.660  0.00  0.00    +0.197 HD
ENDBRANCH  14  20
ENDBRANCH   2   8
BRANCH   3  23
ATOM     22  C   UNL     1      33.131 -15.170 -25.267  0.00  0.00    +0.139 C 
ATOM     23  C   UNL     1      33.591 -12.436 -24.967  0.00  0.00    +0.054 C 
ATOM     24  C   UNL     1      32.943 -14.309 -26.348  0.00  0.00    +0.037 C 
ATOM     25  C   UNL     1      33.549 -14.665 -24.037  0.00  0.00    +0.037 C 
ATOM     26  C   UNL     1      33.172 -12.941 -26.198  0.00  0.00    +0.008 C 
ATOM     27  C   UNL     1      33.779 -13.298 -23.886  0.00  0.00    +0.008 C 
BRANCH  22  28
ATOM     28  O   UNL     1      32.909 -16.505 -25.415  0.00  0.00    -0.475 OA
BRANCH  28  29
ATOM     29  C   UNL     1      34.044 -17.366 -25.324  0.00  0.00    +0.205 C 
BRANCH  29  30
ATOM     30  C   UNL     1      33.647 -18.623 -24.562  0.00  0.00    +0.048 C 
BRANCH  30  31
ATOM     31  C   UNL     1      34.699 -19.007 -23.523  0.00  0.00    +0.009 C 
BRANCH  31  32
ATOM     32  C   UNL     1      34.306 -18.515 -22.128  0.00  0.00    +0.026 C 
BRANCH  32  33
ATOM     33  C   UNL     1      34.217 -19.652 -21.142  0.00  0.00    -0.022 C 
ATOM     34  C   UNL     1      32.971 -20.117 -20.724  0.00  0.00    -0.004 C 
ATOM     35  C   UNL     1      35.381 -20.238 -20.646  0.00  0.00    -0.004 C 
ATOM     36  C   UNL     1      32.888 -21.168 -19.811  0.00  0.00    -0.000 C 
ATOM     37  C   UNL     1      35.300 -21.289 -19.733  0.00  0.00    -0.000 C 
ATOM     38  C   UNL     1      34.053 -21.754 -19.316  0.00  0.00    -0.000 C 
ENDBRANCH  32  33
ENDBRANCH  31  32
ENDBRANCH  30  31
ENDBRANCH  29  30
ENDBRANCH  28  29
ENDBRANCH  22  28
ENDBRANCH   3  23
TORSDOF 9
ENDMDL
MODEL 9
REMARK VINA RESULT:     -12.0      2.225      3.286
REMARK  Name = 4887
REMARK  9 active torsions:
REMARK  status: ('A' for Active; 'I' for Inactive)
REMARK    1  A    between atoms: N_2  and  C_8
REMARK    2  A    between atoms: C_3  and  C_23
REMARK    3  A    between atoms: C_14  and  C_20
REMARK    4  A    between atoms: C_22  and  O_28
REMARK    5  A    between atoms: O_28  and  C_29
REMARK    6  A    between atoms: C_29  and  C_30
REMARK    7  A    between atoms: C_30  and  C_31
REMARK    8  A    between atoms: C_31  and  C_32
REMARK    9  A    between atoms: C_32  and  C_33
REMARK                            x       y       z     vdW  Elec       q    Type
REMARK                         _______ _______ _______ _____ _____    ______ ____
ROOT
ATOM      1  O   UNL     1      34.156 -23.440 -18.957  0.00  0.00    -0.270 OA
ATOM      2  N   UNL     1      35.081 -21.807 -17.540  0.00  0.00    -0.278 N 
ATOM      3  C   UNL     1      34.485 -22.283 -18.714  0.00  0.00    +0.250 C 
ATOM      4  H   UNL     1      35.278 -20.843 -17.515  0.00  0.00    +0.155 HD
ENDROOT
BRANCH   2   8
ATOM      5  O   UNL     1      33.145 -22.870 -15.913  0.00  0.00    -0.442 OA
ATOM      6  O   UNL     1      34.037 -25.009 -12.565  0.00  0.00    -0.286 OA
ATOM      7  C   UNL     1      34.455 -23.080 -15.564  0.00  0.00    +0.163 C 
ATOM      8  C   UNL     1      35.432 -22.535 -16.399  0.00  0.00    +0.086 C 
ATOM      9  C   UNL     1      34.831 -23.801 -14.434  0.00  0.00    +0.075 C 
ATOM     10  C   UNL     1      36.782 -22.714 -16.097  0.00  0.00    +0.018 C 
ATOM     11  C   UNL     1      36.182 -23.984 -14.128  0.00  0.00    +0.006 C 
ATOM     12  C   UNL     1      33.782 -24.364 -13.573  0.00  0.00    +0.202 C 
ATOM     13  C   UNL     1      37.156 -23.438 -14.964  0.00  0.00    +0.002 C 
ATOM     14  C   UNL     1      32.144 -23.397 -15.104  0.00  0.00    +0.213 C 
ATOM     15  C   UNL     1      32.389 -24.108 -13.991  0.00  0.00    +0.090 C 
BRANCH  14  20
ATOM     16  N   UNL     1      30.481 -22.764 -16.836  0.00  0.00    -0.107 NA
ATOM     17  N   UNL     1      29.763 -23.145 -14.722  0.00  0.00    -0.084 NA
ATOM     18  N   UNL     1      29.159 -22.613 -16.672  0.00  0.00    -0.140 N 
ATOM     19  N   UNL     1      28.690 -22.829 -15.436  0.00  0.00    -0.022 NA
ATOM     20  C   UNL     1      30.817 -23.098 -15.587  0.00  0.00    +0.109 C 
ATOM     21  H   UNL     1      28.568 -22.358 -17.417  0.00  0.00    +0.197 HD
ENDBRANCH  14  20
ENDBRANCH   2   8
BRANCH   3  23
ATOM     22  C   UNL     1      33.835 -19.346 -21.753  0.00  0.00    +0.139 C 
ATOM     23  C   UNL     1      34.258 -21.263 -19.770  0.00  0.00    +0.054 C 
ATOM     24  C   UNL     1      35.133 -19.748 -21.437  0.00  0.00    +0.037 C 
ATOM     25  C   UNL     1      32.749 -19.902 -21.077  0.00  0.00    +0.037 C 
ATOM     26  C   UNL     1      35.345 -20.706 -20.445  0.00  0.00    +0.008 C 
ATOM     27  C   UNL     1      32.960 -20.861 -20.086  0.00  0.00    +0.008 C 
BRANCH  22  28
ATOM     28  O   UNL     1      33.628 -18.413 -22.721  0.00  0.00    -0.475 OA
BRANCH  28  29
ATOM     29  C   UNL     1      34.660 -17.449 -22.924  0.00  0.00    +0.205 C 
BRANCH  29  30
ATOM     30  C   UNL     1      35.143 -16.953 -21.568  0.00  0.00    +0.048 C 
BRANCH  30  31
ATOM     31  C   UNL     1      34.526 -15.602 -21.210  0.00  0.00    +0.009 C 
BRANCH  31  32
ATOM     32  C   UNL     1      34.237 -14.775 -22.465  0.00  0.00    +0.026 C 
BRANCH  32  33
ATOM     33  C   UNL     1      33.284 -13.642 -22.177  0.00  0.00    -0.022 C 
ATOM     34  C   UNL     1      33.019 -12.688 -23.159  0.00  0.00    -0.004 C 
ATOM     35  C   UNL     1      32.668 -13.548 -20.930  0.00  0.00    -0.004 C 
ATOM     36  C   UNL     1      32.139 -11.639 -22.894  0.00  0.00    -0.000 C 
ATOM     37  C   UNL     1      31.787 -12.501 -20.664  0.00  0.00    -0.000 C 
ATOM     38  C   UNL     1      31.522 -11.546 -21.646  0.00  0.00    -0.000 C 
ENDBRANCH  32  33
ENDBRANCH  31  32
ENDBRANCH  30  31
ENDBRANCH  29  30
ENDBRANCH  28  29
ENDBRANCH  22  28
ENDBRANCH   3  23
TORSDOF 9
ENDMDL
