MODEL 1
REMARK VINA RESULT:     -12.4      0.000      0.000
REMARK  Name = 6852141
REMARK  6 active torsions:
REMARK  status: ('A' for Active; 'I' for Inactive)
REMARK    1  A    between atoms: C_3  and  N_18
REMARK    2  A    between atoms: C_7  and  C_31
REMARK    3  A    between atoms: C_9  and  C_13
REMARK    4  A    between atoms: C_19  and  C_21
REMARK    5  A    between atoms: C_24  and  O_28
REMARK    6  A    between atoms: C_31  and  O_32
REMARK                            x       y       z     vdW  Elec       q    Type
REMARK                         _______ _______ _______ _____ _____    ______ ____
ROOT
ATOM      1  C   UNL     1      31.907 -23.584 -15.638  0.00  0.00    +0.014 C 
ATOM      2  C   UNL     1      31.838 -24.436 -14.510  0.00  0.00    +0.001 C 
ATOM      3  C   UNL     1      33.164 -23.184 -16.121  0.00  0.00    +0.051 C 
ATOM      4  C   UNL     1      30.717 -23.157 -16.249  0.00  0.00    +0.004 C 
ATOM      5  C   UNL     1      33.028 -24.863 -13.898  0.00  0.00    +0.007 C 
ATOM      6  C   UNL     1      34.336 -23.619 -15.501  0.00  0.00    +0.021 C 
ATOM      7  C   UNL     1      34.268 -24.456 -14.391  0.00  0.00    +0.077 C 
ATOM      8  C   UNL     1      30.581 -24.835 -14.026  0.00  0.00    +0.000 C 
ATOM      9  C   UNL     1      29.478 -23.564 -15.756  0.00  0.00    +0.031 C 
ATOM     10  C   UNL     1      29.410 -24.402 -14.647  0.00  0.00    +0.003 C 
ENDROOT
BRANCH   9  13
ATOM     11  N   UNL     1      27.316 -22.342 -15.719  0.00  0.00    -0.343 N 
ATOM     12  N   UNL     1      28.016 -23.438 -17.660  0.00  0.00    -0.285 NA
ATOM     13  C   UNL     1      28.255 -23.113 -16.402  0.00  0.00    +0.117 C 
ATOM     14  H   UNL     1      26.496 -22.048 -16.175  0.00  0.00    +0.144 HD
ATOM     15  H   UNL     1      27.475 -22.092 -14.779  0.00  0.00    +0.144 HD
ATOM     16  H   UNL     1      27.189 -23.135 -18.099  0.00  0.00    +0.188 HD
ENDBRANCH   9  13
BRANCH   3  18
ATOM     17  O   UNL     1      33.528 -23.844 -19.022  0.00  0.00    -0.270 OA
ATOM     18  N   UNL     1      33.294 -22.341 -17.232  0.00  0.00    -0.280 N 
ATOM     19  C   UNL     1      33.463 -22.707 -18.570  0.00  0.00    +0.249 C 
ATOM     20  H   UNL     1      33.264 -21.375 -17.047  0.00  0.00    +0.155 HD
BRANCH  19  21
ATOM     21  C   UNL     1      33.602 -21.575 -19.522  0.00  0.00    +0.053 C 
ATOM     22  C   UNL     1      34.848 -21.053 -19.805  0.00  0.00    +0.016 C 
ATOM     23  C   UNL     1      32.451 -21.078 -20.101  0.00  0.00    +0.004 C 
ATOM     24  C   UNL     1      34.948 -19.990 -20.703  0.00  0.00    +0.130 C 
ATOM     25  C   UNL     1      36.085 -21.604 -19.169  0.00  0.00    +0.034 C 
ATOM     26  C   UNL     1      32.551 -20.015 -20.999  0.00  0.00    +0.003 C 
ATOM     27  C   UNL     1      33.799 -19.472 -21.300  0.00  0.00    +0.036 C 
BRANCH  24  28
ATOM     28  O   UNL     1      36.159 -19.447 -21.011  0.00  0.00    -0.506 OA
ATOM     29  H   UNL     1      36.906 -20.002 -21.122  0.00  0.00    +0.292 HD
ENDBRANCH  24  28
ENDBRANCH  19  21
ENDBRANCH   3  18
BRANCH   7  31
ATOM     30  O   UNL     1      35.637 -25.020 -12.521  0.00  0.00    -0.245 OA
ATOM     31  C   UNL     1      35.491 -24.908 -13.746  0.00  0.00    +0.341 C 
BRANCH  31  32
ATOM     32  O   UNL     1      36.466 -25.196 -14.662  0.00  0.00    -0.441 OA
ATOM     33  C   UNL     1      36.582 -26.561 -15.076  0.00  0.00    +0.256 C 
ENDBRANCH  31  32
ENDBRANCH   7  31
TORSDOF 6
ENDMDL
MODEL 2
REMARK VINA RESULT:     -12.2      2.387      4.973
REMARK  Name = 6852141
REMARK  6 active torsions:
REMARK  status: ('A' for Active; 'I' for Inactive)
REMARK    1  A    between atoms: C_3  and  N_18
REMARK    2  A    between atoms: C_7  and  C_31
REMARK    3  A    between atoms: C_9  and  C_13
REMARK    4  A    between atoms: C_19  and  C_21
REMARK    5  A    between atoms: C_24  and  O_28
REMARK    6  A    between atoms: C_31  and  O_32
REMARK                            x       y       z     vdW  Elec       q    Type
REMARK                         _______ _______ _______ _____ _____    ______ ____
ROOT
ATOM      1  C   UNL     1      32.983 -23.415 -15.630  0.00  0.00    +0.014 C 
ATOM      2  C   UNL     1      32.433 -24.232 -14.614  0.00  0.00    +0.001 C 
ATOM      3  C   UNL     1      32.139 -22.897 -16.626  0.00  0.00    +0.051 C 
ATOM      4  C   UNL     1      34.360 -23.141 -15.621  0.00  0.00    +0.004 C 
ATOM      5  C   UNL     1      31.056 -24.507 -14.622  0.00  0.00    +0.007 C 
ATOM      6  C   UNL     1      30.772 -23.179 -16.618  0.00  0.00    +0.021 C 
ATOM      7  C   UNL     1      30.232 -23.983 -15.618  0.00  0.00    +0.077 C 
ATOM      8  C   UNL     1      33.278 -24.752 -13.618  0.00  0.00    +0.000 C 
ATOM      9  C   UNL     1      35.184 -23.665 -14.624  0.00  0.00    +0.031 C 
ATOM     10  C   UNL     1      34.643 -24.468 -13.624  0.00  0.00    +0.003 C 
ENDROOT
BRANCH   9  13
ATOM     11  N   UNL     1      37.322 -23.266 -15.821  0.00  0.00    -0.343 N 
ATOM     12  N   UNL     1      37.249 -23.199 -13.487  0.00  0.00    -0.285 NA
ATOM     13  C   UNL     1      36.608 -23.370 -14.629  0.00  0.00    +0.117 C 
ATOM     14  H   UNL     1      38.286 -23.066 -15.802  0.00  0.00    +0.144 HD
ATOM     15  H   UNL     1      36.862 -23.394 -16.683  0.00  0.00    +0.144 HD
ATOM     16  H   UNL     1      38.213 -23.000 -13.488  0.00  0.00    +0.188 HD
ENDBRANCH   9  13
BRANCH   3  18
ATOM     17  O   UNL     1      33.510 -23.630 -19.188  0.00  0.00    -0.270 OA
ATOM     18  N   UNL     1      32.626 -22.084 -17.657  0.00  0.00    -0.280 N 
ATOM     19  C   UNL     1      33.260 -22.483 -18.836  0.00  0.00    +0.249 C 
ATOM     20  H   UNL     1      32.507 -21.114 -17.535  0.00  0.00    +0.155 HD
BRANCH  19  21
ATOM     21  C   UNL     1      33.692 -21.376 -19.728  0.00  0.00    +0.053 C 
ATOM     22  C   UNL     1      35.015 -20.982 -19.757  0.00  0.00    +0.016 C 
ATOM     23  C   UNL     1      32.730 -20.770 -20.512  0.00  0.00    +0.004 C 
ATOM     24  C   UNL     1      35.391 -19.940 -20.604  0.00  0.00    +0.130 C 
ATOM     25  C   UNL     1      36.045 -21.649 -18.901  0.00  0.00    +0.034 C 
ATOM     26  C   UNL     1      33.107 -19.728 -21.359  0.00  0.00    +0.003 C 
ATOM     27  C   UNL     1      34.437 -19.314 -21.405  0.00  0.00    +0.036 C 
BRANCH  24  28
ATOM     28  O   UNL     1      36.687 -19.521 -20.664  0.00  0.00    -0.506 OA
ATOM     29  H   UNL     1      36.889 -18.609 -20.583  0.00  0.00    +0.292 HD
ENDBRANCH  24  28
ENDBRANCH  19  21
ENDBRANCH   3  18
BRANCH   7  31
ATOM     30  O   UNL     1      28.266 -25.111 -14.874  0.00  0.00    -0.245 OA
ATOM     31  C   UNL     1      28.807 -24.277 -15.613  0.00  0.00    +0.341 C 
BRANCH  31  32
ATOM     32  O   UNL     1      28.133 -23.516 -16.529  0.00  0.00    -0.441 OA
ATOM     33  C   UNL     1      27.145 -22.614 -16.020  0.00  0.00    +0.256 C 
ENDBRANCH  31  32
ENDBRANCH   7  31
TORSDOF 6
ENDMDL
MODEL 3
REMARK VINA RESULT:     -11.1      1.495      2.257
REMARK  Name = 6852141
REMARK  6 active torsions:
REMARK  status: ('A' for Active; 'I' for Inactive)
REMARK    1  A    between atoms: C_3  and  N_18
REMARK    2  A    between atoms: C_7  and  C_31
REMARK    3  A    between atoms: C_9  and  C_13
REMARK    4  A    between atoms: C_19  and  C_21
REMARK    5  A    between atoms: C_24  and  O_28
REMARK    6  A    between atoms: C_31  and  O_32
REMARK                            x       y       z     vdW  Elec       q    Type
REMARK                         _______ _______ _______ _____ _____    ______ ____
ROOT
ATOM      1  C   UNL     1      33.857 -23.429 -15.450  0.00  0.00    +0.014 C 
ATOM      2  C   UNL     1      33.867 -24.261 -14.305  0.00  0.00    +0.001 C 
ATOM      3  C   UNL     1      35.077 -23.016 -16.009  0.00  0.00    +0.051 C 
ATOM      4  C   UNL     1      32.627 -23.035 -16.002  0.00  0.00    +0.004 C 
ATOM      5  C   UNL     1      35.096 -24.656 -13.753  0.00  0.00    +0.007 C 
ATOM      6  C   UNL     1      36.289 -23.419 -15.448  0.00  0.00    +0.021 C 
ATOM      7  C   UNL     1      36.299 -24.236 -14.322  0.00  0.00    +0.077 C 
ATOM      8  C   UNL     1      32.646 -24.673 -13.746  0.00  0.00    +0.000 C 
ATOM      9  C   UNL     1      31.424 -23.454 -15.433  0.00  0.00    +0.031 C 
ATOM     10  C   UNL     1      31.434 -24.272 -14.308  0.00  0.00    +0.003 C 
ENDROOT
BRANCH   9  13
ATOM     11  N   UNL     1      28.945 -23.326 -15.399  0.00  0.00    -0.343 N 
ATOM     12  N   UNL     1      30.149 -22.374 -17.161  0.00  0.00    -0.285 NA
ATOM     13  C   UNL     1      30.160 -23.037 -16.018  0.00  0.00    +0.117 C 
ATOM     14  H   UNL     1      28.101 -23.035 -15.812  0.00  0.00    +0.144 HD
ATOM     15  H   UNL     1      28.932 -23.823 -14.548  0.00  0.00    +0.144 HD
ATOM     16  H   UNL     1      29.295 -22.091 -17.558  0.00  0.00    +0.188 HD
ENDBRANCH   9  13
BRANCH   3  18
ATOM     17  O   UNL     1      33.992 -23.444 -18.770  0.00  0.00    -0.270 OA
ATOM     18  N   UNL     1      35.130 -22.192 -17.140  0.00  0.00    -0.280 N 
ATOM     19  C   UNL     1      34.603 -22.445 -18.410  0.00  0.00    +0.249 C 
ATOM     20  H   UNL     1      35.595 -21.332 -17.027  0.00  0.00    +0.155 HD
BRANCH  19  21
ATOM     21  C   UNL     1      34.849 -21.382 -19.420  0.00  0.00    +0.053 C 
ATOM     22  C   UNL     1      33.792 -20.809 -20.097  0.00  0.00    +0.016 C 
ATOM     23  C   UNL     1      36.157 -21.000 -19.645  0.00  0.00    +0.004 C 
ATOM     24  C   UNL     1      34.052 -19.813 -21.038  0.00  0.00    +0.130 C 
ATOM     25  C   UNL     1      32.380 -21.234 -19.840  0.00  0.00    +0.034 C 
ATOM     26  C   UNL     1      36.417 -20.004 -20.587  0.00  0.00    +0.003 C 
ATOM     27  C   UNL     1      35.365 -19.412 -21.282  0.00  0.00    +0.036 C 
BRANCH  24  28
ATOM     28  O   UNL     1      33.037 -19.221 -21.728  0.00  0.00    -0.506 OA
ATOM     29  H   UNL     1      33.070 -18.303 -21.913  0.00  0.00    +0.292 HD
ENDBRANCH  24  28
ENDBRANCH  19  21
ENDBRANCH   3  18
BRANCH   7  31
ATOM     30  O   UNL     1      38.155 -24.044 -12.836  0.00  0.00    -0.245 OA
ATOM     31  C   UNL     1      37.564 -24.654 -13.737  0.00  0.00    +0.341 C 
BRANCH  31  32
ATOM     32  O   UNL     1      38.025 -25.809 -14.308  0.00  0.00    -0.441 OA
ATOM     33  C   UNL     1      39.443 -25.940 -14.450  0.00  0.00    +0.256 C 
ENDBRANCH  31  32
ENDBRANCH   7  31
TORSDOF 6
ENDMDL
MODEL 4
REMARK VINA RESULT:     -10.5      2.638      5.211
REMARK  Name = 6852141
REMARK  6 active torsions:
REMARK  status: ('A' for Active; 'I' for Inactive)
REMARK    1  A    between atoms: C_3  and  N_18
REMARK    2  A    between atoms: C_7  and  C_31
REMARK    3  A    between atoms: C_9  and  C_13
REMARK    4  A    between atoms: C_19  and  C_21
REMARK    5  A    between atoms: C_24  and  O_28
REMARK    6  A    between atoms: C_31  and  O_32
REMARK                            x       y       z     vdW  Elec       q    Type
REMARK                         _______ _______ _______ _____ _____    ______ ____
ROOT
ATOM      1  C   UNL     1      34.097 -23.630 -15.655  0.00  0.00    +0.014 C 
ATOM      2  C   UNL     1      33.464 -24.427 -14.672  0.00  0.00    +0.001 C 
ATOM      3  C   UNL     1      33.308 -22.902 -16.561  0.00  0.00    +0.051 C 
ATOM      4  C   UNL     1      35.499 -23.585 -15.704  0.00  0.00    +0.004 C 
ATOM      5  C   UNL     1      32.061 -24.473 -14.622  0.00  0.00    +0.007 C 
ATOM      6  C   UNL     1      31.915 -22.958 -16.496  0.00  0.00    +0.021 C 
ATOM      7  C   UNL     1      31.293 -23.742 -15.529  0.00  0.00    +0.077 C 
ATOM      8  C   UNL     1      34.253 -25.156 -13.766  0.00  0.00    +0.000 C 
ATOM      9  C   UNL     1      36.267 -24.315 -14.796  0.00  0.00    +0.031 C 
ATOM     10  C   UNL     1      35.645 -25.099 -13.829  0.00  0.00    +0.003 C 
ENDROOT
BRANCH   9  13
ATOM     11  N   UNL     1      38.513 -24.909 -13.919  0.00  0.00    -0.343 N 
ATOM     12  N   UNL     1      38.309 -23.571 -15.824  0.00  0.00    -0.285 NA
ATOM     13  C   UNL     1      37.719 -24.257 -14.861  0.00  0.00    +0.117 C 
ATOM     14  H   UNL     1      39.494 -24.856 -13.981  0.00  0.00    +0.144 HD
ATOM     15  H   UNL     1      38.092 -25.423 -13.192  0.00  0.00    +0.144 HD
ATOM     16  H   UNL     1      39.291 -23.530 -15.869  0.00  0.00    +0.188 HD
ENDBRANCH   9  13
BRANCH   3  18
ATOM     17  O   UNL     1      33.652 -23.403 -19.496  0.00  0.00    -0.270 OA
ATOM     18  N   UNL     1      33.878 -22.098 -17.556  0.00  0.00    -0.280 N 
ATOM     19  C   UNL     1      34.012 -22.385 -18.917  0.00  0.00    +0.249 C 
ATOM     20  H   UNL     1      34.226 -21.226 -17.260  0.00  0.00    +0.155 HD
BRANCH  19  21
ATOM     21  C   UNL     1      34.693 -21.335 -19.720  0.00  0.00    +0.053 C 
ATOM     22  C   UNL     1      33.952 -20.443 -20.467  0.00  0.00    +0.016 C 
ATOM     23  C   UNL     1      36.073 -21.294 -19.685  0.00  0.00    +0.004 C 
ATOM     24  C   UNL     1      34.617 -19.468 -21.211  0.00  0.00    +0.130 C 
ATOM     25  C   UNL     1      32.457 -20.501 -20.493  0.00  0.00    +0.034 C 
ATOM     26  C   UNL     1      36.738 -20.320 -20.429  0.00  0.00    +0.003 C 
ATOM     27  C   UNL     1      36.010 -19.407 -21.191  0.00  0.00    +0.036 C 
BRANCH  24  28
ATOM     28  O   UNL     1      33.923 -18.566 -21.961  0.00  0.00    -0.506 OA
ATOM     29  H   UNL     1      34.381 -17.902 -22.437  0.00  0.00    +0.292 HD
ENDBRANCH  24  28
ENDBRANCH  19  21
ENDBRANCH   3  18
BRANCH   7  31
ATOM     30  O   UNL     1      29.110 -22.824 -15.250  0.00  0.00    -0.245 OA
ATOM     31  C   UNL     1      29.841 -23.800 -15.465  0.00  0.00    +0.341 C 
BRANCH  31  32
ATOM     32  O   UNL     1      29.378 -25.071 -15.672  0.00  0.00    -0.441 OA
ATOM     33  C   UNL     1      28.626 -25.667 -14.609  0.00  0.00    +0.256 C 
ENDBRANCH  31  32
ENDBRANCH   7  31
TORSDOF 6
ENDMDL
MODEL 5
REMARK VINA RESULT:     -10.3      3.109      7.070
REMARK  Name = 6852141
REMARK  6 active torsions:
REMARK  status: ('A' for Active; 'I' for Inactive)
REMARK    1  A    between atoms: C_3  and  N_18
REMARK    2  A    between atoms: C_7  and  C_31
REMARK    3  A    between atoms: C_9  and  C_13
REMARK    4  A    between atoms: C_19  and  C_21
REMARK    5  A    between atoms: C_24  and  O_28
REMARK    6  A    between atoms: C_31  and  O_32
REMARK                            x       y       z     vdW  Elec       q    Type
REMARK                         _______ _______ _______ _____ _____    ______ ____
ROOT
ATOM      1  C   UNL     1      33.710 -22.720 -17.276  0.00  0.00    +0.014 C 
ATOM      2  C   UNL     1      32.432 -22.446 -17.820  0.00  0.00    +0.001 C 
ATOM      3  C   UNL     1      33.805 -23.441 -16.075  0.00  0.00    +0.051 C 
ATOM      4  C   UNL     1      34.854 -22.263 -17.949  0.00  0.00    +0.004 C 
ATOM      5  C   UNL     1      31.287 -22.902 -17.147  0.00  0.00    +0.007 C 
ATOM      6  C   UNL     1      32.656 -23.888 -15.421  0.00  0.00    +0.021 C 
ATOM      7  C   UNL     1      31.400 -23.618 -15.955  0.00  0.00    +0.077 C 
ATOM      8  C   UNL     1      32.337 -21.723 -19.021  0.00  0.00    +0.000 C 
ATOM      9  C   UNL     1      34.742 -21.547 -19.141  0.00  0.00    +0.031 C 
ATOM     10  C   UNL     1      33.485 -21.279 -19.676  0.00  0.00    +0.003 C 
ENDROOT
BRANCH   9  13
ATOM     11  N   UNL     1      36.104 -19.741 -20.165  0.00  0.00    -0.343 N 
ATOM     12  N   UNL     1      36.892 -21.941 -20.141  0.00  0.00    -0.285 NA
ATOM     13  C   UNL     1      35.937 -21.083 -19.826  0.00  0.00    +0.117 C 
ATOM     14  H   UNL     1      36.921 -19.448 -20.628  0.00  0.00    +0.144 HD
ATOM     15  H   UNL     1      35.402 -19.087 -19.941  0.00  0.00    +0.144 HD
ATOM     16  H   UNL     1      37.701 -21.629 -20.605  0.00  0.00    +0.188 HD
ENDBRANCH   9  13
BRANCH   3  18
ATOM     17  O   UNL     1      35.093 -26.089 -15.514  0.00  0.00    -0.270 OA
ATOM     18  N   UNL     1      35.041 -23.741 -15.489  0.00  0.00    -0.280 N 
ATOM     19  C   UNL     1      35.593 -25.002 -15.250  0.00  0.00    +0.249 C 
ATOM     20  H   UNL     1      35.585 -22.969 -15.211  0.00  0.00    +0.155 HD
BRANCH  19  21
ATOM     21  C   UNL     1      36.920 -24.995 -14.581  0.00  0.00    +0.053 C 
ATOM     22  C   UNL     1      37.110 -24.269 -13.423  0.00  0.00    +0.016 C 
ATOM     23  C   UNL     1      37.935 -25.733 -15.158  0.00  0.00    +0.004 C 
ATOM     24  C   UNL     1      38.366 -24.281 -12.816  0.00  0.00    +0.130 C 
ATOM     25  C   UNL     1      36.000 -23.475 -12.810  0.00  0.00    +0.034 C 
ATOM     26  C   UNL     1      39.191 -25.745 -14.551  0.00  0.00    +0.003 C 
ATOM     27  C   UNL     1      39.405 -25.019 -13.380  0.00  0.00    +0.036 C 
BRANCH  24  28
ATOM     28  O   UNL     1      38.596 -23.579 -11.670  0.00  0.00    -0.506 OA
ATOM     29  H   UNL     1      39.470 -23.480 -11.348  0.00  0.00    +0.292 HD
ENDBRANCH  24  28
ENDBRANCH  19  21
ENDBRANCH   3  18
BRANCH   7  31
ATOM     30  O   UNL     1      30.078 -25.209 -14.767  0.00  0.00    -0.245 OA
ATOM     31  C   UNL     1      30.204 -24.084 -15.270  0.00  0.00    +0.341 C 
BRANCH  31  32
ATOM     32  O   UNL     1      29.230 -23.123 -15.249  0.00  0.00    -0.441 OA
ATOM     33  C   UNL     1      27.974 -23.462 -15.848  0.00  0.00    +0.256 C 
ENDBRANCH  31  32
ENDBRANCH   7  31
TORSDOF 6
ENDMDL
MODEL 6
REMARK VINA RESULT:      -9.5      8.351     12.451
REMARK  Name = 6852141
REMARK  6 active torsions:
REMARK  status: ('A' for Active; 'I' for Inactive)
REMARK    1  A    between atoms: C_3  and  N_18
REMARK    2  A    between atoms: C_7  and  C_31
REMARK    3  A    between atoms: C_9  and  C_13
REMARK    4  A    between atoms: C_19  and  C_21
REMARK    5  A    between atoms: C_24  and  O_28
REMARK    6  A    between atoms: C_31  and  O_32
REMARK                            x       y       z     vdW  Elec       q    Type
REMARK                         _______ _______ _______ _____ _____    ______ ____
ROOT
ATOM      1  C   UNL     1      33.395 -14.588 -24.328  0.00  0.00    +0.014 C 
ATOM      2  C   UNL     1      33.725 -15.940 -24.581  0.00  0.00    +0.001 C 
ATOM      3  C   UNL     1      33.660 -14.042 -23.061  0.00  0.00    +0.051 C 
ATOM      4  C   UNL     1      32.811 -13.821 -25.349  0.00  0.00    +0.004 C 
ATOM      5  C   UNL     1      34.310 -16.708 -23.560  0.00  0.00    +0.007 C 
ATOM      6  C   UNL     1      34.242 -14.819 -22.059  0.00  0.00    +0.021 C 
ATOM      7  C   UNL     1      34.566 -16.149 -22.308  0.00  0.00    +0.077 C 
ATOM      8  C   UNL     1      33.459 -16.487 -25.847  0.00  0.00    +0.000 C 
ATOM      9  C   UNL     1      32.555 -14.380 -26.601  0.00  0.00    +0.031 C 
ATOM     10  C   UNL     1      32.879 -15.710 -26.850  0.00  0.00    +0.003 C 
ENDROOT
BRANCH   9  13
ATOM     11  N   UNL     1      30.715 -13.906 -28.200  0.00  0.00    -0.343 N 
ATOM     12  N   UNL     1      32.576 -12.497 -28.095  0.00  0.00    -0.285 NA
ATOM     13  C   UNL     1      31.950 -13.571 -27.648  0.00  0.00    +0.117 C 
ATOM     14  H   UNL     1      30.323 -13.345 -28.907  0.00  0.00    +0.144 HD
ATOM     15  H   UNL     1      30.234 -14.705 -27.882  0.00  0.00    +0.144 HD
ATOM     16  H   UNL     1      32.168 -11.949 -28.803  0.00  0.00    +0.188 HD
ENDBRANCH   9  13
BRANCH   3  18
ATOM     17  O   UNL     1      31.086 -12.806 -22.148  0.00  0.00    -0.270 OA
ATOM     18  N   UNL     1      33.354 -12.710 -22.752  0.00  0.00    -0.280 N 
ATOM     19  C   UNL     1      32.129 -12.188 -22.329  0.00  0.00    +0.249 C 
ATOM     20  H   UNL     1      34.092 -12.065 -22.846  0.00  0.00    +0.155 HD
BRANCH  19  21
ATOM     21  C   UNL     1      32.111 -10.718 -22.108  0.00  0.00    +0.053 C 
ATOM     22  C   UNL     1      31.862 -10.208 -20.850  0.00  0.00    +0.016 C 
ATOM     23  C   UNL     1      32.351  -9.902 -23.195  0.00  0.00    +0.004 C 
ATOM     24  C   UNL     1      31.851  -8.825 -20.671  0.00  0.00    +0.130 C 
ATOM     25  C   UNL     1      31.605 -11.107 -19.681  0.00  0.00    +0.034 C 
ATOM     26  C   UNL     1      32.340  -8.519 -23.017  0.00  0.00    +0.003 C 
ATOM     27  C   UNL     1      32.090  -7.981 -21.755  0.00  0.00    +0.036 C 
BRANCH  24  28
ATOM     28  O   UNL     1      31.610  -8.280 -19.445  0.00  0.00    -0.506 OA
ATOM     29  H   UNL     1      32.134  -8.531 -18.710  0.00  0.00    +0.292 HD
ENDBRANCH  24  28
ENDBRANCH  19  21
ENDBRANCH   3  18
BRANCH   7  31
ATOM     30  O   UNL     1      35.064 -16.729 -20.049  0.00  0.00    -0.245 OA
ATOM     31  C   UNL     1      35.172 -16.958 -21.261  0.00  0.00    +0.341 C 
BRANCH  31  32
ATOM     32  O   UNL     1      35.879 -18.007 -21.781  0.00  0.00    -0.441 OA
ATOM     33  C   UNL     1      35.631 -19.298 -21.215  0.00  0.00    +0.256 C 
ENDBRANCH  31  32
ENDBRANCH   7  31
TORSDOF 6
ENDMDL
