MODEL 1
REMARK VINA RESULT:     -12.6      0.000      0.000
REMARK  Name = 25151352
REMARK  5 active torsions:
REMARK  status: ('A' for Active; 'I' for Inactive)
REMARK    1  A    between atoms: N_1  and  C_21
REMARK    2  A    between atoms: C_3  and  C_9
REMARK    3  A    between atoms: C_9  and  C_13
REMARK    4  A    between atoms: C_21  and  C_23
REMARK    5  A    between atoms: C_27  and  C_31
REMARK                            x       y       z     vdW  Elec       q    Type
REMARK                         _______ _______ _______ _____ _____    ______ ____
ROOT
ATOM      1  N   UNL     1      32.713 -22.014 -19.021  0.00  0.00    -0.314 N 
ATOM      2  N   UNL     1      32.491 -20.326 -20.689  0.00  0.00    -0.230 NA
ATOM      3  C   UNL     1      34.474 -19.275 -21.588  0.00  0.00    +0.002 C 
ATOM      4  C   UNL     1      35.272 -20.061 -20.764  0.00  0.00    +0.000 C 
ATOM      5  C   UNL     1      33.101 -19.444 -21.513  0.00  0.00    +0.096 C 
ATOM      6  C   UNL     1      33.300 -21.072 -19.904  0.00  0.00    +0.129 C 
ATOM      7  C   UNL     1      34.682 -20.979 -19.903  0.00  0.00    +0.034 C 
ATOM      8  H   UNL     1      31.733 -22.097 -19.004  0.00  0.00    +0.149 HD
ENDROOT
BRANCH   3   9
ATOM      9  C   UNL     1      35.090 -18.263 -22.542  0.00  0.00    +0.056 C 
BRANCH   9  13
ATOM     10 CL   UNL     1      33.087 -13.341 -25.194  0.00  0.00    -0.081 Cl
ATOM     11  N   UNL     1      33.836 -19.020 -25.893  0.00  0.00    -0.297 N 
ATOM     12  N   UNL     1      33.050 -16.967 -26.879  0.00  0.00    -0.228 NA
ATOM     13  C   UNL     1      34.528 -18.290 -23.908  0.00  0.00    -0.000 C 
ATOM     14  C   UNL     1      34.022 -17.183 -24.637  0.00  0.00    +0.030 C 
ATOM     15  C   UNL     1      33.599 -17.671 -25.870  0.00  0.00    +0.132 C 
ATOM     16  C   UNL     1      34.401 -19.408 -24.706  0.00  0.00    +0.059 C 
ATOM     17  C   UNL     1      33.868 -15.807 -24.399  0.00  0.00    +0.015 C 
ATOM     18  C   UNL     1      33.306 -15.031 -25.411  0.00  0.00    +0.077 C 
ATOM     19  C   UNL     1      32.926 -15.649 -26.594  0.00  0.00    +0.112 C 
ATOM     20  H   UNL     1      33.633 -19.619 -26.646  0.00  0.00    +0.154 HD
ENDBRANCH   9  13
ENDBRANCH   3   9
BRANCH   1  21
ATOM     21  C   UNL     1      33.487 -22.843 -18.157  0.00  0.00    +0.117 C 
BRANCH  21  23
ATOM     22  N   UNL     1      32.600 -24.263 -14.763  0.00  0.00    -0.240 NA
ATOM     23  C   UNL     1      32.674 -23.263 -16.963  0.00  0.00    +0.017 C 
ATOM     24  C   UNL     1      31.298 -23.060 -16.925  0.00  0.00    +0.000 C 
ATOM     25  C   UNL     1      33.271 -23.862 -15.866  0.00  0.00    +0.096 C 
ATOM     26  C   UNL     1      30.573 -23.459 -15.808  0.00  0.00    +0.023 C 
ATOM     27  C   UNL     1      31.265 -24.050 -14.763  0.00  0.00    +0.153 C 
BRANCH  27  31
ATOM     28  F   UNL     1      31.128 -25.506 -12.869  0.00  0.00    -0.164 F 
ATOM     29  F   UNL     1      30.343 -23.498 -12.625  0.00  0.00    -0.164 F 
ATOM     30  F   UNL     1      29.264 -24.944 -13.839  0.00  0.00    -0.164 F 
ATOM     31  C   UNL     1      30.518 -24.490 -13.548  0.00  0.00    +0.435 C 
ENDBRANCH  27  31
ENDBRANCH  21  23
ENDBRANCH   1  21
TORSDOF 5
ENDMDL
MODEL 2
REMARK VINA RESULT:     -12.5      1.614      2.100
REMARK  Name = 25151352
REMARK  5 active torsions:
REMARK  status: ('A' for Active; 'I' for Inactive)
REMARK    1  A    between atoms: N_1  and  C_21
REMARK    2  A    between atoms: C_3  and  C_9
REMARK    3  A    between atoms: C_9  and  C_13
REMARK    4  A    between atoms: C_21  and  C_23
REMARK    5  A    between atoms: C_27  and  C_31
REMARK                            x       y       z     vdW  Elec       q    Type
REMARK                         _______ _______ _______ _____ _____    ______ ____
ROOT
ATOM      1  N   UNL     1      32.828 -21.913 -19.086  0.00  0.00    -0.314 N 
ATOM      2  N   UNL     1      32.600 -20.307 -20.832  0.00  0.00    -0.230 NA
ATOM      3  C   UNL     1      34.580 -19.304 -21.790  0.00  0.00    +0.002 C 
ATOM      4  C   UNL     1      35.381 -20.052 -20.935  0.00  0.00    +0.000 C 
ATOM      5  C   UNL     1      33.207 -19.467 -21.700  0.00  0.00    +0.096 C 
ATOM      6  C   UNL     1      33.412 -21.016 -20.016  0.00  0.00    +0.129 C 
ATOM      7  C   UNL     1      34.794 -20.926 -20.027  0.00  0.00    +0.034 C 
ATOM      8  H   UNL     1      31.848 -21.994 -19.060  0.00  0.00    +0.149 HD
ENDROOT
BRANCH   3   9
ATOM      9  C   UNL     1      35.192 -18.339 -22.795  0.00  0.00    +0.056 C 
BRANCH   9  13
ATOM     10 CL   UNL     1      32.915 -15.170 -27.272  0.00  0.00    -0.081 Cl
ATOM     11  N   UNL     1      34.390 -14.944 -21.698  0.00  0.00    -0.297 N 
ATOM     12  N   UNL     1      33.477 -13.747 -23.578  0.00  0.00    -0.228 NA
ATOM     13  C   UNL     1      34.781 -16.931 -22.619  0.00  0.00    -0.000 C 
ATOM     14  C   UNL     1      34.229 -16.081 -23.613  0.00  0.00    +0.030 C 
ATOM     15  C   UNL     1      33.995 -14.850 -23.006  0.00  0.00    +0.132 C 
ATOM     16  C   UNL     1      34.869 -16.205 -21.451  0.00  0.00    +0.059 C 
ATOM     17  C   UNL     1      33.893 -16.207 -24.971  0.00  0.00    +0.015 C 
ATOM     18  C   UNL     1      33.351 -15.094 -25.612  0.00  0.00    +0.077 C 
ATOM     19  C   UNL     1      33.173 -13.925 -24.885  0.00  0.00    +0.112 C 
ATOM     20  H   UNL     1      34.337 -14.218 -21.036  0.00  0.00    +0.154 HD
ENDBRANCH   9  13
ENDBRANCH   3   9
BRANCH   1  21
ATOM     21  C   UNL     1      33.605 -22.702 -18.187  0.00  0.00    +0.117 C 
BRANCH  21  23
ATOM     22  N   UNL     1      32.656 -24.170 -14.832  0.00  0.00    -0.240 NA
ATOM     23  C   UNL     1      32.770 -23.144 -17.018  0.00  0.00    +0.017 C 
ATOM     24  C   UNL     1      31.391 -22.959 -17.011  0.00  0.00    +0.000 C 
ATOM     25  C   UNL     1      33.348 -23.749 -15.914  0.00  0.00    +0.096 C 
ATOM     26  C   UNL     1      30.645 -23.379 -15.915  0.00  0.00    +0.023 C 
ATOM     27  C   UNL     1      31.319 -23.973 -14.861  0.00  0.00    +0.153 C 
BRANCH  27  31
ATOM     28  F   UNL     1      29.309 -24.921 -13.973  0.00  0.00    -0.164 F 
ATOM     29  F   UNL     1      31.164 -25.438 -12.975  0.00  0.00    -0.164 F 
ATOM     30  F   UNL     1      30.338 -23.438 -12.761  0.00  0.00    -0.164 F 
ATOM     31  C   UNL     1      30.549 -24.436 -13.669  0.00  0.00    +0.435 C 
ENDBRANCH  27  31
ENDBRANCH  21  23
ENDBRANCH   1  21
TORSDOF 5
ENDMDL
MODEL 3
REMARK VINA RESULT:     -12.0      3.300      4.081
REMARK  Name = 25151352
REMARK  5 active torsions:
REMARK  status: ('A' for Active; 'I' for Inactive)
REMARK    1  A    between atoms: N_1  and  C_21
REMARK    2  A    between atoms: C_3  and  C_9
REMARK    3  A    between atoms: C_9  and  C_13
REMARK    4  A    between atoms: C_21  and  C_23
REMARK    5  A    between atoms: C_27  and  C_31
REMARK                            x       y       z     vdW  Elec       q    Type
REMARK                         _______ _______ _______ _____ _____    ______ ____
ROOT
ATOM      1  N   UNL     1      35.896 -21.021 -19.090  0.00  0.00    -0.314 N 
ATOM      2  N   UNL     1      36.595 -19.400 -20.691  0.00  0.00    -0.230 NA
ATOM      3  C   UNL     1      35.031 -18.635 -22.369  0.00  0.00    +0.002 C 
ATOM      4  C   UNL     1      34.050 -19.470 -21.845  0.00  0.00    +0.000 C 
ATOM      5  C   UNL     1      36.276 -18.636 -21.761  0.00  0.00    +0.096 C 
ATOM      6  C   UNL     1      35.616 -20.199 -20.211  0.00  0.00    +0.129 C 
ATOM      7  C   UNL     1      34.340 -20.270 -20.746  0.00  0.00    +0.034 C 
ATOM      8  H   UNL     1      36.795 -20.987 -18.693  0.00  0.00    +0.149 HD
ENDROOT
BRANCH   3   9
ATOM      9  C   UNL     1      34.744 -17.746 -23.570  0.00  0.00    +0.056 C 
BRANCH   9  13
ATOM     10 CL   UNL     1      32.435 -13.990 -27.549  0.00  0.00    -0.081 Cl
ATOM     11  N   UNL     1      34.281 -14.430 -22.099  0.00  0.00    -0.297 N 
ATOM     12  N   UNL     1      33.344 -12.988 -23.786  0.00  0.00    -0.228 NA
ATOM     13  C   UNL     1      34.456 -16.337 -23.231  0.00  0.00    -0.000 C 
ATOM     14  C   UNL     1      33.908 -15.354 -24.097  0.00  0.00    +0.030 C 
ATOM     15  C   UNL     1      33.811 -14.177 -23.361  0.00  0.00    +0.132 C 
ATOM     16  C   UNL     1      34.676 -15.739 -22.009  0.00  0.00    +0.059 C 
ATOM     17  C   UNL     1      33.476 -15.319 -25.433  0.00  0.00    +0.015 C 
ATOM     18  C   UNL     1      32.983 -14.112 -25.925  0.00  0.00    +0.077 C 
ATOM     19  C   UNL     1      32.943 -13.012 -25.079  0.00  0.00    +0.112 C 
ATOM     20  H   UNL     1      34.327 -13.772 -21.369  0.00  0.00    +0.154 HD
ENDBRANCH   9  13
ENDBRANCH   3   9
BRANCH   1  21
ATOM     21  C   UNL     1      34.926 -21.894 -18.515  0.00  0.00    +0.117 C 
BRANCH  21  23
ATOM     22  N   UNL     1      37.178 -22.587 -15.555  0.00  0.00    -0.240 NA
ATOM     23  C   UNL     1      35.399 -22.403 -17.182  0.00  0.00    +0.017 C 
ATOM     24  C   UNL     1      34.555 -23.135 -16.353  0.00  0.00    +0.000 C 
ATOM     25  C   UNL     1      36.689 -22.158 -16.740  0.00  0.00    +0.096 C 
ATOM     26  C   UNL     1      35.022 -23.593 -15.126  0.00  0.00    +0.023 C 
ATOM     27  C   UNL     1      36.329 -23.294 -14.776  0.00  0.00    +0.153 C 
BRANCH  27  31
ATOM     28  F   UNL     1      35.999 -24.581 -12.787  0.00  0.00    -0.164 F 
ATOM     29  F   UNL     1      38.018 -24.490 -13.575  0.00  0.00    -0.164 F 
ATOM     30  F   UNL     1      37.149 -22.744 -12.613  0.00  0.00    -0.164 F 
ATOM     31  C   UNL     1      36.862 -23.770 -13.466  0.00  0.00    +0.435 C 
ENDBRANCH  27  31
ENDBRANCH  21  23
ENDBRANCH   1  21
TORSDOF 5
ENDMDL
MODEL 4
REMARK VINA RESULT:     -11.7      2.740      3.286
REMARK  Name = 25151352
REMARK  5 active torsions:
REMARK  status: ('A' for Active; 'I' for Inactive)
REMARK    1  A    between atoms: N_1  and  C_21
REMARK    2  A    between atoms: C_3  and  C_9
REMARK    3  A    between atoms: C_9  and  C_13
REMARK    4  A    between atoms: C_21  and  C_23
REMARK    5  A    between atoms: C_27  and  C_31
REMARK                            x       y       z     vdW  Elec       q    Type
REMARK                         _______ _______ _______ _____ _____    ______ ____
ROOT
ATOM      1  N   UNL     1      35.760 -21.102 -19.370  0.00  0.00    -0.314 N 
ATOM      2  N   UNL     1      36.597 -19.403 -20.817  0.00  0.00    -0.230 NA
ATOM      3  C   UNL     1      35.068 -18.219 -22.267  0.00  0.00    +0.002 C 
ATOM      4  C   UNL     1      34.006 -18.968 -21.772  0.00  0.00    +0.000 C 
ATOM      5  C   UNL     1      36.333 -18.472 -21.761  0.00  0.00    +0.096 C 
ATOM      6  C   UNL     1      35.540 -20.113 -20.361  0.00  0.00    +0.129 C 
ATOM      7  C   UNL     1      34.238 -19.936 -20.802  0.00  0.00    +0.034 C 
ATOM      8  H   UNL     1      36.676 -21.246 -19.042  0.00  0.00    +0.149 HD
ENDROOT
BRANCH   3   9
ATOM      9  C   UNL     1      34.846 -17.152 -23.329  0.00  0.00    +0.056 C 
BRANCH   9  13
ATOM     10 CL   UNL     1      32.410 -13.284 -27.121  0.00  0.00    -0.081 Cl
ATOM     11  N   UNL     1      32.997 -18.904 -25.952  0.00  0.00    -0.297 N 
ATOM     12  N   UNL     1      32.052 -17.254 -27.431  0.00  0.00    -0.228 NA
ATOM     13  C   UNL     1      34.044 -17.599 -24.486  0.00  0.00    -0.000 C 
ATOM     14  C   UNL     1      33.416 -16.769 -25.452  0.00  0.00    +0.030 C 
ATOM     15  C   UNL     1      32.773 -17.613 -26.352  0.00  0.00    +0.132 C 
ATOM     16  C   UNL     1      33.768 -18.908 -24.819  0.00  0.00    +0.059 C 
ATOM     17  C   UNL     1      33.314 -15.386 -25.676  0.00  0.00    +0.015 C 
ATOM     18  C   UNL     1      32.579 -14.960 -26.781  0.00  0.00    +0.077 C 
ATOM     19  C   UNL     1      31.987 -15.913 -27.598  0.00  0.00    +0.112 C 
ATOM     20  H   UNL     1      32.657 -19.707 -26.409  0.00  0.00    +0.154 HD
ENDBRANCH   9  13
ENDBRANCH   3   9
BRANCH   1  21
ATOM     21  C   UNL     1      34.706 -21.898 -18.830  0.00  0.00    +0.117 C 
BRANCH  21  23
ATOM     22  N   UNL     1      36.741 -22.621 -15.723  0.00  0.00    -0.240 NA
ATOM     23  C   UNL     1      35.081 -22.414 -17.469  0.00  0.00    +0.017 C 
ATOM     24  C   UNL     1      34.173 -23.137 -16.701  0.00  0.00    +0.000 C 
ATOM     25  C   UNL     1      36.340 -22.186 -16.938  0.00  0.00    +0.096 C 
ATOM     26  C   UNL     1      34.548 -23.602 -15.446  0.00  0.00    +0.023 C 
ATOM     27  C   UNL     1      35.831 -23.320 -15.006  0.00  0.00    +0.153 C 
BRANCH  27  31
ATOM     28  F   UNL     1      37.613 -24.011 -13.568  0.00  0.00    -0.164 F 
ATOM     29  F   UNL     1      35.966 -22.942 -12.647  0.00  0.00    -0.164 F 
ATOM     30  F   UNL     1      35.688 -24.991 -13.320  0.00  0.00    -0.164 F 
ATOM     31  C   UNL     1      36.267 -23.803 -13.663  0.00  0.00    +0.435 C 
ENDBRANCH  27  31
ENDBRANCH  21  23
ENDBRANCH   1  21
TORSDOF 5
ENDMDL
MODEL 5
REMARK VINA RESULT:     -11.7      4.624      6.836
REMARK  Name = 25151352
REMARK  5 active torsions:
REMARK  status: ('A' for Active; 'I' for Inactive)
REMARK    1  A    between atoms: N_1  and  C_21
REMARK    2  A    between atoms: C_3  and  C_9
REMARK    3  A    between atoms: C_9  and  C_13
REMARK    4  A    between atoms: C_21  and  C_23
REMARK    5  A    between atoms: C_27  and  C_31
REMARK                            x       y       z     vdW  Elec       q    Type
REMARK                         _______ _______ _______ _____ _____    ______ ____
ROOT
ATOM      1  N   UNL     1      35.163 -16.978 -21.782  0.00  0.00    -0.314 N 
ATOM      2  N   UNL     1      34.390 -14.730 -21.955  0.00  0.00    -0.230 NA
ATOM      3  C   UNL     1      33.444 -13.956 -24.040  0.00  0.00    +0.002 C 
ATOM      4  C   UNL     1      33.651 -15.209 -24.608  0.00  0.00    +0.000 C 
ATOM      5  C   UNL     1      33.827 -13.769 -22.722  0.00  0.00    +0.096 C 
ATOM      6  C   UNL     1      34.577 -15.934 -22.541  0.00  0.00    +0.129 C 
ATOM      7  C   UNL     1      34.228 -16.222 -23.851  0.00  0.00    +0.034 C 
ATOM      8  H   UNL     1      35.419 -16.796 -20.850  0.00  0.00    +0.149 HD
ENDROOT
BRANCH   3   9
ATOM      9  C   UNL     1      32.813 -12.827 -24.843  0.00  0.00    +0.056 C 
BRANCH   9  13
ATOM     10 CL   UNL     1      31.121  -8.674 -20.948  0.00  0.00    -0.081 Cl
ATOM     11  N   UNL     1      34.960  -9.877 -25.084  0.00  0.00    -0.297 N 
ATOM     12  N   UNL     1      34.194  -8.260 -23.472  0.00  0.00    -0.228 NA
ATOM     13  C   UNL     1      33.516 -11.532 -24.733  0.00  0.00    -0.000 C 
ATOM     14  C   UNL     1      33.201 -10.471 -23.844  0.00  0.00    +0.030 C 
ATOM     15  C   UNL     1      34.120  -9.455 -24.088  0.00  0.00    +0.132 C 
ATOM     16  C   UNL     1      34.603 -11.138 -25.484  0.00  0.00    +0.059 C 
ATOM     17  C   UNL     1      32.237 -10.245 -22.849  0.00  0.00    +0.015 C 
ATOM     18  C   UNL     1      32.268  -9.024 -22.178  0.00  0.00    +0.077 C 
ATOM     19  C   UNL     1      33.242  -8.097 -22.524  0.00  0.00    +0.112 C 
ATOM     20  H   UNL     1      35.707  -9.355 -25.456  0.00  0.00    +0.154 HD
ENDBRANCH   9  13
ENDBRANCH   3   9
BRANCH   1  21
ATOM     21  C   UNL     1      35.397 -18.279 -22.316  0.00  0.00    +0.117 C 
BRANCH  21  23
ATOM     22  N   UNL     1      35.323 -21.021 -19.710  0.00  0.00    -0.240 NA
ATOM     23  C   UNL     1      34.873 -19.334 -21.382  0.00  0.00    +0.017 C 
ATOM     24  C   UNL     1      33.511 -19.611 -21.305  0.00  0.00    +0.000 C 
ATOM     25  C   UNL     1      35.729 -20.060 -20.570  0.00  0.00    +0.096 C 
ATOM     26  C   UNL     1      33.056 -20.593 -20.432  0.00  0.00    +0.023 C 
ATOM     27  C   UNL     1      33.994 -21.263 -19.663  0.00  0.00    +0.153 C 
BRANCH  27  31
ATOM     28  F   UNL     1      33.504 -23.571 -19.267  0.00  0.00    -0.164 F 
ATOM     29  F   UNL     1      34.333 -22.443 -17.609  0.00  0.00    -0.164 F 
ATOM     30  F   UNL     1      32.281 -22.096 -18.239  0.00  0.00    -0.164 F 
ATOM     31  C   UNL     1      33.540 -22.322 -18.715  0.00  0.00    +0.435 C 
ENDBRANCH  27  31
ENDBRANCH  21  23
ENDBRANCH   1  21
TORSDOF 5
ENDMDL
MODEL 6
REMARK VINA RESULT:     -11.6      3.629      5.633
REMARK  Name = 25151352
REMARK  5 active torsions:
REMARK  status: ('A' for Active; 'I' for Inactive)
REMARK    1  A    between atoms: N_1  and  C_21
REMARK    2  A    between atoms: C_3  and  C_9
REMARK    3  A    between atoms: C_9  and  C_13
REMARK    4  A    between atoms: C_21  and  C_23
REMARK    5  A    between atoms: C_27  and  C_31
REMARK                            x       y       z     vdW  Elec       q    Type
REMARK                         _______ _______ _______ _____ _____    ______ ____
ROOT
ATOM      1  N   UNL     1      34.412 -19.157 -22.832  0.00  0.00    -0.314 N 
ATOM      2  N   UNL     1      33.346 -17.929 -24.574  0.00  0.00    -0.230 NA
ATOM      3  C   UNL     1      33.654 -15.535 -24.702  0.00  0.00    +0.002 C 
ATOM      4  C   UNL     1      34.470 -15.573 -23.577  0.00  0.00    +0.000 C 
ATOM      5  C   UNL     1      33.121 -16.730 -25.157  0.00  0.00    +0.096 C 
ATOM      6  C   UNL     1      34.143 -17.926 -23.483  0.00  0.00    +0.129 C 
ATOM      7  C   UNL     1      34.724 -16.787 -22.950  0.00  0.00    +0.034 C 
ATOM      8  H   UNL     1      34.010 -19.979 -23.193  0.00  0.00    +0.149 HD
ENDROOT
BRANCH   3   9
ATOM      9  C   UNL     1      33.358 -14.222 -25.412  0.00  0.00    +0.056 C 
BRANCH   9  13
ATOM     10 CL   UNL     1      35.130  -8.702 -26.701  0.00  0.00    -0.081 Cl
ATOM     11  N   UNL     1      32.369 -11.896 -22.768  0.00  0.00    -0.297 N 
ATOM     12  N   UNL     1      33.131  -9.696 -23.384  0.00  0.00    -0.228 NA
ATOM     13  C   UNL     1      33.084 -13.087 -24.506  0.00  0.00    -0.000 C 
ATOM     14  C   UNL     1      33.459 -11.733 -24.710  0.00  0.00    +0.030 C 
ATOM     15  C   UNL     1      32.997 -11.017 -23.610  0.00  0.00    +0.132 C 
ATOM     16  C   UNL     1      32.416 -13.157 -23.303  0.00  0.00    +0.059 C 
ATOM     17  C   UNL     1      34.141 -11.017 -25.708  0.00  0.00    +0.015 C 
ATOM     18  C   UNL     1      34.307  -9.645 -25.525  0.00  0.00    +0.077 C 
ATOM     19  C   UNL     1      33.796  -9.057 -24.376  0.00  0.00    +0.112 C 
ATOM     20  H   UNL     1      31.948 -11.659 -21.911  0.00  0.00    +0.154 HD
ENDBRANCH   9  13
ENDBRANCH   3   9
BRANCH   1  21
ATOM     21  C   UNL     1      35.242 -19.250 -21.676  0.00  0.00    +0.117 C 
BRANCH  21  23
ATOM     22  N   UNL     1      35.006 -21.934 -19.020  0.00  0.00    -0.240 NA
ATOM     23  C   UNL     1      34.656 -20.216 -20.684  0.00  0.00    +0.017 C 
ATOM     24  C   UNL     1      33.280 -20.306 -20.497  0.00  0.00    +0.000 C 
ATOM     25  C   UNL     1      35.468 -21.045 -19.927  0.00  0.00    +0.096 C 
ATOM     26  C   UNL     1      32.768 -21.209 -19.573  0.00  0.00    +0.023 C 
ATOM     27  C   UNL     1      33.665 -21.993 -18.866  0.00  0.00    +0.153 C 
BRANCH  27  31
ATOM     28  F   UNL     1      33.875 -23.007 -16.709  0.00  0.00    -0.164 F 
ATOM     29  F   UNL     1      31.864 -22.729 -17.472  0.00  0.00    -0.164 F 
ATOM     30  F   UNL     1      33.150 -24.254 -18.337  0.00  0.00    -0.164 F 
ATOM     31  C   UNL     1      33.149 -22.973 -17.865  0.00  0.00    +0.435 C 
ENDBRANCH  27  31
ENDBRANCH  21  23
ENDBRANCH   1  21
TORSDOF 5
ENDMDL
MODEL 7
REMARK VINA RESULT:     -11.5      6.099     10.958
REMARK  Name = 25151352
REMARK  5 active torsions:
REMARK  status: ('A' for Active; 'I' for Inactive)
REMARK    1  A    between atoms: N_1  and  C_21
REMARK    2  A    between atoms: C_3  and  C_9
REMARK    3  A    between atoms: C_9  and  C_13
REMARK    4  A    between atoms: C_21  and  C_23
REMARK    5  A    between atoms: C_27  and  C_31
REMARK                            x       y       z     vdW  Elec       q    Type
REMARK                         _______ _______ _______ _____ _____    ______ ____
ROOT
ATOM      1  N   UNL     1      33.721 -18.835 -21.451  0.00  0.00    -0.314 N 
ATOM      2  N   UNL     1      32.565 -20.609 -20.358  0.00  0.00    -0.230 NA
ATOM      3  C   UNL     1      33.824 -22.278 -19.144  0.00  0.00    +0.002 C 
ATOM      4  C   UNL     1      35.011 -21.635 -19.477  0.00  0.00    +0.000 C 
ATOM      5  C   UNL     1      32.638 -21.730 -19.604  0.00  0.00    +0.096 C 
ATOM      6  C   UNL     1      33.739 -20.013 -20.663  0.00  0.00    +0.129 C 
ATOM      7  C   UNL     1      34.977 -20.481 -20.251  0.00  0.00    +0.034 C 
ATOM      8  H   UNL     1      32.854 -18.484 -21.755  0.00  0.00    +0.149 HD
ENDROOT
BRANCH   3   9
ATOM      9  C   UNL     1      33.829 -23.542 -18.297  0.00  0.00    +0.056 C 
BRANCH   9  13
ATOM     10 CL   UNL     1      28.237 -23.354 -16.305  0.00  0.00    -0.081 Cl
ATOM     11  N   UNL     1      33.761 -22.966 -14.686  0.00  0.00    -0.297 N 
ATOM     12  N   UNL     1      31.459 -22.907 -13.981  0.00  0.00    -0.228 NA
ATOM     13  C   UNL     1      33.520 -23.322 -16.869  0.00  0.00    -0.000 C 
ATOM     14  C   UNL     1      32.228 -23.257 -16.283  0.00  0.00    +0.030 C 
ATOM     15  C   UNL     1      32.414 -23.036 -14.922  0.00  0.00    +0.132 C 
ATOM     16  C   UNL     1      34.444 -23.139 -15.862  0.00  0.00    +0.059 C 
ATOM     17  C   UNL     1      30.907 -23.362 -16.747  0.00  0.00    +0.015 C 
ATOM     18  C   UNL     1      29.879 -23.237 -15.814  0.00  0.00    +0.077 C 
ATOM     19  C   UNL     1      30.207 -23.016 -14.484  0.00  0.00    +0.112 C 
ATOM     20  H   UNL     1      34.177 -22.816 -13.807  0.00  0.00    +0.154 HD
ENDBRANCH   9  13
ENDBRANCH   3   9
BRANCH   1  21
ATOM     21  C   UNL     1      34.909 -18.138 -21.820  0.00  0.00    +0.117 C 
BRANCH  21  23
ATOM     22  N   UNL     1      33.957 -15.438 -24.293  0.00  0.00    -0.240 NA
ATOM     23  C   UNL     1      34.573 -16.785 -22.383  0.00  0.00    +0.017 C 
ATOM     24  C   UNL     1      34.559 -15.655 -21.572  0.00  0.00    +0.000 C 
ATOM     25  C   UNL     1      34.267 -16.624 -23.725  0.00  0.00    +0.096 C 
ATOM     26  C   UNL     1      34.245 -14.416 -22.122  0.00  0.00    +0.023 C 
ATOM     27  C   UNL     1      33.954 -14.362 -23.475  0.00  0.00    +0.153 C 
BRANCH  27  31
ATOM     28  F   UNL     1      33.454 -13.111 -25.452  0.00  0.00    -0.164 F 
ATOM     29  F   UNL     1      32.450 -12.507 -23.626  0.00  0.00    -0.164 F 
ATOM     30  F   UNL     1      34.571 -12.102 -23.883  0.00  0.00    -0.164 F 
ATOM     31  C   UNL     1      33.612 -13.049 -24.097  0.00  0.00    +0.435 C 
ENDBRANCH  27  31
ENDBRANCH  21  23
ENDBRANCH   1  21
TORSDOF 5
ENDMDL
MODEL 8
REMARK VINA RESULT:     -11.3      6.238     11.141
REMARK  Name = 25151352
REMARK  5 active torsions:
REMARK  status: ('A' for Active; 'I' for Inactive)
REMARK    1  A    between atoms: N_1  and  C_21
REMARK    2  A    between atoms: C_3  and  C_9
REMARK    3  A    between atoms: C_9  and  C_13
REMARK    4  A    between atoms: C_21  and  C_23
REMARK    5  A    between atoms: C_27  and  C_31
REMARK                            x       y       z     vdW  Elec       q    Type
REMARK                         _______ _______ _______ _____ _____    ______ ____
ROOT
ATOM      1  N   UNL     1      33.557 -18.979 -21.403  0.00  0.00    -0.314 N 
ATOM      2  N   UNL     1      32.453 -20.522 -19.961  0.00  0.00    -0.230 NA
ATOM      3  C   UNL     1      33.692 -22.379 -19.033  0.00  0.00    +0.002 C 
ATOM      4  C   UNL     1      34.839 -21.953 -19.695  0.00  0.00    +0.000 C 
ATOM      5  C   UNL     1      32.535 -21.635 -19.197  0.00  0.00    +0.096 C 
ATOM      6  C   UNL     1      33.587 -20.140 -20.590  0.00  0.00    +0.129 C 
ATOM      7  C   UNL     1      34.793 -20.814 -20.490  0.00  0.00    +0.034 C 
ATOM      8  H   UNL     1      32.711 -18.485 -21.489  0.00  0.00    +0.149 HD
ENDROOT
BRANCH   3   9
ATOM      9  C   UNL     1      33.710 -23.621 -18.155  0.00  0.00    +0.056 C 
BRANCH   9  13
ATOM     10 CL   UNL     1      28.211 -23.834 -15.921  0.00  0.00    -0.081 Cl
ATOM     11  N   UNL     1      33.741 -22.883 -14.573  0.00  0.00    -0.297 N 
ATOM     12  N   UNL     1      31.473 -22.995 -13.767  0.00  0.00    -0.228 NA
ATOM     13  C   UNL     1      33.442 -23.361 -16.725  0.00  0.00    -0.000 C 
ATOM     14  C   UNL     1      32.175 -23.384 -16.084  0.00  0.00    +0.030 C 
ATOM     15  C   UNL     1      32.396 -23.083 -14.744  0.00  0.00    +0.132 C 
ATOM     16  C   UNL     1      34.386 -23.050 -15.770  0.00  0.00    +0.059 C 
ATOM     17  C   UNL     1      30.851 -23.627 -16.483  0.00  0.00    +0.015 C 
ATOM     18  C   UNL     1      29.855 -23.549 -15.510  0.00  0.00    +0.077 C 
ATOM     19  C   UNL     1      30.217 -23.237 -14.207  0.00  0.00    +0.112 C 
ATOM     20  H   UNL     1      34.177 -22.656 -13.720  0.00  0.00    +0.154 HD
ENDBRANCH   9  13
ENDBRANCH   3   9
BRANCH   1  21
ATOM     21  C   UNL     1      34.704 -18.502 -22.103  0.00  0.00    +0.117 C 
BRANCH  21  23
ATOM     22  N   UNL     1      33.908 -15.519 -24.291  0.00  0.00    -0.240 NA
ATOM     23  C   UNL     1      34.291 -17.691 -23.300  0.00  0.00    +0.017 C 
ATOM     24  C   UNL     1      33.918 -18.307 -24.490  0.00  0.00    +0.000 C 
ATOM     25  C   UNL     1      34.269 -16.306 -23.253  0.00  0.00    +0.096 C 
ATOM     26  C   UNL     1      33.540 -17.530 -25.580  0.00  0.00    +0.023 C 
ATOM     27  C   UNL     1      33.552 -16.153 -25.430  0.00  0.00    +0.153 C 
BRANCH  27  31
ATOM     28  F   UNL     1      32.517 -14.141 -26.205  0.00  0.00    -0.164 F 
ATOM     29  F   UNL     1      34.205 -14.880 -27.348  0.00  0.00    -0.164 F 
ATOM     30  F   UNL     1      32.297 -15.919 -27.436  0.00  0.00    -0.164 F 
ATOM     31  C   UNL     1      33.153 -15.289 -26.580  0.00  0.00    +0.435 C 
ENDBRANCH  27  31
ENDBRANCH  21  23
ENDBRANCH   1  21
TORSDOF 5
ENDMDL
MODEL 9
REMARK VINA RESULT:     -11.3      6.469     11.119
REMARK  Name = 25151352
REMARK  5 active torsions:
REMARK  status: ('A' for Active; 'I' for Inactive)
REMARK    1  A    between atoms: N_1  and  C_21
REMARK    2  A    between atoms: C_3  and  C_9
REMARK    3  A    between atoms: C_9  and  C_13
REMARK    4  A    between atoms: C_21  and  C_23
REMARK    5  A    between atoms: C_27  and  C_31
REMARK                            x       y       z     vdW  Elec       q    Type
REMARK                         _______ _______ _______ _____ _____    ______ ____
ROOT
ATOM      1  N   UNL     1      35.528 -17.729 -23.116  0.00  0.00    -0.314 N 
ATOM      2  N   UNL     1      36.714 -18.908 -21.418  0.00  0.00    -0.230 NA
ATOM      3  C   UNL     1      35.578 -20.622 -20.147  0.00  0.00    +0.002 C 
ATOM      4  C   UNL     1      34.412 -20.394 -20.869  0.00  0.00    +0.000 C 
ATOM      5  C   UNL     1      36.692 -19.859 -20.457  0.00  0.00    +0.096 C 
ATOM      6  C   UNL     1      35.561 -18.714 -22.097  0.00  0.00    +0.129 C 
ATOM      7  C   UNL     1      34.394 -19.424 -21.864  0.00  0.00    +0.034 C 
ATOM      8  H   UNL     1      36.345 -17.212 -23.300  0.00  0.00    +0.149 HD
ENDROOT
BRANCH   3   9
ATOM      9  C   UNL     1      35.629 -21.678 -19.052  0.00  0.00    +0.056 C 
BRANCH   9  13
ATOM     10 CL   UNL     1      34.980 -24.150 -13.691  0.00  0.00    -0.081 Cl
ATOM     11  N   UNL     1      32.118 -22.475 -18.414  0.00  0.00    -0.297 N 
ATOM     12  N   UNL     1      31.962 -23.468 -16.225  0.00  0.00    -0.228 NA
ATOM     13  C   UNL     1      34.306 -22.096 -18.545  0.00  0.00    -0.000 C 
ATOM     14  C   UNL     1      34.033 -22.694 -17.287  0.00  0.00    +0.030 C 
ATOM     15  C   UNL     1      32.660 -22.917 -17.236  0.00  0.00    +0.132 C 
ATOM     16  C   UNL     1      33.109 -21.973 -19.217  0.00  0.00    +0.059 C 
ATOM     17  C   UNL     1      34.792 -23.079 -16.170  0.00  0.00    +0.015 C 
ATOM     18  C   UNL     1      34.119 -23.654 -15.094  0.00  0.00    +0.077 C 
ATOM     19  C   UNL     1      32.744 -23.820 -15.177  0.00  0.00    +0.112 C 
ATOM     20  H   UNL     1      31.162 -22.511 -18.647  0.00  0.00    +0.154 HD
ENDBRANCH   9  13
ENDBRANCH   3   9
BRANCH   1  21
ATOM     21  C   UNL     1      34.358 -17.457 -23.884  0.00  0.00    +0.117 C 
BRANCH  21  23
ATOM     22  N   UNL     1      33.166 -14.067 -25.071  0.00  0.00    -0.240 NA
ATOM     23  C   UNL     1      34.072 -15.980 -23.904  0.00  0.00    +0.017 C 
ATOM     24  C   UNL     1      34.424 -15.168 -22.831  0.00  0.00    +0.000 C 
ATOM     25  C   UNL     1      33.450 -15.386 -24.990  0.00  0.00    +0.096 C 
ATOM     26  C   UNL     1      34.148 -13.806 -22.878  0.00  0.00    +0.023 C 
ATOM     27  C   UNL     1      33.522 -13.310 -24.010  0.00  0.00    +0.153 C 
BRANCH  27  31
ATOM     28  F   UNL     1      32.310 -11.432 -23.157  0.00  0.00    -0.164 F 
ATOM     29  F   UNL     1      34.302 -11.049 -23.927  0.00  0.00    -0.164 F 
ATOM     30  F   UNL     1      32.676 -11.499 -25.299  0.00  0.00    -0.164 F 
ATOM     31  C   UNL     1      33.210 -11.853 -24.094  0.00  0.00    +0.435 C 
ENDBRANCH  27  31
ENDBRANCH  21  23
ENDBRANCH   1  21
TORSDOF 5
ENDMDL
