MODEL 1
REMARK VINA RESULT:     -12.6      0.000      0.000
REMARK  Name = 208951
REMARK  4 active torsions:
REMARK  status: ('A' for Active; 'I' for Inactive)
REMARK    1  A    between atoms: N_1  and  C_19
REMARK    2  A    between atoms: N_2  and  C_11
REMARK    3  A    between atoms: C_19  and  C_20
REMARK    4  A    between atoms: C_23  and  C_26
REMARK                            x       y       z     vdW  Elec       q    Type
REMARK                         _______ _______ _______ _____ _____    ______ ____
ROOT
ATOM      1  N   UNL     1      35.794 -21.593 -18.143  0.00  0.00    +0.392 N 
ATOM      2  N   UNL     1      35.827 -23.091 -15.711  0.00  0.00    -0.309 N 
ATOM      3  C   UNL     1      37.055 -21.820 -17.427  0.00  0.00    -0.055 C 
ATOM      4  C   UNL     1      34.907 -22.749 -17.972  0.00  0.00    -0.055 C 
ATOM      5  C   UNL     1      36.809 -22.025 -15.930  0.00  0.00    +0.068 C 
ATOM      6  C   UNL     1      34.588 -22.984 -16.493  0.00  0.00    +0.068 C 
ATOM      7  H   UNL     1      35.338 -20.767 -17.752  0.00  0.00    -0.079 HD
ENDROOT
BRANCH   2  11
ATOM      8  O   UNL     1      37.788 -25.101 -14.826  0.00  0.00    -0.406 OA
ATOM      9  O   UNL     1      39.416 -26.656 -14.293  0.00  0.00    -0.223 OA
ATOM     10  N   UNL     1      37.702 -26.167 -12.791  0.00  0.00    -0.287 N 
ATOM     11  C   UNL     1      35.767 -23.736 -14.470  0.00  0.00    +0.084 C 
ATOM     12  C   UNL     1      36.703 -24.682 -14.072  0.00  0.00    +0.179 A 
ATOM     13  C   UNL     1      34.742 -23.459 -13.542  0.00  0.00    +0.018 C 
ATOM     14  C   UNL     1      36.634 -25.309 -12.848  0.00  0.00    +0.098 A 
ATOM     15  C   UNL     1      34.681 -24.108 -12.292  0.00  0.00    +0.003 C 
ATOM     16  C   UNL     1      35.643 -25.053 -11.929  0.00  0.00    +0.020 C 
ATOM     17  C   UNL     1      38.401 -26.045 -13.981  0.00  0.00    +0.419 A 
ATOM     18  H   UNL     1      37.931 -26.761 -12.041  0.00  0.00    +0.172 HD
ENDBRANCH   2  11
BRANCH   1  19
ATOM     19  C   UNL     1      36.047 -21.345 -19.561  0.00  0.00    -0.050 C 
BRANCH  19  20
ATOM     20  C   UNL     1      34.842 -20.740 -20.229  0.00  0.00    -0.043 C 
ATOM     21  C   UNL     1      35.017 -19.880 -21.306  0.00  0.00    -0.006 C 
ATOM     22  C   UNL     1      33.572 -21.051 -19.762  0.00  0.00    -0.006 C 
ATOM     23  C   UNL     1      33.899 -19.320 -21.926  0.00  0.00    -0.000 C 
ATOM     24  C   UNL     1      32.456 -20.491 -20.382  0.00  0.00    -0.000 C 
ATOM     25  C   UNL     1      32.619 -19.626 -21.463  0.00  0.00    -0.000 C 
BRANCH  23  26
ATOM     26  C   UNL     1      34.067 -18.424 -23.049  0.00  0.00    -0.000 C 
ATOM     27  C   UNL     1      33.722 -18.843 -24.334  0.00  0.00    -0.000 C 
ATOM     28  C   UNL     1      34.574 -17.139 -22.846  0.00  0.00    -0.000 C 
ATOM     29  C   UNL     1      33.884 -17.978 -25.416  0.00  0.00    -0.000 C 
ATOM     30  C   UNL     1      34.736 -16.276 -23.929  0.00  0.00    -0.000 C 
ATOM     31  C   UNL     1      34.391 -16.695 -25.214  0.00  0.00    +0.000 C 
ENDBRANCH  23  26
ENDBRANCH  19  20
ENDBRANCH   1  19
TORSDOF 4
ENDMDL
MODEL 2
REMARK VINA RESULT:     -12.6      4.671     10.169
REMARK  Name = 208951
REMARK  4 active torsions:
REMARK  status: ('A' for Active; 'I' for Inactive)
REMARK    1  A    between atoms: N_1  and  C_19
REMARK    2  A    between atoms: N_2  and  C_11
REMARK    3  A    between atoms: C_19  and  C_20
REMARK    4  A    between atoms: C_23  and  C_26
REMARK                            x       y       z     vdW  Elec       q    Type
REMARK                         _______ _______ _______ _____ _____    ______ ____
ROOT
ATOM      1  N   UNL     1      34.479 -21.203 -19.536  0.00  0.00    +0.392 N 
ATOM      2  N   UNL     1      34.428 -18.950 -21.292  0.00  0.00    -0.309 N 
ATOM      3  C   UNL     1      33.278 -20.902 -20.324  0.00  0.00    -0.055 C 
ATOM      4  C   UNL     1      35.680 -20.822 -20.290  0.00  0.00    -0.055 C 
ATOM      5  C   UNL     1      33.192 -19.409 -20.648  0.00  0.00    +0.068 C 
ATOM      6  C   UNL     1      35.675 -19.326 -20.613  0.00  0.00    +0.068 C 
ATOM      7  H   UNL     1      34.450 -20.663 -18.671  0.00  0.00    -0.079 HD
ENDROOT
BRANCH   2  11
ATOM      8  O   UNL     1      34.094 -18.901 -24.217  0.00  0.00    -0.406 OA
ATOM      9  O   UNL     1      33.819 -19.048 -26.509  0.00  0.00    -0.223 OA
ATOM     10  N   UNL     1      34.080 -16.976 -25.474  0.00  0.00    -0.287 N 
ATOM     11  C   UNL     1      34.421 -17.773 -22.050  0.00  0.00    +0.084 C 
ATOM     12  C   UNL     1      34.262 -17.773 -23.430  0.00  0.00    +0.179 A 
ATOM     13  C   UNL     1      34.576 -16.507 -21.450  0.00  0.00    +0.018 C 
ATOM     14  C   UNL     1      34.256 -16.608 -24.165  0.00  0.00    +0.098 A 
ATOM     15  C   UNL     1      34.569 -15.321 -22.213  0.00  0.00    +0.003 C 
ATOM     16  C   UNL     1      34.406 -15.363 -23.599  0.00  0.00    +0.020 C 
ATOM     17  C   UNL     1      33.982 -18.358 -25.510  0.00  0.00    +0.419 A 
ATOM     18  H   UNL     1      34.032 -16.370 -26.246  0.00  0.00    +0.172 HD
ENDBRANCH   2  11
BRANCH   1  19
ATOM     19  C   UNL     1      34.522 -22.622 -19.187  0.00  0.00    -0.050 C 
BRANCH  19  20
ATOM     20  C   UNL     1      34.053 -22.847 -17.775  0.00  0.00    -0.043 C 
ATOM     21  C   UNL     1      32.711 -23.114 -17.534  0.00  0.00    -0.006 C 
ATOM     22  C   UNL     1      34.967 -22.785 -16.732  0.00  0.00    -0.006 C 
ATOM     23  C   UNL     1      32.278 -23.324 -16.224  0.00  0.00    -0.000 C 
ATOM     24  C   UNL     1      34.533 -22.995 -15.424  0.00  0.00    -0.000 C 
ATOM     25  C   UNL     1      33.189 -23.263 -15.170  0.00  0.00    -0.000 C 
BRANCH  23  26
ATOM     26  C   UNL     1      30.883 -23.604 -15.960  0.00  0.00    -0.000 C 
ATOM     27  C   UNL     1      29.892 -22.785 -16.501  0.00  0.00    -0.000 C 
ATOM     28  C   UNL     1      30.529 -24.696 -15.165  0.00  0.00    -0.000 C 
ATOM     29  C   UNL     1      28.547 -23.057 -16.246  0.00  0.00    -0.000 C 
ATOM     30  C   UNL     1      29.185 -24.966 -14.911  0.00  0.00    -0.000 C 
ATOM     31  C   UNL     1      28.194 -24.147 -15.452  0.00  0.00    +0.000 C 
ENDBRANCH  23  26
ENDBRANCH  19  20
ENDBRANCH   1  19
TORSDOF 4
ENDMDL
MODEL 3
REMARK VINA RESULT:     -12.2      2.332      4.575
REMARK  Name = 208951
REMARK  4 active torsions:
REMARK  status: ('A' for Active; 'I' for Inactive)
REMARK    1  A    between atoms: N_1  and  C_19
REMARK    2  A    between atoms: N_2  and  C_11
REMARK    3  A    between atoms: C_19  and  C_20
REMARK    4  A    between atoms: C_23  and  C_26
REMARK                            x       y       z     vdW  Elec       q    Type
REMARK                         _______ _______ _______ _____ _____    ______ ____
ROOT
ATOM      1  N   UNL     1      35.212 -19.689 -21.618  0.00  0.00    +0.392 N 
ATOM      2  N   UNL     1      34.387 -21.188 -19.331  0.00  0.00    -0.309 N 
ATOM      3  C   UNL     1      33.924 -19.411 -20.973  0.00  0.00    -0.055 C 
ATOM      4  C   UNL     1      36.195 -20.107 -20.611  0.00  0.00    -0.055 C 
ATOM      5  C   UNL     1      33.386 -20.654 -20.260  0.00  0.00    +0.068 C 
ATOM      6  C   UNL     1      35.734 -21.374 -19.887  0.00  0.00    +0.068 C 
ATOM      7  H   UNL     1      35.088 -20.446 -22.291  0.00  0.00    -0.079 HD
ENDROOT
BRANCH   2  11
ATOM      8  O   UNL     1      36.208 -22.136 -17.220  0.00  0.00    -0.406 OA
ATOM      9  O   UNL     1      37.773 -22.784 -15.644  0.00  0.00    -0.223 OA
ATOM     10  N   UNL     1      35.564 -23.511 -15.494  0.00  0.00    -0.287 N 
ATOM     11  C   UNL     1      33.987 -22.026 -18.284  0.00  0.00    +0.084 C 
ATOM     12  C   UNL     1      34.863 -22.461 -17.297  0.00  0.00    +0.179 A 
ATOM     13  C   UNL     1      32.658 -22.480 -18.167  0.00  0.00    +0.018 C 
ATOM     14  C   UNL     1      34.457 -23.286 -16.270  0.00  0.00    +0.098 A 
ATOM     15  C   UNL     1      32.254 -23.324 -17.113  0.00  0.00    +0.003 C 
ATOM     16  C   UNL     1      33.165 -23.739 -16.140  0.00  0.00    +0.020 C 
ATOM     17  C   UNL     1      36.622 -22.820 -16.061  0.00  0.00    +0.419 A 
ATOM     18  H   UNL     1      35.600 -24.063 -14.680  0.00  0.00    +0.172 HD
ENDBRANCH   2  11
BRANCH   1  19
ATOM     19  C   UNL     1      35.688 -18.510 -22.340  0.00  0.00    -0.050 C 
BRANCH  19  20
ATOM     20  C   UNL     1      34.885 -18.280 -23.592  0.00  0.00    -0.043 C 
ATOM     21  C   UNL     1      34.519 -16.987 -23.942  0.00  0.00    -0.006 C 
ATOM     22  C   UNL     1      34.521 -19.363 -24.381  0.00  0.00    -0.006 C 
ATOM     23  C   UNL     1      33.775 -16.774 -25.103  0.00  0.00    -0.000 C 
ATOM     24  C   UNL     1      33.778 -19.150 -25.540  0.00  0.00    -0.000 C 
ATOM     25  C   UNL     1      33.404 -17.856 -25.901  0.00  0.00    -0.000 C 
BRANCH  23  26
ATOM     26  C   UNL     1      33.389 -15.432 -25.479  0.00  0.00    -0.000 C 
ATOM     27  C   UNL     1      33.380 -14.415 -24.524  0.00  0.00    -0.000 C 
ATOM     28  C   UNL     1      33.025 -15.154 -26.797  0.00  0.00    -0.000 C 
ATOM     29  C   UNL     1      33.008 -13.120 -24.887  0.00  0.00    -0.000 C 
ATOM     30  C   UNL     1      32.653 -13.860 -27.160  0.00  0.00    -0.000 C 
ATOM     31  C   UNL     1      32.645 -12.843 -26.204  0.00  0.00    +0.000 C 
ENDBRANCH  23  26
ENDBRANCH  19  20
ENDBRANCH   1  19
TORSDOF 4
ENDMDL
MODEL 4
REMARK VINA RESULT:     -12.2      3.982     10.329
REMARK  Name = 208951
REMARK  4 active torsions:
REMARK  status: ('A' for Active; 'I' for Inactive)
REMARK    1  A    between atoms: N_1  and  C_19
REMARK    2  A    between atoms: N_2  and  C_11
REMARK    3  A    between atoms: C_19  and  C_20
REMARK    4  A    between atoms: C_23  and  C_26
REMARK                            x       y       z     vdW  Elec       q    Type
REMARK                         _______ _______ _______ _____ _____    ______ ____
ROOT
ATOM      1  N   UNL     1      33.904 -21.544 -19.358  0.00  0.00    +0.392 N 
ATOM      2  N   UNL     1      34.217 -19.320 -21.123  0.00  0.00    -0.309 N 
ATOM      3  C   UNL     1      32.793 -21.113 -20.215  0.00  0.00    -0.055 C 
ATOM      4  C   UNL     1      35.181 -21.314 -20.043  0.00  0.00    -0.055 C 
ATOM      5  C   UNL     1      32.902 -19.624 -20.551  0.00  0.00    +0.068 C 
ATOM      6  C   UNL     1      35.370 -19.831 -20.371  0.00  0.00    +0.068 C 
ATOM      7  H   UNL     1      33.888 -20.994 -18.498  0.00  0.00    -0.079 HD
ENDROOT
BRANCH   2  11
ATOM      8  O   UNL     1      34.003 -19.254 -24.059  0.00  0.00    -0.406 OA
ATOM      9  O   UNL     1      33.798 -19.384 -26.360  0.00  0.00    -0.223 OA
ATOM     10  N   UNL     1      34.286 -17.354 -25.323  0.00  0.00    -0.287 N 
ATOM     11  C   UNL     1      34.392 -18.159 -21.885  0.00  0.00    +0.084 C 
ATOM     12  C   UNL     1      34.286 -18.150 -23.270  0.00  0.00    +0.179 A 
ATOM     13  C   UNL     1      34.687 -16.918 -21.284  0.00  0.00    +0.018 C 
ATOM     14  C   UNL     1      34.459 -17.001 -24.010  0.00  0.00    +0.098 A 
ATOM     15  C   UNL     1      34.863 -15.748 -22.052  0.00  0.00    +0.003 C 
ATOM     16  C   UNL     1      34.748 -15.781 -23.443  0.00  0.00    +0.020 C 
ATOM     17  C   UNL     1      34.011 -18.712 -25.358  0.00  0.00    +0.419 A 
ATOM     18  H   UNL     1      34.346 -16.753 -26.099  0.00  0.00    +0.172 HD
ENDBRANCH   2  11
BRANCH   1  19
ATOM     19  C   UNL     1      33.759 -22.954 -19.001  0.00  0.00    -0.050 C 
BRANCH  19  20
ATOM     20  C   UNL     1      33.288 -23.108 -17.580  0.00  0.00    -0.043 C 
ATOM     21  C   UNL     1      34.217 -23.321 -16.570  0.00  0.00    -0.006 C 
ATOM     22  C   UNL     1      31.931 -23.035 -17.297  0.00  0.00    -0.006 C 
ATOM     23  C   UNL     1      33.779 -23.462 -15.253  0.00  0.00    -0.000 C 
ATOM     24  C   UNL     1      31.494 -23.176 -15.981  0.00  0.00    -0.000 C 
ATOM     25  C   UNL     1      32.418 -23.391 -14.959  0.00  0.00    -0.000 C 
BRANCH  23  26
ATOM     26  C   UNL     1      34.738 -23.683 -14.192  0.00  0.00    -0.000 C 
ATOM     27  C   UNL     1      36.088 -23.405 -14.402  0.00  0.00    -0.000 C 
ATOM     28  C   UNL     1      34.311 -24.173 -12.957  0.00  0.00    -0.000 C 
ATOM     29  C   UNL     1      37.012 -23.617 -13.379  0.00  0.00    -0.000 C 
ATOM     30  C   UNL     1      35.235 -24.386 -11.934  0.00  0.00    -0.000 C 
ATOM     31  C   UNL     1      36.586 -24.107 -12.145  0.00  0.00    +0.000 C 
ENDBRANCH  23  26
ENDBRANCH  19  20
ENDBRANCH   1  19
TORSDOF 4
ENDMDL
MODEL 5
REMARK VINA RESULT:     -12.1      6.690     12.152
REMARK  Name = 208951
REMARK  4 active torsions:
REMARK  status: ('A' for Active; 'I' for Inactive)
REMARK    1  A    between atoms: N_1  and  C_19
REMARK    2  A    between atoms: N_2  and  C_11
REMARK    3  A    between atoms: C_19  and  C_20
REMARK    4  A    between atoms: C_23  and  C_26
REMARK                            x       y       z     vdW  Elec       q    Type
REMARK                         _______ _______ _______ _____ _____    ______ ____
ROOT
ATOM      1  N   UNL     1      34.060 -16.498 -24.344  0.00  0.00    +0.392 N 
ATOM      2  N   UNL     1      33.441 -13.714 -24.186  0.00  0.00    -0.309 N 
ATOM      3  C   UNL     1      34.022 -15.817 -23.044  0.00  0.00    -0.055 C 
ATOM      4  C   UNL     1      33.064 -15.907 -25.246  0.00  0.00    -0.055 C 
ATOM      5  C   UNL     1      34.330 -14.326 -23.194  0.00  0.00    +0.068 C 
ATOM      6  C   UNL     1      33.341 -14.418 -25.470  0.00  0.00    +0.068 C 
ATOM      7  H   UNL     1      34.987 -16.377 -24.752  0.00  0.00    -0.079 HD
ENDROOT
BRANCH   2  11
ATOM      8  O   UNL     1      31.970 -12.293 -22.067  0.00  0.00    -0.406 OA
ATOM      9  O   UNL     1      30.790 -11.341 -20.319  0.00  0.00    -0.223 OA
ATOM     10  N   UNL     1      31.636 -10.018 -22.042  0.00  0.00    -0.287 N 
ATOM     11  C   UNL     1      33.241 -12.328 -24.179  0.00  0.00    +0.084 C 
ATOM     12  C   UNL     1      32.544 -11.678 -23.168  0.00  0.00    +0.179 A 
ATOM     13  C   UNL     1      33.742 -11.504 -25.207  0.00  0.00    +0.018 C 
ATOM     14  C   UNL     1      32.354 -10.313 -23.172  0.00  0.00    +0.098 A 
ATOM     15  C   UNL     1      33.541 -10.109 -25.200  0.00  0.00    +0.003 C 
ATOM     16  C   UNL     1      32.835  -9.492 -24.166  0.00  0.00    +0.020 C 
ATOM     17  C   UNL     1      31.402 -11.208 -21.372  0.00  0.00    +0.419 A 
ATOM     18  H   UNL     1      31.341  -9.124 -21.759  0.00  0.00    +0.172 HD
ENDBRANCH   2  11
BRANCH   1  19
ATOM     19  C   UNL     1      33.817 -17.930 -24.180  0.00  0.00    -0.050 C 
BRANCH  19  20
ATOM     20  C   UNL     1      34.642 -18.495 -23.055  0.00  0.00    -0.043 C 
ATOM     21  C   UNL     1      34.049 -19.350 -22.135  0.00  0.00    -0.006 C 
ATOM     22  C   UNL     1      35.983 -18.154 -22.952  0.00  0.00    -0.006 C 
ATOM     23  C   UNL     1      34.815 -19.874 -21.093  0.00  0.00    -0.000 C 
ATOM     24  C   UNL     1      36.748 -18.677 -21.910  0.00  0.00    -0.000 C 
ATOM     25  C   UNL     1      36.164 -19.537 -20.981  0.00  0.00    -0.000 C 
BRANCH  23  26
ATOM     26  C   UNL     1      34.210 -20.768 -20.129  0.00  0.00    -0.000 C 
ATOM     27  C   UNL     1      35.008 -21.639 -19.388  0.00  0.00    -0.000 C 
ATOM     28  C   UNL     1      32.827 -20.758 -19.940  0.00  0.00    -0.000 C 
ATOM     29  C   UNL     1      34.425 -22.500 -18.459  0.00  0.00    -0.000 C 
ATOM     30  C   UNL     1      32.245 -21.619 -19.011  0.00  0.00    -0.000 C 
ATOM     31  C   UNL     1      33.044 -22.490 -18.270  0.00  0.00    +0.000 C 
ENDBRANCH  23  26
ENDBRANCH  19  20
ENDBRANCH   1  19
TORSDOF 4
ENDMDL
MODEL 6
REMARK VINA RESULT:     -11.9      5.223     11.389
REMARK  Name = 208951
REMARK  4 active torsions:
REMARK  status: ('A' for Active; 'I' for Inactive)
REMARK    1  A    between atoms: N_1  and  C_19
REMARK    2  A    between atoms: N_2  and  C_11
REMARK    3  A    between atoms: C_19  and  C_20
REMARK    4  A    between atoms: C_23  and  C_26
REMARK                            x       y       z     vdW  Elec       q    Type
REMARK                         _______ _______ _______ _____ _____    ______ ____
ROOT
ATOM      1  N   UNL     1      34.836 -18.751 -21.637  0.00  0.00    +0.392 N 
ATOM      2  N   UNL     1      34.362 -16.315 -23.051  0.00  0.00    -0.309 N 
ATOM      3  C   UNL     1      34.824 -18.733 -23.104  0.00  0.00    -0.055 C 
ATOM      4  C   UNL     1      35.369 -17.482 -21.127  0.00  0.00    -0.055 C 
ATOM      5  C   UNL     1      33.949 -17.595 -23.634  0.00  0.00    +0.068 C 
ATOM      6  C   UNL     1      34.512 -16.301 -21.590  0.00  0.00    +0.068 C 
ATOM      7  H   UNL     1      33.880 -18.865 -21.300  0.00  0.00    -0.079 HD
ENDROOT
BRANCH   2  11
ATOM      8  O   UNL     1      33.317 -16.176 -25.800  0.00  0.00    -0.406 OA
ATOM      9  O   UNL     1      32.508 -16.253 -27.966  0.00  0.00    -0.223 OA
ATOM     10  N   UNL     1      32.743 -14.217 -26.856  0.00  0.00    -0.287 N 
ATOM     11  C   UNL     1      34.017 -15.117 -23.687  0.00  0.00    +0.084 C 
ATOM     12  C   UNL     1      33.524 -15.074 -24.986  0.00  0.00    +0.179 A 
ATOM     13  C   UNL     1      34.147 -13.871 -23.040  0.00  0.00    +0.018 C 
ATOM     14  C   UNL     1      33.186 -13.889 -25.601  0.00  0.00    +0.098 A 
ATOM     15  C   UNL     1      33.799 -12.665 -23.680  0.00  0.00    +0.003 C 
ATOM     16  C   UNL     1      33.307 -12.664 -24.987  0.00  0.00    +0.020 C 
ATOM     17  C   UNL     1      32.820 -15.594 -26.981  0.00  0.00    +0.419 A 
ATOM     18  H   UNL     1      32.428 -13.588 -27.544  0.00  0.00    +0.172 HD
ENDBRANCH   2  11
BRANCH   1  19
ATOM     19  C   UNL     1      35.631 -19.875 -21.144  0.00  0.00    -0.050 C 
BRANCH  19  20
ATOM     20  C   UNL     1      34.839 -20.717 -20.181  0.00  0.00    -0.043 C 
ATOM     21  C   UNL     1      35.472 -21.272 -19.076  0.00  0.00    -0.006 C 
ATOM     22  C   UNL     1      33.486 -20.928 -20.408  0.00  0.00    -0.006 C 
ATOM     23  C   UNL     1      34.737 -22.052 -18.183  0.00  0.00    -0.000 C 
ATOM     24  C   UNL     1      32.752 -21.708 -19.515  0.00  0.00    -0.000 C 
ATOM     25  C   UNL     1      33.377 -22.270 -18.403  0.00  0.00    -0.000 C 
BRANCH  23  26
ATOM     26  C   UNL     1      35.385 -22.634 -17.028  0.00  0.00    -0.000 C 
ATOM     27  C   UNL     1      34.664 -23.459 -16.165  0.00  0.00    -0.000 C 
ATOM     28  C   UNL     1      36.733 -22.371 -16.777  0.00  0.00    -0.000 C 
ATOM     29  C   UNL     1      35.289 -24.020 -15.051  0.00  0.00    -0.000 C 
ATOM     30  C   UNL     1      37.357 -22.932 -15.664  0.00  0.00    -0.000 C 
ATOM     31  C   UNL     1      36.635 -23.758 -14.801  0.00  0.00    +0.000 C 
ENDBRANCH  23  26
ENDBRANCH  19  20
ENDBRANCH   1  19
TORSDOF 4
ENDMDL
MODEL 7
REMARK VINA RESULT:     -11.9      6.835     12.062
REMARK  Name = 208951
REMARK  4 active torsions:
REMARK  status: ('A' for Active; 'I' for Inactive)
REMARK    1  A    between atoms: N_1  and  C_19
REMARK    2  A    between atoms: N_2  and  C_11
REMARK    3  A    between atoms: C_19  and  C_20
REMARK    4  A    between atoms: C_23  and  C_26
REMARK                            x       y       z     vdW  Elec       q    Type
REMARK                         _______ _______ _______ _____ _____    ______ ____
ROOT
ATOM      1  N   UNL     1      34.462 -16.638 -24.073  0.00  0.00    +0.392 N 
ATOM      2  N   UNL     1      33.336 -14.098 -23.409  0.00  0.00    -0.309 N 
ATOM      3  C   UNL     1      34.384 -16.202 -22.674  0.00  0.00    -0.055 C 
ATOM      4  C   UNL     1      33.313 -16.117 -24.823  0.00  0.00    -0.055 C 
ATOM      5  C   UNL     1      34.391 -14.675 -22.571  0.00  0.00    +0.068 C 
ATOM      6  C   UNL     1      33.285 -14.587 -24.793  0.00  0.00    +0.068 C 
ATOM      7  H   UNL     1      35.319 -16.269 -24.485  0.00  0.00    -0.079 HD
ENDROOT
BRANCH   2  11
ATOM      8  O   UNL     1      34.205 -11.734 -24.935  0.00  0.00    -0.406 OA
ATOM      9  O   UNL     1      34.994  -9.991 -26.234  0.00  0.00    -0.223 OA
ATOM     10  N   UNL     1      33.457  -9.599 -24.526  0.00  0.00    -0.287 N 
ATOM     11  C   UNL     1      32.876 -12.801 -23.153  0.00  0.00    +0.084 C 
ATOM     12  C   UNL     1      33.300 -11.699 -23.886  0.00  0.00    +0.179 A 
ATOM     13  C   UNL     1      31.947 -12.535 -22.127  0.00  0.00    +0.018 C 
ATOM     14  C   UNL     1      32.839 -10.427 -23.626  0.00  0.00    +0.098 A 
ATOM     15  C   UNL     1      31.483 -11.229 -21.870  0.00  0.00    +0.003 C 
ATOM     16  C   UNL     1      31.933 -10.147 -22.629  0.00  0.00    +0.020 C 
ATOM     17  C   UNL     1      34.282 -10.382 -25.318  0.00  0.00    +0.419 A 
ATOM     18  H   UNL     1      33.337  -8.625 -24.598  0.00  0.00    +0.172 HD
ENDBRANCH   2  11
BRANCH   1  19
ATOM     19  C   UNL     1      34.509 -18.097 -24.154  0.00  0.00    -0.050 C 
BRANCH  19  20
ATOM     20  C   UNL     1      35.165 -18.687 -22.936  0.00  0.00    -0.043 C 
ATOM     21  C   UNL     1      34.418 -19.477 -22.071  0.00  0.00    -0.006 C 
ATOM     22  C   UNL     1      36.508 -18.435 -22.691  0.00  0.00    -0.006 C 
ATOM     23  C   UNL     1      35.028 -20.025 -20.942  0.00  0.00    -0.000 C 
ATOM     24  C   UNL     1      37.116 -18.982 -21.563  0.00  0.00    -0.000 C 
ATOM     25  C   UNL     1      36.377 -19.777 -20.688  0.00  0.00    -0.000 C 
BRANCH  23  26
ATOM     26  C   UNL     1      34.261 -20.852 -20.035  0.00  0.00    -0.000 C 
ATOM     27  C   UNL     1      34.909 -21.773 -19.213  0.00  0.00    -0.000 C 
ATOM     28  C   UNL     1      32.872 -20.726 -19.982  0.00  0.00    -0.000 C 
ATOM     29  C   UNL     1      34.170 -22.569 -18.338  0.00  0.00    -0.000 C 
ATOM     30  C   UNL     1      32.133 -21.523 -19.108  0.00  0.00    -0.000 C 
ATOM     31  C   UNL     1      32.783 -22.444 -18.285  0.00  0.00    +0.000 C 
ENDBRANCH  23  26
ENDBRANCH  19  20
ENDBRANCH   1  19
TORSDOF 4
ENDMDL
MODEL 8
REMARK VINA RESULT:     -11.9      5.590     11.933
REMARK  Name = 208951
REMARK  4 active torsions:
REMARK  status: ('A' for Active; 'I' for Inactive)
REMARK    1  A    between atoms: N_1  and  C_19
REMARK    2  A    between atoms: N_2  and  C_11
REMARK    3  A    between atoms: C_19  and  C_20
REMARK    4  A    between atoms: C_23  and  C_26
REMARK                            x       y       z     vdW  Elec       q    Type
REMARK                         _______ _______ _______ _____ _____    ______ ____
ROOT
ATOM      1  N   UNL     1      34.459 -18.236 -22.620  0.00  0.00    +0.392 N 
ATOM      2  N   UNL     1      33.764 -16.381 -24.679  0.00  0.00    -0.309 N 
ATOM      3  C   UNL     1      34.328 -18.684 -24.012  0.00  0.00    -0.055 C 
ATOM      4  C   UNL     1      34.973 -16.861 -22.585  0.00  0.00    -0.055 C 
ATOM      5  C   UNL     1      33.363 -17.787 -24.791  0.00  0.00    +0.068 C 
ATOM      6  C   UNL     1      34.029 -15.903 -23.315  0.00  0.00    +0.068 C 
ATOM      7  H   UNL     1      33.539 -18.255 -22.180  0.00  0.00    -0.079 HD
ENDROOT
BRANCH   2  11
ATOM      8  O   UNL     1      33.696 -13.476 -24.202  0.00  0.00    -0.406 OA
ATOM      9  O   UNL     1      33.713 -11.227 -23.659  0.00  0.00    -0.223 OA
ATOM     10  N   UNL     1      32.962 -11.940 -25.747  0.00  0.00    -0.287 N 
ATOM     11  C   UNL     1      33.314 -15.453 -25.625  0.00  0.00    +0.084 C 
ATOM     12  C   UNL     1      33.291 -14.086 -25.379  0.00  0.00    +0.179 A 
ATOM     13  C   UNL     1      32.856 -15.856 -26.896  0.00  0.00    +0.018 C 
ATOM     14  C   UNL     1      32.847 -13.181 -26.319  0.00  0.00    +0.098 A 
ATOM     15  C   UNL     1      32.403 -14.921 -27.849  0.00  0.00    +0.003 C 
ATOM     16  C   UNL     1      32.396 -13.554 -27.564  0.00  0.00    +0.020 C 
ATOM     17  C   UNL     1      33.473 -12.113 -24.471  0.00  0.00    +0.419 A 
ATOM     18  H   UNL     1      32.725 -11.083 -26.167  0.00  0.00    +0.172 HD
ENDBRANCH   2  11
BRANCH   1  19
ATOM     19  C   UNL     1      35.340 -19.132 -21.873  0.00  0.00    -0.050 C 
BRANCH  19  20
ATOM     20  C   UNL     1      34.556 -19.994 -20.922  0.00  0.00    -0.043 C 
ATOM     21  C   UNL     1      35.206 -20.601 -19.854  0.00  0.00    -0.006 C 
ATOM     22  C   UNL     1      33.194 -20.171 -21.122  0.00  0.00    -0.006 C 
ATOM     23  C   UNL     1      34.478 -21.399 -18.972  0.00  0.00    -0.000 C 
ATOM     24  C   UNL     1      32.467 -20.969 -20.240  0.00  0.00    -0.000 C 
ATOM     25  C   UNL     1      33.108 -21.584 -19.165  0.00  0.00    -0.000 C 
BRANCH  23  26
ATOM     26  C   UNL     1      35.143 -22.035 -17.855  0.00  0.00    -0.000 C 
ATOM     27  C   UNL     1      36.489 -21.774 -17.604  0.00  0.00    -0.000 C 
ATOM     28  C   UNL     1      34.436 -22.911 -17.029  0.00  0.00    -0.000 C 
ATOM     29  C   UNL     1      37.130 -22.386 -16.527  0.00  0.00    -0.000 C 
ATOM     30  C   UNL     1      35.077 -23.523 -15.953  0.00  0.00    -0.000 C 
ATOM     31  C   UNL     1      36.424 -23.261 -15.701  0.00  0.00    +0.000 C 
ENDBRANCH  23  26
ENDBRANCH  19  20
ENDBRANCH   1  19
TORSDOF 4
ENDMDL
MODEL 9
REMARK VINA RESULT:     -11.9      1.711      2.886
REMARK  Name = 208951
REMARK  4 active torsions:
REMARK  status: ('A' for Active; 'I' for Inactive)
REMARK    1  A    between atoms: N_1  and  C_19
REMARK    2  A    between atoms: N_2  and  C_11
REMARK    3  A    between atoms: C_19  and  C_20
REMARK    4  A    between atoms: C_23  and  C_26
REMARK                            x       y       z     vdW  Elec       q    Type
REMARK                         _______ _______ _______ _____ _____    ______ ____
ROOT
ATOM      1  N   UNL     1      34.896 -20.990 -19.853  0.00  0.00    +0.392 N 
ATOM      2  N   UNL     1      34.091 -22.573 -17.616  0.00  0.00    -0.309 N 
ATOM      3  C   UNL     1      35.899 -21.652 -19.012  0.00  0.00    -0.055 C 
ATOM      4  C   UNL     1      33.682 -21.812 -19.924  0.00  0.00    -0.055 C 
ATOM      5  C   UNL     1      35.374 -21.863 -17.590  0.00  0.00    +0.068 C 
ATOM      6  C   UNL     1      33.082 -22.028 -18.533  0.00  0.00    +0.068 C 
ATOM      7  H   UNL     1      34.659 -20.089 -19.436  0.00  0.00    -0.079 HD
ENDROOT
BRANCH   2  11
ATOM      8  O   UNL     1      35.858 -24.137 -15.854  0.00  0.00    -0.406 OA
ATOM      9  O   UNL     1      37.386 -25.320 -14.582  0.00  0.00    -0.223 OA
ATOM     10  N   UNL     1      35.138 -25.241 -13.970  0.00  0.00    -0.287 N 
ATOM     11  C   UNL     1      33.645 -23.243 -16.471  0.00  0.00    +0.084 C 
ATOM     12  C   UNL     1      34.496 -23.976 -15.653  0.00  0.00    +0.179 A 
ATOM     13  C   UNL     1      32.292 -23.212 -16.077  0.00  0.00    +0.018 C 
ATOM     14  C   UNL     1      34.045 -24.631 -14.528  0.00  0.00    +0.098 A 
ATOM     15  C   UNL     1      31.842 -23.887 -14.924  0.00  0.00    +0.003 C 
ATOM     16  C   UNL     1      32.729 -24.613 -14.127  0.00  0.00    +0.020 C 
ATOM     17  C   UNL     1      36.234 -24.947 -14.766  0.00  0.00    +0.419 A 
ATOM     18  H   UNL     1      35.144 -25.789 -13.153  0.00  0.00    +0.172 HD
ENDBRANCH   2  11
BRANCH   1  19
ATOM     19  C   UNL     1      35.429 -20.745 -21.192  0.00  0.00    -0.050 C 
BRANCH  19  20
ATOM     20  C   UNL     1      35.090 -19.358 -21.666  0.00  0.00    -0.043 C 
ATOM     21  C   UNL     1      34.430 -19.191 -22.876  0.00  0.00    -0.006 C 
ATOM     22  C   UNL     1      35.440 -18.264 -20.887  0.00  0.00    -0.006 C 
ATOM     23  C   UNL     1      34.115 -17.904 -23.315  0.00  0.00    -0.000 C 
ATOM     24  C   UNL     1      35.126 -16.978 -21.326  0.00  0.00    -0.000 C 
ATOM     25  C   UNL     1      34.463 -16.798 -22.539  0.00  0.00    -0.000 C 
BRANCH  23  26
ATOM     26  C   UNL     1      33.426 -17.717 -24.573  0.00  0.00    -0.000 C 
ATOM     27  C   UNL     1      33.439 -16.470 -25.198  0.00  0.00    -0.000 C 
ATOM     28  C   UNL     1      32.748 -18.785 -25.163  0.00  0.00    -0.000 C 
ATOM     29  C   UNL     1      32.775 -16.290 -26.411  0.00  0.00    -0.000 C 
ATOM     30  C   UNL     1      32.084 -18.605 -26.376  0.00  0.00    -0.000 C 
ATOM     31  C   UNL     1      32.098 -17.357 -27.000  0.00  0.00    +0.000 C 
ENDBRANCH  23  26
ENDBRANCH  19  20
ENDBRANCH   1  19
TORSDOF 4
ENDMDL
