MODEL 1
REMARK VINA RESULT:     -12.2      0.000      0.000
REMARK  Name = 448317
REMARK  6 active torsions:
REMARK  status: ('A' for Active; 'I' for Inactive)
REMARK    1  A    between atoms: C_1  and  C_18
REMARK    2  A    between atoms: C_4  and  N_24
REMARK    3  A    between atoms: C_5  and  S_25
REMARK    4  A    between atoms: S_25  and  C_26
REMARK    5  A    between atoms: C_27  and  O_32
REMARK    6  A    between atoms: O_32  and  C_33
REMARK                            x       y       z     vdW  Elec       q    Type
REMARK                         _______ _______ _______ _____ _____    ______ ____
ROOT
ATOM      1  C   UNL     1      33.706 -20.946 -19.812  0.00  0.00    +0.002 C 
ATOM      2  C   UNL     1      35.031 -20.568 -20.024  0.00  0.00    +0.025 C 
ATOM      3  C   UNL     1      32.709 -20.509 -20.684  0.00  0.00    +0.001 C 
ATOM      4  C   UNL     1      35.362 -19.756 -21.110  0.00  0.00    +0.149 C 
ATOM      5  C   UNL     1      34.365 -19.319 -21.982  0.00  0.00    +0.052 C 
ATOM      6  C   UNL     1      33.038 -19.696 -21.770  0.00  0.00    +0.008 C 
ENDROOT
BRANCH   1  18
ATOM      7  O   UNL     1      38.335 -24.045 -12.426  0.00  0.00    -0.275 OA
ATOM      8  N   UNL     1      35.038 -23.667 -15.991  0.00  0.00    -0.290 N 
ATOM      9  N   UNL     1      37.030 -24.645 -14.249  0.00  0.00    -0.276 N 
ATOM     10  N   UNL     1      32.701 -23.416 -16.514  0.00  0.00    -0.229 NA
ATOM     11  C   UNL     1      34.838 -24.961 -15.324  0.00  0.00    +0.114 C 
ATOM     12  C   UNL     1      35.929 -22.718 -15.306  0.00  0.00    +0.114 C 
ATOM     13  C   UNL     1      36.185 -25.595 -14.975  0.00  0.00    +0.115 C 
ATOM     14  C   UNL     1      37.256 -23.390 -14.961  0.00  0.00    +0.115 C 
ATOM     15  C   UNL     1      34.018 -23.139 -16.792  0.00  0.00    +0.132 C 
ATOM     16  C   UNL     1      37.613 -24.861 -13.003  0.00  0.00    +0.226 C 
ATOM     17  C   UNL     1      34.365 -22.321 -17.884  0.00  0.00    +0.034 C 
ATOM     18  C   UNL     1      33.363 -21.788 -18.688  0.00  0.00    +0.004 C 
ATOM     19  C   UNL     1      37.321 -26.185 -12.343  0.00  0.00    +0.095 C 
ATOM     20  C   UNL     1      32.031 -22.068 -18.406  0.00  0.00    +0.021 C 
ATOM     21  C   UNL     1      31.755 -22.881 -17.318  0.00  0.00    +0.100 C 
ENDBRANCH   1  18
BRANCH   4  24
ATOM     22  O   UNL     1      37.535 -19.610 -20.353  0.00  0.00    -0.126 OA
ATOM     23  O   UNL     1      37.079 -18.876 -22.372  0.00  0.00    -0.126 OA
ATOM     24  N   UNL     1      36.728 -19.395 -21.287  0.00  0.00    +0.058 N 
ENDBRANCH   4  24
BRANCH   5  25
ATOM     25  S   UNL     1      34.719 -18.275 -23.393  0.00  0.00    -0.082 S 
BRANCH  25  26
ATOM     26  C   UNL     1      34.515 -16.653 -22.676  0.00  0.00    +0.063 C 
ATOM     27  C   UNL     1      34.196 -15.545 -23.461  0.00  0.00    +0.144 C 
ATOM     28  C   UNL     1      34.684 -16.503 -21.297  0.00  0.00    +0.010 C 
ATOM     29  C   UNL     1      34.044 -14.290 -22.871  0.00  0.00    +0.037 C 
ATOM     30  C   UNL     1      34.532 -15.248 -20.708  0.00  0.00    +0.001 C 
ATOM     31  C   UNL     1      34.213 -14.141 -21.494  0.00  0.00    +0.003 C 
BRANCH  27  32
ATOM     32  O   UNL     1      34.022 -15.652 -24.809  0.00  0.00    -0.475 OA
BRANCH  32  33
ATOM     33  C   UNL     1      33.184 -14.682 -25.434  0.00  0.00    +0.206 C 
ATOM     34  C   UNL     1      33.131 -14.961 -26.921  0.00  0.00    +0.051 C 
ENDBRANCH  32  33
ENDBRANCH  27  32
ENDBRANCH  25  26
ENDBRANCH   5  25
TORSDOF 6
ENDMDL
MODEL 2
REMARK VINA RESULT:     -11.2      4.648     12.493
REMARK  Name = 448317
REMARK  6 active torsions:
REMARK  status: ('A' for Active; 'I' for Inactive)
REMARK    1  A    between atoms: C_1  and  C_18
REMARK    2  A    between atoms: C_4  and  N_24
REMARK    3  A    between atoms: C_5  and  S_25
REMARK    4  A    between atoms: S_25  and  C_26
REMARK    5  A    between atoms: C_27  and  O_32
REMARK    6  A    between atoms: O_32  and  C_33
REMARK                            x       y       z     vdW  Elec       q    Type
REMARK                         _______ _______ _______ _____ _____    ______ ____
ROOT
ATOM      1  C   UNL     1      34.049 -15.934 -24.538  0.00  0.00    +0.002 C 
ATOM      2  C   UNL     1      34.144 -15.516 -23.211  0.00  0.00    +0.025 C 
ATOM      3  C   UNL     1      34.544 -17.183 -24.913  0.00  0.00    +0.001 C 
ATOM      4  C   UNL     1      34.733 -16.347 -22.257  0.00  0.00    +0.149 C 
ATOM      5  C   UNL     1      35.228 -17.595 -22.632  0.00  0.00    +0.052 C 
ATOM      6  C   UNL     1      35.134 -18.015 -23.959  0.00  0.00    +0.008 C 
ENDROOT
BRANCH   1  18
ATOM      7  O   UNL     1      35.168  -7.073 -26.951  0.00  0.00    -0.275 OA
ATOM      8  N   UNL     1      33.192 -11.483 -26.336  0.00  0.00    -0.290 N 
ATOM      9  N   UNL     1      33.639  -8.697 -26.311  0.00  0.00    -0.276 N 
ATOM     10  N   UNL     1      32.258 -13.409 -27.437  0.00  0.00    -0.229 NA
ATOM     11  C   UNL     1      32.144 -10.581 -26.834  0.00  0.00    +0.114 C 
ATOM     12  C   UNL     1      34.570 -10.969 -26.403  0.00  0.00    +0.114 C 
ATOM     13  C   UNL     1      32.271  -9.204 -26.184  0.00  0.00    +0.115 C 
ATOM     14  C   UNL     1      34.654  -9.588 -25.757  0.00  0.00    +0.115 C 
ATOM     15  C   UNL     1      33.010 -12.868 -26.422  0.00  0.00    +0.132 C 
ATOM     16  C   UNL     1      34.006  -7.478 -26.875  0.00  0.00    +0.226 C 
ATOM     17  C   UNL     1      33.610 -13.695 -25.454  0.00  0.00    +0.034 C 
ATOM     18  C   UNL     1      33.439 -15.073 -25.526  0.00  0.00    +0.004 C 
ATOM     19  C   UNL     1      32.890  -6.626 -27.424  0.00  0.00    +0.095 C 
ATOM     20  C   UNL     1      32.678 -15.620 -26.554  0.00  0.00    +0.021 C 
ATOM     21  C   UNL     1      32.113 -14.753 -27.475  0.00  0.00    +0.100 C 
ENDBRANCH   1  18
BRANCH   4  24
ATOM     22  O   UNL     1      34.906 -16.715 -19.988  0.00  0.00    -0.126 OA
ATOM     23  O   UNL     1      34.777 -14.644 -20.704  0.00  0.00    -0.126 OA
ATOM     24  N   UNL     1      34.809 -15.878 -20.914  0.00  0.00    +0.058 N 
ENDBRANCH   4  24
BRANCH   5  25
ATOM     25  S   UNL     1      35.996 -18.711 -21.459  0.00  0.00    -0.082 S 
BRANCH  25  26
ATOM     26  C   UNL     1      34.586 -19.669 -20.928  0.00  0.00    +0.063 C 
ATOM     27  C   UNL     1      34.709 -20.672 -19.966  0.00  0.00    +0.144 C 
ATOM     28  C   UNL     1      33.339 -19.398 -21.496  0.00  0.00    +0.010 C 
ATOM     29  C   UNL     1      33.589 -21.404 -19.572  0.00  0.00    +0.037 C 
ATOM     30  C   UNL     1      32.219 -20.131 -21.102  0.00  0.00    +0.001 C 
ATOM     31  C   UNL     1      32.343 -21.133 -20.140  0.00  0.00    +0.003 C 
BRANCH  27  32
ATOM     32  O   UNL     1      35.909 -20.963 -19.388  0.00  0.00    -0.475 OA
BRANCH  32  33
ATOM     33  C   UNL     1      35.907 -21.932 -18.342  0.00  0.00    +0.206 C 
ATOM     34  C   UNL     1      36.746 -21.419 -17.192  0.00  0.00    +0.051 C 
ENDBRANCH  32  33
ENDBRANCH  27  32
ENDBRANCH  25  26
ENDBRANCH   5  25
TORSDOF 6
ENDMDL
MODEL 3
REMARK VINA RESULT:     -11.1      6.905     13.011
REMARK  Name = 448317
REMARK  6 active torsions:
REMARK  status: ('A' for Active; 'I' for Inactive)
REMARK    1  A    between atoms: C_1  and  C_18
REMARK    2  A    between atoms: C_4  and  N_24
REMARK    3  A    between atoms: C_5  and  S_25
REMARK    4  A    between atoms: S_25  and  C_26
REMARK    5  A    between atoms: C_27  and  O_32
REMARK    6  A    between atoms: O_32  and  C_33
REMARK                            x       y       z     vdW  Elec       q    Type
REMARK                         _______ _______ _______ _____ _____    ______ ____
ROOT
ATOM      1  C   UNL     1      32.717 -12.905 -22.485  0.00  0.00    +0.002 C 
ATOM      2  C   UNL     1      32.579 -13.040 -23.866  0.00  0.00    +0.025 C 
ATOM      3  C   UNL     1      33.511 -13.803 -21.772  0.00  0.00    +0.001 C 
ATOM      4  C   UNL     1      33.238 -14.071 -24.536  0.00  0.00    +0.149 C 
ATOM      5  C   UNL     1      34.033 -14.969 -23.824  0.00  0.00    +0.052 C 
ATOM      6  C   UNL     1      34.171 -14.835 -22.441  0.00  0.00    +0.008 C 
ENDROOT
BRANCH   1  18
ATOM      7  O   UNL     1      29.912  -4.417 -24.867  0.00  0.00    -0.275 OA
ATOM      8  N   UNL     1      31.327  -8.240 -22.200  0.00  0.00    -0.290 N 
ATOM      9  N   UNL     1      31.129  -5.663 -23.334  0.00  0.00    -0.276 N 
ATOM     10  N   UNL     1      30.714  -9.771 -20.446  0.00  0.00    -0.229 NA
ATOM     11  C   UNL     1      31.267  -7.067 -21.317  0.00  0.00    +0.114 C 
ATOM     12  C   UNL     1      30.715  -8.078 -23.529  0.00  0.00    +0.114 C 
ATOM     13  C   UNL     1      31.792  -5.827 -22.038  0.00  0.00    +0.115 C 
ATOM     14  C   UNL     1      31.253  -6.823 -24.213  0.00  0.00    +0.115 C 
ATOM     15  C   UNL     1      31.342  -9.524 -21.644  0.00  0.00    +0.132 C 
ATOM     16  C   UNL     1      30.445  -4.528 -23.761  0.00  0.00    +0.226 C 
ATOM     17  C   UNL     1      32.011 -10.555 -22.330  0.00  0.00    +0.034 C 
ATOM     18  C   UNL     1      32.034 -11.837 -21.790  0.00  0.00    +0.004 C 
ATOM     19  C   UNL     1      30.366  -3.382 -22.785  0.00  0.00    +0.095 C 
ATOM     20  C   UNL     1      31.398 -12.086 -20.579  0.00  0.00    +0.021 C 
ATOM     21  C   UNL     1      30.759 -11.028 -19.952  0.00  0.00    +0.100 C 
ENDBRANCH   1  18
BRANCH   4  24
ATOM     22  O   UNL     1      33.457 -13.224 -26.669  0.00  0.00    -0.126 OA
ATOM     23  O   UNL     1      32.539 -15.203 -26.419  0.00  0.00    -0.126 OA
ATOM     24  N   UNL     1      33.069 -14.171 -25.947  0.00  0.00    +0.058 N 
ENDBRANCH   4  24
BRANCH   5  25
ATOM     25  S   UNL     1      34.905 -16.315 -24.621  0.00  0.00    -0.082 S 
BRANCH  25  26
ATOM     26  C   UNL     1      34.820 -17.573 -23.356  0.00  0.00    +0.063 C 
ATOM     27  C   UNL     1      33.774 -18.496 -23.317  0.00  0.00    +0.144 C 
ATOM     28  C   UNL     1      35.827 -17.622 -22.390  0.00  0.00    +0.010 C 
ATOM     29  C   UNL     1      33.735 -19.465 -22.316  0.00  0.00    +0.037 C 
ATOM     30  C   UNL     1      35.787 -18.592 -21.388  0.00  0.00    +0.001 C 
ATOM     31  C   UNL     1      34.741 -19.514 -21.351  0.00  0.00    +0.003 C 
BRANCH  27  32
ATOM     32  O   UNL     1      32.774 -18.480 -24.244  0.00  0.00    -0.475 OA
BRANCH  32  33
ATOM     33  C   UNL     1      33.069 -19.034 -25.525  0.00  0.00    +0.206 C 
ATOM     34  C   UNL     1      31.990 -18.619 -26.501  0.00  0.00    +0.051 C 
ENDBRANCH  32  33
ENDBRANCH  27  32
ENDBRANCH  25  26
ENDBRANCH   5  25
TORSDOF 6
ENDMDL
MODEL 4
REMARK VINA RESULT:     -10.8      6.770     13.206
REMARK  Name = 448317
REMARK  6 active torsions:
REMARK  status: ('A' for Active; 'I' for Inactive)
REMARK    1  A    between atoms: C_1  and  C_18
REMARK    2  A    between atoms: C_4  and  N_24
REMARK    3  A    between atoms: C_5  and  S_25
REMARK    4  A    between atoms: S_25  and  C_26
REMARK    5  A    between atoms: C_27  and  O_32
REMARK    6  A    between atoms: O_32  and  C_33
REMARK                            x       y       z     vdW  Elec       q    Type
REMARK                         _______ _______ _______ _____ _____    ______ ____
ROOT
ATOM      1  C   UNL     1      32.636 -12.463 -22.254  0.00  0.00    +0.002 C 
ATOM      2  C   UNL     1      33.252 -13.503 -21.559  0.00  0.00    +0.025 C 
ATOM      3  C   UNL     1      32.649 -12.452 -23.649  0.00  0.00    +0.001 C 
ATOM      4  C   UNL     1      33.880 -14.535 -22.258  0.00  0.00    +0.149 C 
ATOM      5  C   UNL     1      33.893 -14.525 -23.653  0.00  0.00    +0.052 C 
ATOM      6  C   UNL     1      33.277 -13.484 -24.349  0.00  0.00    +0.008 C 
ENDROOT
BRANCH   1  18
ATOM      7  O   UNL     1      29.597  -4.031 -24.548  0.00  0.00    -0.275 OA
ATOM      8  N   UNL     1      31.215  -7.809 -21.934  0.00  0.00    -0.290 N 
ATOM      9  N   UNL     1      30.920  -5.247 -23.080  0.00  0.00    -0.276 N 
ATOM     10  N   UNL     1      30.729  -9.327 -20.129  0.00  0.00    -0.229 NA
ATOM     11  C   UNL     1      31.197  -6.627 -21.060  0.00  0.00    +0.114 C 
ATOM     12  C   UNL     1      30.521  -7.669 -23.224  0.00  0.00    +0.114 C 
ATOM     13  C   UNL     1      31.663  -5.389 -21.826  0.00  0.00    +0.115 C 
ATOM     14  C   UNL     1      31.002  -6.416 -23.952  0.00  0.00    +0.115 C 
ATOM     15  C   UNL     1      31.279  -9.086 -21.366  0.00  0.00    +0.132 C 
ATOM     16  C   UNL     1      30.198  -4.124 -23.476  0.00  0.00    +0.226 C 
ATOM     17  C   UNL     1      31.915 -10.119 -22.081  0.00  0.00    +0.034 C 
ATOM     18  C   UNL     1      31.986 -11.393 -21.530  0.00  0.00    +0.004 C 
ATOM     19  C   UNL     1      30.167  -2.968 -22.509  0.00  0.00    +0.095 C 
ATOM     20  C   UNL     1      31.428 -11.636 -20.280  0.00  0.00    +0.021 C 
ATOM     21  C   UNL     1      30.818 -10.578 -19.626  0.00  0.00    +0.100 C 
ENDBRANCH   1  18
BRANCH   4  24
ATOM     22  O   UNL     1      34.944 -16.575 -22.116  0.00  0.00    -0.126 OA
ATOM     23  O   UNL     1      34.570 -15.459 -20.262  0.00  0.00    -0.126 OA
ATOM     24  N   UNL     1      34.495 -15.576 -21.507  0.00  0.00    +0.058 N 
ENDBRANCH   4  24
BRANCH   5  25
ATOM     25  S   UNL     1      34.680 -15.816 -24.612  0.00  0.00    -0.082 S 
BRANCH  25  26
ATOM     26  C   UNL     1      33.354 -16.279 -25.714  0.00  0.00    +0.063 C 
ATOM     27  C   UNL     1      32.665 -17.483 -25.559  0.00  0.00    +0.144 C 
ATOM     28  C   UNL     1      33.009 -15.408 -26.750  0.00  0.00    +0.010 C 
ATOM     29  C   UNL     1      31.634 -17.816 -26.437  0.00  0.00    +0.037 C 
ATOM     30  C   UNL     1      31.977 -15.742 -27.628  0.00  0.00    +0.001 C 
ATOM     31  C   UNL     1      31.290 -16.945 -27.473  0.00  0.00    +0.003 C 
BRANCH  27  32
ATOM     32  O   UNL     1      32.972 -18.357 -24.559  0.00  0.00    -0.475 OA
BRANCH  32  33
ATOM     33  C   UNL     1      33.999 -19.310 -24.824  0.00  0.00    +0.206 C 
ATOM     34  C   UNL     1      34.800 -19.536 -23.560  0.00  0.00    +0.051 C 
ENDBRANCH  32  33
ENDBRANCH  27  32
ENDBRANCH  25  26
ENDBRANCH   5  25
TORSDOF 6
ENDMDL
MODEL 5
REMARK VINA RESULT:     -10.7      7.965     13.006
REMARK  Name = 448317
REMARK  6 active torsions:
REMARK  status: ('A' for Active; 'I' for Inactive)
REMARK    1  A    between atoms: C_1  and  C_18
REMARK    2  A    between atoms: C_4  and  N_24
REMARK    3  A    between atoms: C_5  and  S_25
REMARK    4  A    between atoms: S_25  and  C_26
REMARK    5  A    between atoms: C_27  and  O_32
REMARK    6  A    between atoms: O_32  and  C_33
REMARK                            x       y       z     vdW  Elec       q    Type
REMARK                         _______ _______ _______ _____ _____    ______ ____
ROOT
ATOM      1  C   UNL     1      32.669 -12.641 -22.242  0.00  0.00    +0.002 C 
ATOM      2  C   UNL     1      33.326 -13.661 -21.554  0.00  0.00    +0.025 C 
ATOM      3  C   UNL     1      32.631 -12.652 -23.636  0.00  0.00    +0.001 C 
ATOM      4  C   UNL     1      33.944 -14.693 -22.260  0.00  0.00    +0.149 C 
ATOM      5  C   UNL     1      33.907 -14.704 -23.654  0.00  0.00    +0.052 C 
ATOM      6  C   UNL     1      33.250 -13.684 -24.343  0.00  0.00    +0.008 C 
ENDROOT
BRANCH   1  18
ATOM      7  O   UNL     1      29.626  -4.200 -24.500  0.00  0.00    -0.275 OA
ATOM      8  N   UNL     1      31.262  -7.984 -21.904  0.00  0.00    -0.290 N 
ATOM      9  N   UNL     1      30.961  -5.421 -23.045  0.00  0.00    -0.276 N 
ATOM     10  N   UNL     1      30.789  -9.502 -20.096  0.00  0.00    -0.229 NA
ATOM     11  C   UNL     1      31.254  -6.803 -21.030  0.00  0.00    +0.114 C 
ATOM     12  C   UNL     1      30.556  -7.841 -23.187  0.00  0.00    +0.114 C 
ATOM     13  C   UNL     1      31.716  -5.566 -21.799  0.00  0.00    +0.115 C 
ATOM     14  C   UNL     1      31.032  -6.589 -23.919  0.00  0.00    +0.115 C 
ATOM     15  C   UNL     1      31.328  -9.262 -21.337  0.00  0.00    +0.132 C 
ATOM     16  C   UNL     1      30.238  -4.296 -23.433  0.00  0.00    +0.226 C 
ATOM     17  C   UNL     1      31.955 -10.295 -22.060  0.00  0.00    +0.034 C 
ATOM     18  C   UNL     1      32.028 -11.571 -21.511  0.00  0.00    +0.004 C 
ATOM     19  C   UNL     1      30.219  -3.140 -22.465  0.00  0.00    +0.095 C 
ATOM     20  C   UNL     1      31.482 -11.813 -20.255  0.00  0.00    +0.021 C 
ATOM     21  C   UNL     1      30.880 -10.754 -19.594  0.00  0.00    +0.100 C 
ENDBRANCH   1  18
BRANCH   4  24
ATOM     22  O   UNL     1      35.130 -16.667 -22.135  0.00  0.00    -0.126 OA
ATOM     23  O   UNL     1      34.637 -15.623 -20.267  0.00  0.00    -0.126 OA
ATOM     24  N   UNL     1      34.604 -15.713 -21.516  0.00  0.00    +0.058 N 
ENDBRANCH   4  24
BRANCH   5  25
ATOM     25  S   UNL     1      34.680 -15.999 -24.622  0.00  0.00    -0.082 S 
BRANCH  25  26
ATOM     26  C   UNL     1      33.336 -16.467 -25.699  0.00  0.00    +0.063 C 
ATOM     27  C   UNL     1      33.061 -15.758 -26.870  0.00  0.00    +0.144 C 
ATOM     28  C   UNL     1      32.549 -17.567 -25.351  0.00  0.00    +0.010 C 
ATOM     29  C   UNL     1      32.003 -16.148 -27.691  0.00  0.00    +0.037 C 
ATOM     30  C   UNL     1      31.491 -17.957 -26.173  0.00  0.00    +0.001 C 
ATOM     31  C   UNL     1      31.217 -17.248 -27.343  0.00  0.00    +0.003 C 
BRANCH  27  32
ATOM     32  O   UNL     1      33.808 -14.681 -27.243  0.00  0.00    -0.475 OA
BRANCH  32  33
ATOM     33  C   UNL     1      33.104 -13.546 -27.742  0.00  0.00    +0.206 C 
ATOM     34  C   UNL     1      34.034 -12.351 -27.746  0.00  0.00    +0.051 C 
ENDBRANCH  32  33
ENDBRANCH  27  32
ENDBRANCH  25  26
ENDBRANCH   5  25
TORSDOF 6
ENDMDL
MODEL 6
REMARK VINA RESULT:     -10.3      7.694     13.618
REMARK  Name = 448317
REMARK  6 active torsions:
REMARK  status: ('A' for Active; 'I' for Inactive)
REMARK    1  A    between atoms: C_1  and  C_18
REMARK    2  A    between atoms: C_4  and  N_24
REMARK    3  A    between atoms: C_5  and  S_25
REMARK    4  A    between atoms: S_25  and  C_26
REMARK    5  A    between atoms: C_27  and  O_32
REMARK    6  A    between atoms: O_32  and  C_33
REMARK                            x       y       z     vdW  Elec       q    Type
REMARK                         _______ _______ _______ _____ _____    ______ ____
ROOT
ATOM      1  C   UNL     1      32.595 -12.299 -23.258  0.00  0.00    +0.002 C 
ATOM      2  C   UNL     1      32.646 -12.063 -24.632  0.00  0.00    +0.025 C 
ATOM      3  C   UNL     1      33.166 -13.455 -22.728  0.00  0.00    +0.001 C 
ATOM      4  C   UNL     1      33.269 -12.984 -25.476  0.00  0.00    +0.149 C 
ATOM      5  C   UNL     1      33.839 -14.140 -24.946  0.00  0.00    +0.052 C 
ATOM      6  C   UNL     1      33.789 -14.377 -23.571  0.00  0.00    +0.008 C 
ENDROOT
BRANCH   1  18
ATOM      7  O   UNL     1      29.482  -3.651 -24.315  0.00  0.00    -0.275 OA
ATOM      8  N   UNL     1      31.156  -7.745 -22.274  0.00  0.00    -0.290 N 
ATOM      9  N   UNL     1      30.831  -5.051 -23.048  0.00  0.00    -0.276 N 
ATOM     10  N   UNL     1      30.703  -9.502 -20.692  0.00  0.00    -0.229 NA
ATOM     11  C   UNL     1      31.144  -6.696 -21.244  0.00  0.00    +0.114 C 
ATOM     12  C   UNL     1      30.443  -7.431 -23.522  0.00  0.00    +0.114 C 
ATOM     13  C   UNL     1      31.593  -5.361 -21.836  0.00  0.00    +0.115 C 
ATOM     14  C   UNL     1      30.907  -6.086 -24.076  0.00  0.00    +0.115 C 
ATOM     15  C   UNL     1      31.234  -9.088 -21.890  0.00  0.00    +0.132 C 
ATOM     16  C   UNL     1      30.099  -3.888 -23.274  0.00  0.00    +0.226 C 
ATOM     17  C   UNL     1      31.865 -10.006 -22.751  0.00  0.00    +0.034 C 
ATOM     18  C   UNL     1      31.950 -11.345 -22.384  0.00  0.00    +0.004 C 
ATOM     19  C   UNL     1      30.076  -2.878 -22.155  0.00  0.00    +0.095 C 
ATOM     20  C   UNL     1      31.412 -11.763 -21.172  0.00  0.00    +0.021 C 
ATOM     21  C   UNL     1      30.805 -10.811 -20.369  0.00  0.00    +0.100 C 
ENDBRANCH   1  18
BRANCH   4  24
ATOM     22  O   UNL     1      32.407 -13.195 -27.605  0.00  0.00    -0.126 OA
ATOM     23  O   UNL     1      34.208 -11.970 -27.322  0.00  0.00    -0.126 OA
ATOM     24  N   UNL     1      33.296 -12.702 -26.872  0.00  0.00    +0.058 N 
ENDBRANCH   4  24
BRANCH   5  25
ATOM     25  S   UNL     1      34.654 -15.362 -25.971  0.00  0.00    -0.082 S 
BRANCH  25  26
ATOM     26  C   UNL     1      33.469 -16.697 -25.915  0.00  0.00    +0.063 C 
ATOM     27  C   UNL     1      33.692 -17.835 -25.139  0.00  0.00    +0.144 C 
ATOM     28  C   UNL     1      32.300 -16.588 -26.671  0.00  0.00    +0.010 C 
ATOM     29  C   UNL     1      32.748 -18.861 -25.116  0.00  0.00    +0.037 C 
ATOM     30  C   UNL     1      31.355 -17.615 -26.648  0.00  0.00    +0.001 C 
ATOM     31  C   UNL     1      31.579 -18.752 -25.871  0.00  0.00    +0.003 C 
BRANCH  27  32
ATOM     32  O   UNL     1      34.820 -17.976 -24.387  0.00  0.00    -0.475 OA
BRANCH  32  33
ATOM     33  C   UNL     1      34.789 -18.951 -23.347  0.00  0.00    +0.206 C 
ATOM     34  C   UNL     1      34.855 -18.248 -22.009  0.00  0.00    +0.051 C 
ENDBRANCH  32  33
ENDBRANCH  27  32
ENDBRANCH  25  26
ENDBRANCH   5  25
TORSDOF 6
ENDMDL
MODEL 7
REMARK VINA RESULT:     -10.1      1.423      2.281
REMARK  Name = 448317
REMARK  6 active torsions:
REMARK  status: ('A' for Active; 'I' for Inactive)
REMARK    1  A    between atoms: C_1  and  C_18
REMARK    2  A    between atoms: C_4  and  N_24
REMARK    3  A    between atoms: C_5  and  S_25
REMARK    4  A    between atoms: S_25  and  C_26
REMARK    5  A    between atoms: C_27  and  O_32
REMARK    6  A    between atoms: O_32  and  C_33
REMARK                            x       y       z     vdW  Elec       q    Type
REMARK                         _______ _______ _______ _____ _____    ______ ____
ROOT
ATOM      1  C   UNL     1      33.955 -20.608 -20.134  0.00  0.00    +0.002 C 
ATOM      2  C   UNL     1      35.313 -20.353 -20.319  0.00  0.00    +0.025 C 
ATOM      3  C   UNL     1      33.014 -20.018 -20.978  0.00  0.00    +0.001 C 
ATOM      4  C   UNL     1      35.732 -19.511 -21.349  0.00  0.00    +0.149 C 
ATOM      5  C   UNL     1      34.792 -18.921 -22.193  0.00  0.00    +0.052 C 
ATOM      6  C   UNL     1      33.432 -19.175 -22.009  0.00  0.00    +0.008 C 
ENDROOT
BRANCH   1  18
ATOM      7  O   UNL     1      37.966 -23.953 -12.498  0.00  0.00    -0.275 OA
ATOM      8  N   UNL     1      34.966 -23.450 -16.302  0.00  0.00    -0.290 N 
ATOM      9  N   UNL     1      36.808 -24.491 -14.436  0.00  0.00    -0.276 N 
ATOM     10  N   UNL     1      32.680 -23.169 -17.003  0.00  0.00    -0.229 NA
ATOM     11  C   UNL     1      34.709 -24.762 -15.693  0.00  0.00    +0.114 C 
ATOM     12  C   UNL     1      35.803 -22.527 -15.519  0.00  0.00    +0.114 C 
ATOM     13  C   UNL     1      36.021 -25.414 -15.256  0.00  0.00    +0.115 C 
ATOM     14  C   UNL     1      37.096 -23.217 -15.089  0.00  0.00    +0.115 C 
ATOM     15  C   UNL     1      34.016 -22.892 -17.166  0.00  0.00    +0.132 C 
ATOM     16  C   UNL     1      37.289 -24.748 -13.155  0.00  0.00    +0.226 C 
ATOM     17  C   UNL     1      34.452 -22.044 -18.201  0.00  0.00    +0.034 C 
ATOM     18  C   UNL     1      33.520 -21.481 -19.066  0.00  0.00    +0.004 C 
ATOM     19  C   UNL     1      36.940 -26.089 -12.560  0.00  0.00    +0.095 C 
ATOM     20  C   UNL     1      32.169 -21.761 -18.900  0.00  0.00    +0.021 C 
ATOM     21  C   UNL     1      31.803 -22.604 -17.864  0.00  0.00    +0.100 C 
ENDBRANCH   1  18
BRANCH   4  24
ATOM     22  O   UNL     1      37.547 -18.787 -22.574  0.00  0.00    -0.126 OA
ATOM     23  O   UNL     1      37.896 -19.575 -20.554  0.00  0.00    -0.126 OA
ATOM     24  N   UNL     1      37.129 -19.279 -21.500  0.00  0.00    +0.058 N 
ENDBRANCH   4  24
BRANCH   5  25
ATOM     25  S   UNL     1      35.261 -17.830 -23.534  0.00  0.00    -0.082 S 
BRANCH  25  26
ATOM     26  C   UNL     1      33.862 -18.015 -24.628  0.00  0.00    +0.063 C 
ATOM     27  C   UNL     1      33.117 -16.913 -25.049  0.00  0.00    +0.144 C 
ATOM     28  C   UNL     1      33.517 -19.297 -25.064  0.00  0.00    +0.010 C 
ATOM     29  C   UNL     1      32.029 -17.091 -25.904  0.00  0.00    +0.037 C 
ATOM     30  C   UNL     1      32.428 -19.474 -25.919  0.00  0.00    +0.001 C 
ATOM     31  C   UNL     1      31.684 -18.372 -26.339  0.00  0.00    +0.003 C 
BRANCH  27  32
ATOM     32  O   UNL     1      33.425 -15.648 -24.647  0.00  0.00    -0.475 OA
BRANCH  32  33
ATOM     33  C   UNL     1      33.102 -14.586 -25.542  0.00  0.00    +0.206 C 
ATOM     34  C   UNL     1      33.077 -13.283 -24.774  0.00  0.00    +0.051 C 
ENDBRANCH  32  33
ENDBRANCH  27  32
ENDBRANCH  25  26
ENDBRANCH   5  25
TORSDOF 6
ENDMDL
MODEL 8
REMARK VINA RESULT:      -9.9      2.728      3.871
REMARK  Name = 448317
REMARK  6 active torsions:
REMARK  status: ('A' for Active; 'I' for Inactive)
REMARK    1  A    between atoms: C_1  and  C_18
REMARK    2  A    between atoms: C_4  and  N_24
REMARK    3  A    between atoms: C_5  and  S_25
REMARK    4  A    between atoms: S_25  and  C_26
REMARK    5  A    between atoms: C_27  and  O_32
REMARK    6  A    between atoms: O_32  and  C_33
REMARK                            x       y       z     vdW  Elec       q    Type
REMARK                         _______ _______ _______ _____ _____    ______ ____
ROOT
ATOM      1  C   UNL     1      35.562 -20.740 -19.583  0.00  0.00    +0.002 C 
ATOM      2  C   UNL     1      34.356 -20.544 -20.255  0.00  0.00    +0.025 C 
ATOM      3  C   UNL     1      36.731 -20.150 -20.062  0.00  0.00    +0.001 C 
ATOM      4  C   UNL     1      34.318 -19.755 -21.405  0.00  0.00    +0.149 C 
ATOM      5  C   UNL     1      35.487 -19.164 -21.884  0.00  0.00    +0.052 C 
ATOM      6  C   UNL     1      36.694 -19.360 -21.212  0.00  0.00    +0.008 C 
ENDROOT
BRANCH   1  18
ATOM      7  O   UNL     1      29.274 -25.689 -14.939  0.00  0.00    -0.275 OA
ATOM      8  N   UNL     1      33.274 -23.115 -15.991  0.00  0.00    -0.290 N 
ATOM      9  N   UNL     1      30.897 -24.038 -14.781  0.00  0.00    -0.276 N 
ATOM     10  N   UNL     1      35.679 -23.138 -16.086  0.00  0.00    -0.229 NA
ATOM     11  C   UNL     1      33.243 -23.332 -14.538  0.00  0.00    +0.114 C 
ATOM     12  C   UNL     1      32.319 -23.908 -16.782  0.00  0.00    +0.114 C 
ATOM     13  C   UNL     1      31.815 -23.199 -14.008  0.00  0.00    +0.115 C 
ATOM     14  C   UNL     1      30.909 -23.762 -16.215  0.00  0.00    +0.115 C 
ATOM     15  C   UNL     1      34.472 -22.737 -16.607  0.00  0.00    +0.132 C 
ATOM     16  C   UNL     1      30.049 -25.011 -14.260  0.00  0.00    +0.226 C 
ATOM     17  C   UNL     1      34.419 -21.941 -17.767  0.00  0.00    +0.034 C 
ATOM     18  C   UNL     1      35.602 -21.558 -18.391  0.00  0.00    +0.004 C 
ATOM     19  C   UNL     1      30.108 -25.228 -12.769  0.00  0.00    +0.095 C 
ATOM     20  C   UNL     1      36.822 -21.964 -17.863  0.00  0.00    +0.021 C 
ATOM     21  C   UNL     1      36.807 -22.745 -16.719  0.00  0.00    +0.100 C 
ENDBRANCH   1  18
BRANCH   4  24
ATOM     22  O   UNL     1      33.052 -19.175 -23.244  0.00  0.00    -0.126 OA
ATOM     23  O   UNL     1      32.014 -19.843 -21.428  0.00  0.00    -0.126 OA
ATOM     24  N   UNL     1      33.064 -19.582 -22.059  0.00  0.00    +0.058 N 
ENDBRANCH   4  24
BRANCH   5  25
ATOM     25  S   UNL     1      35.509 -18.141 -23.354  0.00  0.00    -0.082 S 
BRANCH  25  26
ATOM     26  C   UNL     1      34.904 -16.593 -22.700  0.00  0.00    +0.063 C 
ATOM     27  C   UNL     1      34.407 -15.594 -23.538  0.00  0.00    +0.144 C 
ATOM     28  C   UNL     1      34.936 -16.391 -21.319  0.00  0.00    +0.010 C 
ATOM     29  C   UNL     1      33.942 -14.396 -22.997  0.00  0.00    +0.037 C 
ATOM     30  C   UNL     1      34.471 -15.192 -20.778  0.00  0.00    +0.001 C 
ATOM     31  C   UNL     1      33.974 -14.194 -21.616  0.00  0.00    +0.003 C 
BRANCH  27  32
ATOM     32  O   UNL     1      34.358 -15.757 -24.891  0.00  0.00    -0.475 OA
BRANCH  32  33
ATOM     33  C   UNL     1      33.085 -16.050 -25.463  0.00  0.00    +0.206 C 
ATOM     34  C   UNL     1      32.954 -15.314 -26.778  0.00  0.00    +0.051 C 
ENDBRANCH  32  33
ENDBRANCH  27  32
ENDBRANCH  25  26
ENDBRANCH   5  25
TORSDOF 6
ENDMDL
MODEL 9
REMARK VINA RESULT:      -9.5      7.668     12.560
REMARK  Name = 448317
REMARK  6 active torsions:
REMARK  status: ('A' for Active; 'I' for Inactive)
REMARK    1  A    between atoms: C_1  and  C_18
REMARK    2  A    between atoms: C_4  and  N_24
REMARK    3  A    between atoms: C_5  and  S_25
REMARK    4  A    between atoms: S_25  and  C_26
REMARK    5  A    between atoms: C_27  and  O_32
REMARK    6  A    between atoms: O_32  and  C_33
REMARK                            x       y       z     vdW  Elec       q    Type
REMARK                         _______ _______ _______ _____ _____    ______ ____
ROOT
ATOM      1  C   UNL     1      32.744 -10.165 -26.207  0.00  0.00    +0.002 C 
ATOM      2  C   UNL     1      31.791  -9.332 -26.793  0.00  0.00    +0.025 C 
ATOM      3  C   UNL     1      33.823  -9.614 -25.517  0.00  0.00    +0.001 C 
ATOM      4  C   UNL     1      31.915  -7.946 -26.686  0.00  0.00    +0.149 C 
ATOM      5  C   UNL     1      32.994  -7.394 -25.995  0.00  0.00    +0.052 C 
ATOM      6  C   UNL     1      33.948  -8.227 -25.410  0.00  0.00    +0.008 C 
ENDROOT
BRANCH   1  18
ATOM      7  O   UNL     1      34.554 -17.261 -20.553  0.00  0.00    -0.275 OA
ATOM      8  N   UNL     1      33.762 -14.652 -24.589  0.00  0.00    -0.290 N 
ATOM      9  N   UNL     1      34.910 -16.366 -22.664  0.00  0.00    -0.276 N 
ATOM     10  N   UNL     1      32.368 -14.378 -26.533  0.00  0.00    -0.229 NA
ATOM     11  C   UNL     1      34.214 -15.990 -24.995  0.00  0.00    +0.114 C 
ATOM     12  C   UNL     1      33.397 -14.496 -23.172  0.00  0.00    +0.114 C 
ATOM     13  C   UNL     1      35.321 -16.484 -24.065  0.00  0.00    +0.115 C 
ATOM     14  C   UNL     1      34.519 -15.014 -22.275  0.00  0.00    +0.115 C 
ATOM     15  C   UNL     1      33.118 -13.829 -25.520  0.00  0.00    +0.132 C 
ATOM     16  C   UNL     1      34.890 -17.399 -21.731  0.00  0.00    +0.226 C 
ATOM     17  C   UNL     1      33.251 -12.432 -25.401  0.00  0.00    +0.034 C 
ATOM     18  C   UNL     1      32.616 -11.601 -26.318  0.00  0.00    +0.004 C 
ATOM     19  C   UNL     1      35.307 -18.761 -22.225  0.00  0.00    +0.095 C 
ATOM     20  C   UNL     1      31.857 -12.157 -27.342  0.00  0.00    +0.021 C 
ATOM     21  C   UNL     1      31.766 -13.538 -27.406  0.00  0.00    +0.100 C 
ENDBRANCH   1  18
BRANCH   4  24
ATOM     22  O   UNL     1      29.851  -6.919 -26.681  0.00  0.00    -0.126 OA
ATOM     23  O   UNL     1      31.143  -6.660 -28.437  0.00  0.00    -0.126 OA
ATOM     24  N   UNL     1      30.919  -7.134 -27.299  0.00  0.00    +0.058 N 
ENDBRANCH   4  24
BRANCH   5  25
ATOM     25  S   UNL     1      33.214  -5.625 -25.821  0.00  0.00    -0.082 S 
BRANCH  25  26
ATOM     26  C   UNL     1      32.157  -5.288 -24.422  0.00  0.00    +0.063 C 
ATOM     27  C   UNL     1      31.029  -4.475 -24.541  0.00  0.00    +0.144 C 
ATOM     28  C   UNL     1      32.479  -5.854 -23.186  0.00  0.00    +0.010 C 
ATOM     29  C   UNL     1      30.224  -4.229 -23.429  0.00  0.00    +0.037 C 
ATOM     30  C   UNL     1      31.673  -5.608 -22.074  0.00  0.00    +0.001 C 
ATOM     31  C   UNL     1      30.546  -4.796 -22.195  0.00  0.00    +0.003 C 
BRANCH  27  32
ATOM     32  O   UNL     1      30.682  -3.906 -25.731  0.00  0.00    -0.475 OA
BRANCH  32  33
ATOM     33  C   UNL     1      29.517  -3.084 -25.741  0.00  0.00    +0.206 C 
ATOM     34  C   UNL     1      28.466  -3.731 -26.616  0.00  0.00    +0.051 C 
ENDBRANCH  32  33
ENDBRANCH  27  32
ENDBRANCH  25  26
ENDBRANCH   5  25
TORSDOF 6
ENDMDL
