MODEL 1
REMARK VINA RESULT:     -11.9      0.000      0.000
REMARK  Name = 445756
REMARK  6 active torsions:
REMARK  status: ('A' for Active; 'I' for Inactive)
REMARK    1  A    between atoms: C_3  and  C_11
REMARK    2  A    between atoms: C_6  and  C_22
REMARK    3  A    between atoms: C_11  and  N_12
REMARK    4  A    between atoms: C_22  and  N_23
REMARK    5  A    between atoms: N_23  and  C_25
REMARK    6  A    between atoms: C_30  and  C_33
REMARK                            x       y       z     vdW  Elec       q    Type
REMARK                         _______ _______ _______ _____ _____    ______ ____
ROOT
ATOM      1  N   UNL     1      32.794 -21.932 -18.581  0.00  0.00    -0.261 N 
ATOM      2  N   UNL     1      34.986 -22.294 -18.592  0.00  0.00    -0.392 NA
ATOM      3  C   UNL     1      34.891 -19.823 -21.394  0.00  0.00    -0.017 C 
ATOM      4  C   UNL     1      33.290 -21.139 -19.583  0.00  0.00    +0.079 C 
ATOM      5  C   UNL     1      34.661 -21.382 -19.569  0.00  0.00    +0.128 C 
ATOM      6  C   UNL     1      33.844 -22.603 -18.020  0.00  0.00    +0.183 C 
ATOM      7  C   UNL     1      35.485 -20.714 -20.491  0.00  0.00    +0.084 C 
ATOM      8  C   UNL     1      33.512 -19.599 -21.383  0.00  0.00    -0.005 C 
ATOM      9  C   UNL     1      32.678 -20.255 -20.473  0.00  0.00    +0.017 C 
ATOM     10  C   UNL     1      31.405 -22.038 -18.192  0.00  0.00    +0.120 C 
ENDROOT
BRANCH   3  11
ATOM     11  C   UNL     1      35.748 -19.100 -22.382  0.00  0.00    +0.120 C 
BRANCH  11  12
ATOM     12  N   UNL     1      34.944 -18.376 -23.372  0.00  0.00    -0.260 N 
ATOM     13  N   UNL     1      33.755 -18.004 -25.189  0.00  0.00    -0.394 NA
ATOM     14  C   UNL     1      34.598 -17.064 -23.292  0.00  0.00    +0.079 C 
ATOM     15  C   UNL     1      34.429 -18.904 -24.508  0.00  0.00    +0.164 C 
ATOM     16  C   UNL     1      33.850 -16.850 -24.447  0.00  0.00    +0.128 C 
ATOM     17  C   UNL     1      34.856 -16.066 -22.351  0.00  0.00    +0.017 C 
ATOM     18  C   UNL     1      34.623 -20.317 -24.894  0.00  0.00    +0.084 C 
ATOM     19  C   UNL     1      33.320 -15.572 -24.692  0.00  0.00    +0.086 C 
ATOM     20  C   UNL     1      34.322 -14.800 -22.613  0.00  0.00    -0.003 C 
ATOM     21  C   UNL     1      33.567 -14.555 -23.762  0.00  0.00    -0.019 C 
ENDBRANCH  11  12
ENDBRANCH   3  11
BRANCH   6  22
ATOM     22  C   UNL     1      33.664 -23.552 -16.903  0.00  0.00    +0.164 C 
BRANCH  22  23
ATOM     23  N   UNL     1      34.437 -23.253 -15.703  0.00  0.00    -0.326 N 
ATOM     24  H   UNL     1      34.049 -22.641 -15.037  0.00  0.00    +0.147 HD
BRANCH  23  25
ATOM     25  C   UNL     1      35.685 -23.784 -15.457  0.00  0.00    +0.045 C 
ATOM     26  C   UNL     1      36.859 -23.055 -15.748  0.00  0.00    +0.014 C 
ATOM     27  C   UNL     1      35.834 -25.075 -14.909  0.00  0.00    +0.014 C 
ATOM     28  C   UNL     1      38.121 -23.593 -15.501  0.00  0.00    +0.004 C 
ATOM     29  C   UNL     1      37.096 -25.613 -14.662  0.00  0.00    +0.004 C 
ATOM     30  C   UNL     1      38.240 -24.872 -14.959  0.00  0.00    +0.031 C 
BRANCH  30  33
ATOM     31  N   UNL     1      39.734 -26.800 -14.492  0.00  0.00    -0.343 N 
ATOM     32  N   UNL     1      40.614 -24.642 -14.662  0.00  0.00    -0.285 NA
ATOM     33  C   UNL     1      39.557 -25.434 -14.702  0.00  0.00    +0.117 C 
ATOM     34  H   UNL     1      40.635 -27.159 -14.321  0.00  0.00    +0.144 HD
ATOM     35  H   UNL     1      38.959 -27.406 -14.516  0.00  0.00    +0.144 HD
ATOM     36  H   UNL     1      41.507 -25.020 -14.488  0.00  0.00    +0.188 HD
ENDBRANCH  30  33
ENDBRANCH  23  25
ENDBRANCH  22  23
ENDBRANCH   6  22
TORSDOF 6
ENDMDL
MODEL 2
REMARK VINA RESULT:     -11.9      1.756     10.667
REMARK  Name = 445756
REMARK  6 active torsions:
REMARK  status: ('A' for Active; 'I' for Inactive)
REMARK    1  A    between atoms: C_3  and  C_11
REMARK    2  A    between atoms: C_6  and  C_22
REMARK    3  A    between atoms: C_11  and  N_12
REMARK    4  A    between atoms: C_22  and  N_23
REMARK    5  A    between atoms: N_23  and  C_25
REMARK    6  A    between atoms: C_30  and  C_33
REMARK                            x       y       z     vdW  Elec       q    Type
REMARK                         _______ _______ _______ _____ _____    ______ ____
ROOT
ATOM      1  N   UNL     1      34.243 -22.097 -18.631  0.00  0.00    -0.261 N 
ATOM      2  N   UNL     1      36.305 -21.951 -17.815  0.00  0.00    -0.392 NA
ATOM      3  C   UNL     1      34.762 -23.730 -14.913  0.00  0.00    -0.017 C 
ATOM      4  C   UNL     1      34.192 -22.696 -17.399  0.00  0.00    +0.079 C 
ATOM      5  C   UNL     1      35.492 -22.592 -16.910  0.00  0.00    +0.128 C 
ATOM      6  C   UNL     1      35.525 -21.668 -18.835  0.00  0.00    +0.183 C 
ATOM      7  C   UNL     1      35.790 -23.118 -15.642  0.00  0.00    +0.084 C 
ATOM      8  C   UNL     1      33.468 -23.819 -15.431  0.00  0.00    -0.005 C 
ATOM      9  C   UNL     1      33.153 -23.302 -16.691  0.00  0.00    +0.017 C 
ATOM     10  C   UNL     1      33.136 -21.948 -19.550  0.00  0.00    +0.120 C 
ENDROOT
BRANCH   3  11
ATOM     11  C   UNL     1      35.057 -24.297 -13.563  0.00  0.00    +0.120 C 
BRANCH  11  12
ATOM     12  N   UNL     1      36.498 -24.351 -13.300  0.00  0.00    -0.260 N 
ATOM     13  N   UNL     1      38.441 -23.906 -12.360  0.00  0.00    -0.394 NA
ATOM     14  C   UNL     1      37.389 -25.128 -13.971  0.00  0.00    +0.079 C 
ATOM     15  C   UNL     1      37.154 -23.639 -12.352  0.00  0.00    +0.164 C 
ATOM     16  C   UNL     1      38.607 -24.832 -13.364  0.00  0.00    +0.128 C 
ATOM     17  C   UNL     1      37.258 -26.037 -15.021  0.00  0.00    +0.017 C 
ATOM     18  C   UNL     1      36.471 -22.694 -11.444  0.00  0.00    +0.084 C 
ATOM     19  C   UNL     1      39.772 -25.473 -13.819  0.00  0.00    +0.086 C 
ATOM     20  C   UNL     1      38.428 -26.664 -15.462  0.00  0.00    -0.003 C 
ATOM     21  C   UNL     1      39.664 -26.388 -14.872  0.00  0.00    -0.019 C 
ENDBRANCH  11  12
ENDBRANCH   3  11
BRANCH   6  22
ATOM     22  C   UNL     1      35.934 -20.973 -20.072  0.00  0.00    +0.164 C 
BRANCH  22  23
ATOM     23  N   UNL     1      35.555 -19.567 -20.148  0.00  0.00    -0.326 N 
ATOM     24  H   UNL     1      35.570 -19.033 -19.320  0.00  0.00    +0.147 HD
BRANCH  23  25
ATOM     25  C   UNL     1      35.174 -18.949 -21.320  0.00  0.00    +0.045 C 
ATOM     26  C   UNL     1      34.660 -19.693 -22.403  0.00  0.00    +0.014 C 
ATOM     27  C   UNL     1      35.289 -17.552 -21.478  0.00  0.00    +0.014 C 
ATOM     28  C   UNL     1      34.277 -19.068 -23.589  0.00  0.00    +0.004 C 
ATOM     29  C   UNL     1      34.906 -16.927 -22.664  0.00  0.00    +0.004 C 
ATOM     30  C   UNL     1      34.401 -17.684 -23.720  0.00  0.00    +0.031 C 
BRANCH  30  33
ATOM     31  N   UNL     1      33.332 -15.811 -24.951  0.00  0.00    -0.343 N 
ATOM     32  N   UNL     1      34.275 -17.602 -26.119  0.00  0.00    -0.285 NA
ATOM     33  C   UNL     1      34.003 -17.033 -24.958  0.00  0.00    +0.117 C 
ATOM     34  H   UNL     1      33.072 -15.388 -25.801  0.00  0.00    +0.144 HD
ATOM     35  H   UNL     1      33.118 -15.372 -24.096  0.00  0.00    +0.144 HD
ATOM     36  H   UNL     1      34.006 -17.163 -26.958  0.00  0.00    +0.188 HD
ENDBRANCH  30  33
ENDBRANCH  23  25
ENDBRANCH  22  23
ENDBRANCH   6  22
TORSDOF 6
ENDMDL
MODEL 3
REMARK VINA RESULT:     -11.8      2.050     10.449
REMARK  Name = 445756
REMARK  6 active torsions:
REMARK  status: ('A' for Active; 'I' for Inactive)
REMARK    1  A    between atoms: C_3  and  C_11
REMARK    2  A    between atoms: C_6  and  C_22
REMARK    3  A    between atoms: C_11  and  N_12
REMARK    4  A    between atoms: C_22  and  N_23
REMARK    5  A    between atoms: N_23  and  C_25
REMARK    6  A    between atoms: C_30  and  C_33
REMARK                            x       y       z     vdW  Elec       q    Type
REMARK                         _______ _______ _______ _____ _____    ______ ____
ROOT
ATOM      1  N   UNL     1      32.444 -22.960 -16.851  0.00  0.00    -0.261 N 
ATOM      2  N   UNL     1      34.659 -23.082 -16.988  0.00  0.00    -0.392 NA
ATOM      3  C   UNL     1      34.316 -24.422 -13.516  0.00  0.00    -0.017 C 
ATOM      4  C   UNL     1      32.858 -23.468 -15.646  0.00  0.00    +0.079 C 
ATOM      5  C   UNL     1      34.245 -23.534 -15.757  0.00  0.00    +0.128 C 
ATOM      6  C   UNL     1      33.555 -22.746 -17.618  0.00  0.00    +0.183 C 
ATOM      7  C   UNL     1      34.996 -24.021 -14.674  0.00  0.00    +0.084 C 
ATOM      8  C   UNL     1      32.925 -24.344 -13.435  0.00  0.00    -0.005 C 
ATOM      9  C   UNL     1      32.161 -23.863 -14.504  0.00  0.00    +0.017 C 
ATOM     10  C   UNL     1      31.075 -22.700 -17.237  0.00  0.00    +0.120 C 
ENDROOT
BRANCH   3  11
ATOM     11  C   UNL     1      35.095 -24.944 -12.353  0.00  0.00    +0.120 C 
BRANCH  11  12
ATOM     12  N   UNL     1      36.525 -24.647 -12.479  0.00  0.00    -0.260 N 
ATOM     13  N   UNL     1      38.463 -23.655 -12.137  0.00  0.00    -0.394 NA
ATOM     14  C   UNL     1      37.396 -25.307 -13.288  0.00  0.00    +0.079 C 
ATOM     15  C   UNL     1      37.190 -23.673 -11.811  0.00  0.00    +0.164 C 
ATOM     16  C   UNL     1      38.610 -24.667 -13.057  0.00  0.00    +0.128 C 
ATOM     17  C   UNL     1      37.248 -26.374 -14.175  0.00  0.00    +0.017 C 
ATOM     18  C   UNL     1      36.530 -22.769 -10.847  0.00  0.00    +0.084 C 
ATOM     19  C   UNL     1      39.755 -25.105 -13.744  0.00  0.00    +0.086 C 
ATOM     20  C   UNL     1      38.398 -26.795 -14.850  0.00  0.00    -0.003 C 
ATOM     21  C   UNL     1      39.631 -26.173 -14.640  0.00  0.00    -0.019 C 
ENDBRANCH  11  12
ENDBRANCH   3  11
BRANCH   6  22
ATOM     22  C   UNL     1      33.471 -22.199 -18.987  0.00  0.00    +0.164 C 
BRANCH  22  23
ATOM     23  N   UNL     1      34.723 -21.677 -19.525  0.00  0.00    -0.326 N 
ATOM     24  H   UNL     1      35.563 -22.127 -19.274  0.00  0.00    +0.147 HD
BRANCH  23  25
ATOM     25  C   UNL     1      34.788 -20.587 -20.364  0.00  0.00    +0.045 C 
ATOM     26  C   UNL     1      36.000 -19.892 -20.565  0.00  0.00    +0.014 C 
ATOM     27  C   UNL     1      33.645 -20.125 -21.051  0.00  0.00    +0.014 C 
ATOM     28  C   UNL     1      36.066 -18.787 -21.413  0.00  0.00    +0.004 C 
ATOM     29  C   UNL     1      33.711 -19.020 -21.898  0.00  0.00    +0.004 C 
ATOM     30  C   UNL     1      34.920 -18.350 -22.079  0.00  0.00    +0.031 C 
BRANCH  30  33
ATOM     31  N   UNL     1      35.050 -17.346 -24.347  0.00  0.00    -0.343 N 
ATOM     32  N   UNL     1      34.996 -15.977 -22.454  0.00  0.00    -0.285 NA
ATOM     33  C   UNL     1      34.988 -17.197 -22.963  0.00  0.00    +0.117 C 
ATOM     34  H   UNL     1      35.096 -16.551 -24.926  0.00  0.00    +0.144 HD
ATOM     35  H   UNL     1      35.049 -18.247 -24.745  0.00  0.00    +0.144 HD
ATOM     36  H   UNL     1      35.042 -15.195 -23.050  0.00  0.00    +0.188 HD
ENDBRANCH  30  33
ENDBRANCH  23  25
ENDBRANCH  22  23
ENDBRANCH   6  22
TORSDOF 6
ENDMDL
MODEL 4
REMARK VINA RESULT:     -11.8      3.700      7.662
REMARK  Name = 445756
REMARK  6 active torsions:
REMARK  status: ('A' for Active; 'I' for Inactive)
REMARK    1  A    between atoms: C_3  and  C_11
REMARK    2  A    between atoms: C_6  and  C_22
REMARK    3  A    between atoms: C_11  and  N_12
REMARK    4  A    between atoms: C_22  and  N_23
REMARK    5  A    between atoms: N_23  and  C_25
REMARK    6  A    between atoms: C_30  and  C_33
REMARK                            x       y       z     vdW  Elec       q    Type
REMARK                         _______ _______ _______ _____ _____    ______ ____
ROOT
ATOM      1  N   UNL     1      34.035 -17.638 -25.142  0.00  0.00    -0.261 N 
ATOM      2  N   UNL     1      34.625 -16.114 -23.636  0.00  0.00    -0.392 NA
ATOM      3  C   UNL     1      32.637 -13.856 -25.853  0.00  0.00    -0.017 C 
ATOM      4  C   UNL     1      33.469 -16.464 -25.568  0.00  0.00    +0.079 C 
ATOM      5  C   UNL     1      33.852 -15.528 -24.611  0.00  0.00    +0.128 C 
ATOM      6  C   UNL     1      34.716 -17.378 -23.985  0.00  0.00    +0.183 C 
ATOM      7  C   UNL     1      33.430 -14.195 -24.749  0.00  0.00    +0.084 C 
ATOM      8  C   UNL     1      32.268 -14.818 -26.796  0.00  0.00    -0.005 C 
ATOM      9  C   UNL     1      32.678 -16.149 -26.674  0.00  0.00    +0.017 C 
ATOM     10  C   UNL     1      33.929 -18.920 -25.802  0.00  0.00    +0.120 C 
ENDROOT
BRANCH   3  11
ATOM     11  C   UNL     1      32.177 -12.445 -26.019  0.00  0.00    +0.120 C 
BRANCH  11  12
ATOM     12  N   UNL     1      33.290 -11.495 -25.927  0.00  0.00    -0.260 N 
ATOM     13  N   UNL     1      35.179 -10.478 -26.429  0.00  0.00    -0.394 NA
ATOM     14  C   UNL     1      33.423 -10.533 -24.977  0.00  0.00    +0.079 C 
ATOM     15  C   UNL     1      34.347 -11.437 -26.772  0.00  0.00    +0.164 C 
ATOM     16  C   UNL     1      34.619  -9.904 -25.311  0.00  0.00    +0.128 C 
ATOM     17  C   UNL     1      32.639 -10.157 -23.886  0.00  0.00    +0.017 C 
ATOM     18  C   UNL     1      34.506 -12.350 -27.922  0.00  0.00    +0.084 C 
ATOM     19  C   UNL     1      35.074  -8.834 -24.521  0.00  0.00    +0.086 C 
ATOM     20  C   UNL     1      33.108  -9.092 -23.110  0.00  0.00    -0.003 C 
ATOM     21  C   UNL     1      34.304  -8.440 -23.421  0.00  0.00    -0.019 C 
ENDBRANCH  11  12
ENDBRANCH   3  11
BRANCH   6  22
ATOM     22  C   UNL     1      35.450 -18.429 -23.253  0.00  0.00    +0.164 C 
BRANCH  22  23
ATOM     23  N   UNL     1      35.310 -18.387 -21.801  0.00  0.00    -0.326 N 
ATOM     24  H   UNL     1      35.642 -17.593 -21.322  0.00  0.00    +0.147 HD
BRANCH  23  25
ATOM     25  C   UNL     1      34.738 -19.404 -21.068  0.00  0.00    +0.045 C 
ATOM     26  C   UNL     1      33.337 -19.576 -21.027  0.00  0.00    +0.014 C 
ATOM     27  C   UNL     1      35.532 -20.308 -20.331  0.00  0.00    +0.014 C 
ATOM     28  C   UNL     1      32.759 -20.604 -20.283  0.00  0.00    +0.004 C 
ATOM     29  C   UNL     1      34.953 -21.336 -19.587  0.00  0.00    +0.004 C 
ATOM     30  C   UNL     1      33.567 -21.483 -19.563  0.00  0.00    +0.031 C 
BRANCH  30  33
ATOM     31  N   UNL     1      31.844 -22.329 -17.987  0.00  0.00    -0.343 N 
ATOM     32  N   UNL     1      33.481 -23.770 -18.827  0.00  0.00    -0.285 NA
ATOM     33  C   UNL     1      32.963 -22.555 -18.786  0.00  0.00    +0.117 C 
ATOM     34  H   UNL     1      31.451 -23.069 -17.469  0.00  0.00    +0.144 HD
ATOM     35  H   UNL     1      31.445 -21.430 -17.940  0.00  0.00    +0.144 HD
ATOM     36  H   UNL     1      33.073 -24.497 -18.302  0.00  0.00    +0.188 HD
ENDBRANCH  30  33
ENDBRANCH  23  25
ENDBRANCH  22  23
ENDBRANCH   6  22
TORSDOF 6
ENDMDL
MODEL 5
REMARK VINA RESULT:     -11.8      2.067      2.661
REMARK  Name = 445756
REMARK  6 active torsions:
REMARK  status: ('A' for Active; 'I' for Inactive)
REMARK    1  A    between atoms: C_3  and  C_11
REMARK    2  A    between atoms: C_6  and  C_22
REMARK    3  A    between atoms: C_11  and  N_12
REMARK    4  A    between atoms: C_22  and  N_23
REMARK    5  A    between atoms: N_23  and  C_25
REMARK    6  A    between atoms: C_30  and  C_33
REMARK                            x       y       z     vdW  Elec       q    Type
REMARK                         _______ _______ _______ _____ _____    ______ ____
ROOT
ATOM      1  N   UNL     1      33.268 -21.551 -19.106  0.00  0.00    -0.261 N 
ATOM      2  N   UNL     1      35.488 -21.541 -19.219  0.00  0.00    -0.392 NA
ATOM      3  C   UNL     1      34.845 -19.277 -22.123  0.00  0.00    -0.017 C 
ATOM      4  C   UNL     1      33.576 -20.742 -20.168  0.00  0.00    +0.079 C 
ATOM      5  C   UNL     1      34.968 -20.751 -20.218  0.00  0.00    +0.128 C 
ATOM      6  C   UNL     1      34.442 -22.005 -18.572  0.00  0.00    +0.183 C 
ATOM      7  C   UNL     1      35.623 -20.006 -21.213  0.00  0.00    +0.084 C 
ATOM      8  C   UNL     1      33.451 -19.287 -22.047  0.00  0.00    -0.005 C 
ATOM      9  C   UNL     1      32.782 -20.023 -21.063  0.00  0.00    +0.017 C 
ATOM     10  C   UNL     1      31.937 -21.867 -18.637  0.00  0.00    +0.120 C 
ENDROOT
BRANCH   3  11
ATOM     11  C   UNL     1      35.521 -18.477 -23.188  0.00  0.00    +0.120 C 
BRANCH  11  12
ATOM     12  N   UNL     1      34.807 -17.226 -23.463  0.00  0.00    -0.260 N 
ATOM     13  N   UNL     1      33.688 -15.694 -24.585  0.00  0.00    -0.394 NA
ATOM     14  C   UNL     1      34.587 -16.233 -22.561  0.00  0.00    +0.079 C 
ATOM     15  C   UNL     1      34.262 -16.875 -24.653  0.00  0.00    +0.164 C 
ATOM     16  C   UNL     1      33.881 -15.279 -23.288  0.00  0.00    +0.128 C 
ATOM     17  C   UNL     1      34.924 -16.078 -21.216  0.00  0.00    +0.017 C 
ATOM     18  C   UNL     1      34.326 -17.739 -25.849  0.00  0.00    +0.084 C 
ATOM     19  C   UNL     1      33.480 -14.092 -22.651  0.00  0.00    +0.086 C 
ATOM     20  C   UNL     1      34.518 -14.890 -20.599  0.00  0.00    -0.003 C 
ATOM     21  C   UNL     1      33.808 -13.913 -21.301  0.00  0.00    -0.019 C 
ENDBRANCH  11  12
ENDBRANCH   3  11
BRANCH   6  22
ATOM     22  C   UNL     1      34.477 -22.909 -17.404  0.00  0.00    +0.164 C 
BRANCH  22  23
ATOM     23  N   UNL     1      35.648 -22.769 -16.546  0.00  0.00    -0.326 N 
ATOM     24  H   UNL     1      36.476 -22.408 -16.940  0.00  0.00    +0.147 HD
BRANCH  23  25
ATOM     25  C   UNL     1      35.654 -23.119 -15.213  0.00  0.00    +0.045 C 
ATOM     26  C   UNL     1      34.475 -23.545 -14.565  0.00  0.00    +0.014 C 
ATOM     27  C   UNL     1      36.839 -23.062 -14.450  0.00  0.00    +0.014 C 
ATOM     28  C   UNL     1      34.481 -23.897 -13.216  0.00  0.00    +0.004 C 
ATOM     29  C   UNL     1      36.845 -23.414 -13.100  0.00  0.00    +0.004 C 
ATOM     30  C   UNL     1      35.666 -23.831 -12.483  0.00  0.00    +0.031 C 
BRANCH  30  33
ATOM     31  N   UNL     1      36.388 -23.456 -10.137  0.00  0.00    -0.343 N 
ATOM     32  N   UNL     1      34.992 -25.253 -10.667  0.00  0.00    -0.285 NA
ATOM     33  C   UNL     1      35.672 -24.197 -11.076  0.00  0.00    +0.117 C 
ATOM     34  H   UNL     1      36.378 -23.722  -9.188  0.00  0.00    +0.144 HD
ATOM     35  H   UNL     1      36.903 -22.667 -10.422  0.00  0.00    +0.144 HD
ATOM     36  H   UNL     1      34.994 -25.503  -9.714  0.00  0.00    +0.188 HD
ENDBRANCH  30  33
ENDBRANCH  23  25
ENDBRANCH  22  23
ENDBRANCH   6  22
TORSDOF 6
ENDMDL
MODEL 6
REMARK VINA RESULT:     -11.8      3.483      7.261
REMARK  Name = 445756
REMARK  6 active torsions:
REMARK  status: ('A' for Active; 'I' for Inactive)
REMARK    1  A    between atoms: C_3  and  C_11
REMARK    2  A    between atoms: C_6  and  C_22
REMARK    3  A    between atoms: C_11  and  N_12
REMARK    4  A    between atoms: C_22  and  N_23
REMARK    5  A    between atoms: N_23  and  C_25
REMARK    6  A    between atoms: C_30  and  C_33
REMARK                            x       y       z     vdW  Elec       q    Type
REMARK                         _______ _______ _______ _____ _____    ______ ____
ROOT
ATOM      1  N   UNL     1      34.643 -15.967 -21.445  0.00  0.00    -0.261 N 
ATOM      2  N   UNL     1      34.797 -16.577 -23.577  0.00  0.00    -0.392 NA
ATOM      3  C   UNL     1      32.911 -13.396 -24.119  0.00  0.00    -0.017 C 
ATOM      4  C   UNL     1      34.008 -14.981 -22.154  0.00  0.00    +0.079 C 
ATOM      5  C   UNL     1      34.118 -15.385 -23.482  0.00  0.00    +0.128 C 
ATOM      6  C   UNL     1      35.096 -16.898 -22.338  0.00  0.00    +0.183 C 
ATOM      7  C   UNL     1      33.560 -14.581 -24.491  0.00  0.00    +0.084 C 
ATOM      8  C   UNL     1      32.818 -13.018 -22.778  0.00  0.00    -0.005 C 
ATOM      9  C   UNL     1      33.367 -13.805 -21.761  0.00  0.00    +0.017 C 
ATOM     10  C   UNL     1      34.803 -16.012 -20.009  0.00  0.00    +0.120 C 
ENDROOT
BRANCH   3  11
ATOM     11  C   UNL     1      32.312 -12.526 -25.174  0.00  0.00    +0.120 C 
BRANCH  11  12
ATOM     12  N   UNL     1      33.315 -11.654 -25.794  0.00  0.00    -0.260 N 
ATOM     13  N   UNL     1      34.763 -10.906 -27.277  0.00  0.00    -0.394 NA
ATOM     14  C   UNL     1      33.798 -10.505 -25.251  0.00  0.00    +0.079 C 
ATOM     15  C   UNL     1      33.908 -11.863 -26.994  0.00  0.00    +0.164 C 
ATOM     16  C   UNL     1      34.708 -10.049 -26.201  0.00  0.00    +0.128 C 
ATOM     17  C   UNL     1      33.537  -9.834 -24.056  0.00  0.00    +0.017 C 
ATOM     18  C   UNL     1      33.602 -13.030 -27.846  0.00  0.00    +0.084 C 
ATOM     19  C   UNL     1      35.408  -8.855 -25.960  0.00  0.00    +0.086 C 
ATOM     20  C   UNL     1      34.244  -8.648 -23.833  0.00  0.00    -0.003 C 
ATOM     21  C   UNL     1      35.163  -8.165 -24.767  0.00  0.00    -0.019 C 
ENDBRANCH  11  12
ENDBRANCH   3  11
BRANCH   6  22
ATOM     22  C   UNL     1      35.832 -18.105 -21.909  0.00  0.00    +0.164 C 
BRANCH  22  23
ATOM     23  N   UNL     1      35.150 -19.370 -22.164  0.00  0.00    -0.326 N 
ATOM     24  H   UNL     1      35.059 -19.673 -23.097  0.00  0.00    +0.147 HD
BRANCH  23  25
ATOM     25  C   UNL     1      34.625 -20.160 -21.164  0.00  0.00    +0.045 C 
ATOM     26  C   UNL     1      33.244 -20.149 -20.874  0.00  0.00    +0.014 C 
ATOM     27  C   UNL     1      35.451 -21.006 -20.394  0.00  0.00    +0.014 C 
ATOM     28  C   UNL     1      32.714 -20.947 -19.861  0.00  0.00    +0.004 C 
ATOM     29  C   UNL     1      34.921 -21.804 -19.381  0.00  0.00    +0.004 C 
ATOM     30  C   UNL     1      33.553 -21.774 -19.114  0.00  0.00    +0.031 C 
BRANCH  30  33
ATOM     31  N   UNL     1      31.635 -22.609 -17.775  0.00  0.00    -0.343 N 
ATOM     32  N   UNL     1      33.799 -23.374 -17.337  0.00  0.00    -0.285 NA
ATOM     33  C   UNL     1      33.000 -22.605 -18.056  0.00  0.00    +0.117 C 
ATOM     34  H   UNL     1      31.282 -23.180 -17.055  0.00  0.00    +0.144 HD
ATOM     35  H   UNL     1      31.023 -22.041 -18.298  0.00  0.00    +0.144 HD
ATOM     36  H   UNL     1      33.427 -23.938 -16.621  0.00  0.00    +0.188 HD
ENDBRANCH  30  33
ENDBRANCH  23  25
ENDBRANCH  22  23
ENDBRANCH   6  22
TORSDOF 6
ENDMDL
MODEL 7
REMARK VINA RESULT:     -11.7      4.137      8.415
REMARK  Name = 445756
REMARK  6 active torsions:
REMARK  status: ('A' for Active; 'I' for Inactive)
REMARK    1  A    between atoms: C_3  and  C_11
REMARK    2  A    between atoms: C_6  and  C_22
REMARK    3  A    between atoms: C_11  and  N_12
REMARK    4  A    between atoms: C_22  and  N_23
REMARK    5  A    between atoms: N_23  and  C_25
REMARK    6  A    between atoms: C_30  and  C_33
REMARK                            x       y       z     vdW  Elec       q    Type
REMARK                         _______ _______ _______ _____ _____    ______ ____
ROOT
ATOM      1  N   UNL     1      33.998 -15.941 -24.523  0.00  0.00    -0.261 N 
ATOM      2  N   UNL     1      34.316 -14.492 -22.869  0.00  0.00    -0.392 NA
ATOM      3  C   UNL     1      33.045 -12.058 -25.405  0.00  0.00    -0.017 C 
ATOM      4  C   UNL     1      33.622 -14.723 -25.027  0.00  0.00    +0.079 C 
ATOM      5  C   UNL     1      33.830 -13.835 -23.975  0.00  0.00    +0.128 C 
ATOM      6  C   UNL     1      34.406 -15.752 -23.232  0.00  0.00    +0.183 C 
ATOM      7  C   UNL     1      33.537 -12.473 -24.160  0.00  0.00    +0.084 C 
ATOM      8  C   UNL     1      32.846 -12.974 -26.441  0.00  0.00    -0.005 C 
ATOM      9  C   UNL     1      33.131 -14.333 -26.274  0.00  0.00    +0.017 C 
ATOM     10  C   UNL     1      33.967 -17.200 -25.234  0.00  0.00    +0.120 C 
ENDROOT
BRANCH   3  11
ATOM     11  C   UNL     1      32.726 -10.616 -25.624  0.00  0.00    +0.120 C 
BRANCH  11  12
ATOM     12  N   UNL     1      33.388  -9.757 -24.637  0.00  0.00    -0.260 N 
ATOM     13  N   UNL     1      34.991  -8.624 -23.635  0.00  0.00    -0.394 NA
ATOM     14  C   UNL     1      32.784  -9.189 -23.560  0.00  0.00    +0.079 C 
ATOM     15  C   UNL     1      34.696  -9.403 -24.652  0.00  0.00    +0.164 C 
ATOM     16  C   UNL     1      33.810  -8.480 -22.942  0.00  0.00    +0.128 C 
ATOM     17  C   UNL     1      31.476  -9.223 -23.075  0.00  0.00    +0.017 C 
ATOM     18  C   UNL     1      35.636  -9.854 -25.698  0.00  0.00    +0.084 C 
ATOM     19  C   UNL     1      33.533  -7.756 -21.771  0.00  0.00    +0.086 C 
ATOM     20  C   UNL     1      31.219  -8.497 -21.908  0.00  0.00    -0.003 C 
ATOM     21  C   UNL     1      32.227  -7.775 -21.265  0.00  0.00    -0.019 C 
ENDBRANCH  11  12
ENDBRANCH   3  11
BRANCH   6  22
ATOM     22  C   UNL     1      34.882 -16.865 -22.387  0.00  0.00    +0.164 C 
BRANCH  22  23
ATOM     23  N   UNL     1      34.166 -18.125 -22.559  0.00  0.00    -0.326 N 
ATOM     24  H   UNL     1      33.650 -18.260 -23.387  0.00  0.00    +0.147 HD
BRANCH  23  25
ATOM     25  C   UNL     1      34.174 -19.133 -21.619  0.00  0.00    +0.045 C 
ATOM     26  C   UNL     1      32.971 -19.701 -21.148  0.00  0.00    +0.014 C 
ATOM     27  C   UNL     1      35.385 -19.630 -21.093  0.00  0.00    +0.014 C 
ATOM     28  C   UNL     1      32.980 -20.720 -20.196  0.00  0.00    +0.004 C 
ATOM     29  C   UNL     1      35.394 -20.648 -20.141  0.00  0.00    +0.004 C 
ATOM     30  C   UNL     1      34.191 -21.193 -19.692  0.00  0.00    +0.031 C 
BRANCH  30  33
ATOM     31  N   UNL     1      33.106 -23.101 -18.531  0.00  0.00    -0.343 N 
ATOM     32  N   UNL     1      35.260 -22.426 -17.927  0.00  0.00    -0.285 NA
ATOM     33  C   UNL     1      34.200 -22.254 -18.697  0.00  0.00    +0.117 C 
ATOM     34  H   UNL     1      33.134 -23.814 -17.852  0.00  0.00    +0.144 HD
ATOM     35  H   UNL     1      32.306 -22.988 -19.093  0.00  0.00    +0.144 HD
ATOM     36  H   UNL     1      35.268 -23.144 -17.253  0.00  0.00    +0.188 HD
ENDBRANCH  30  33
ENDBRANCH  23  25
ENDBRANCH  22  23
ENDBRANCH   6  22
TORSDOF 6
ENDMDL
MODEL 8
REMARK VINA RESULT:     -11.6      1.814     10.478
REMARK  Name = 445756
REMARK  6 active torsions:
REMARK  status: ('A' for Active; 'I' for Inactive)
REMARK    1  A    between atoms: C_3  and  C_11
REMARK    2  A    between atoms: C_6  and  C_22
REMARK    3  A    between atoms: C_11  and  N_12
REMARK    4  A    between atoms: C_22  and  N_23
REMARK    5  A    between atoms: N_23  and  C_25
REMARK    6  A    between atoms: C_30  and  C_33
REMARK                            x       y       z     vdW  Elec       q    Type
REMARK                         _______ _______ _______ _____ _____    ______ ____
ROOT
ATOM      1  N   UNL     1      34.073 -21.513 -19.314  0.00  0.00    -0.261 N 
ATOM      2  N   UNL     1      36.051 -21.845 -18.358  0.00  0.00    -0.392 NA
ATOM      3  C   UNL     1      34.004 -23.814 -15.929  0.00  0.00    -0.017 C 
ATOM      4  C   UNL     1      33.822 -22.295 -18.217  0.00  0.00    +0.079 C 
ATOM      5  C   UNL     1      35.073 -22.489 -17.637  0.00  0.00    +0.128 C 
ATOM      6  C   UNL     1      35.418 -21.270 -19.356  0.00  0.00    +0.183 C 
ATOM      7  C   UNL     1      35.174 -23.264 -16.469  0.00  0.00    +0.084 C 
ATOM      8  C   UNL     1      32.764 -23.603 -16.535  0.00  0.00    -0.005 C 
ATOM      9  C   UNL     1      32.644 -22.835 -17.697  0.00  0.00    +0.017 C 
ATOM     10  C   UNL     1      33.088 -21.032 -20.257  0.00  0.00    +0.120 C 
ENDROOT
BRANCH   3  11
ATOM     11  C   UNL     1      34.088 -24.642 -14.689  0.00  0.00    +0.120 C 
BRANCH  11  12
ATOM     12  N   UNL     1      35.475 -24.982 -14.355  0.00  0.00    -0.260 N 
ATOM     13  N   UNL     1      37.413 -26.028 -14.413  0.00  0.00    -0.394 NA
ATOM     14  C   UNL     1      36.234 -24.349 -13.420  0.00  0.00    +0.079 C 
ATOM     15  C   UNL     1      36.203 -25.972 -14.924  0.00  0.00    +0.164 C 
ATOM     16  C   UNL     1      37.450 -25.024 -13.473  0.00  0.00    +0.128 C 
ATOM     17  C   UNL     1      35.986 -23.282 -12.556  0.00  0.00    +0.017 C 
ATOM     18  C   UNL     1      35.669 -26.852 -15.983  0.00  0.00    +0.084 C 
ATOM     19  C   UNL     1      38.493 -24.622 -12.621  0.00  0.00    +0.086 C 
ATOM     20  C   UNL     1      37.035 -22.898 -11.714  0.00  0.00    -0.003 C 
ATOM     21  C   UNL     1      38.267 -23.554 -11.745  0.00  0.00    -0.019 C 
ENDBRANCH  11  12
ENDBRANCH   3  11
BRANCH   6  22
ATOM     22  C   UNL     1      36.036 -20.451 -20.418  0.00  0.00    +0.164 C 
BRANCH  22  23
ATOM     23  N   UNL     1      35.623 -19.053 -20.443  0.00  0.00    -0.326 N 
ATOM     24  H   UNL     1      35.645 -18.543 -19.601  0.00  0.00    +0.147 HD
BRANCH  23  25
ATOM     25  C   UNL     1      35.201 -18.410 -21.587  0.00  0.00    +0.045 C 
ATOM     26  C   UNL     1      34.959 -19.126 -22.780  0.00  0.00    +0.014 C 
ATOM     27  C   UNL     1      35.000 -17.014 -21.607  0.00  0.00    +0.014 C 
ATOM     28  C   UNL     1      34.535 -18.475 -23.937  0.00  0.00    +0.004 C 
ATOM     29  C   UNL     1      34.576 -16.363 -22.765  0.00  0.00    +0.004 C 
ATOM     30  C   UNL     1      34.344 -17.093 -23.930  0.00  0.00    +0.031 C 
BRANCH  30  33
ATOM     31  N   UNL     1      33.089 -15.285 -25.079  0.00  0.00    -0.343 N 
ATOM     32  N   UNL     1      34.272 -16.870 -26.322  0.00  0.00    -0.285 NA
ATOM     33  C   UNL     1      33.903 -16.414 -25.138  0.00  0.00    +0.117 C 
ATOM     34  H   UNL     1      32.802 -14.840 -25.910  0.00  0.00    +0.144 HD
ATOM     35  H   UNL     1      32.801 -14.931 -24.207  0.00  0.00    +0.144 HD
ATOM     36  H   UNL     1      33.975 -16.412 -27.142  0.00  0.00    +0.188 HD
ENDBRANCH  30  33
ENDBRANCH  23  25
ENDBRANCH  22  23
ENDBRANCH   6  22
TORSDOF 6
ENDMDL
MODEL 9
REMARK VINA RESULT:     -11.5      3.940      7.752
REMARK  Name = 445756
REMARK  6 active torsions:
REMARK  status: ('A' for Active; 'I' for Inactive)
REMARK    1  A    between atoms: C_3  and  C_11
REMARK    2  A    between atoms: C_6  and  C_22
REMARK    3  A    between atoms: C_11  and  N_12
REMARK    4  A    between atoms: C_22  and  N_23
REMARK    5  A    between atoms: N_23  and  C_25
REMARK    6  A    between atoms: C_30  and  C_33
REMARK                            x       y       z     vdW  Elec       q    Type
REMARK                         _______ _______ _______ _____ _____    ______ ____
ROOT
ATOM      1  N   UNL     1      34.488 -16.157 -22.279  0.00  0.00    -0.261 N 
ATOM      2  N   UNL     1      33.909 -16.386 -24.412  0.00  0.00    -0.392 NA
ATOM      3  C   UNL     1      33.476 -12.680 -24.189  0.00  0.00    -0.017 C 
ATOM      4  C   UNL     1      34.194 -14.892 -22.716  0.00  0.00    +0.079 C 
ATOM      5  C   UNL     1      33.835 -15.061 -24.051  0.00  0.00    +0.128 C 
ATOM      6  C   UNL     1      34.303 -17.015 -23.327  0.00  0.00    +0.183 C 
ATOM      7  C   UNL     1      33.468 -13.937 -24.809  0.00  0.00    +0.084 C 
ATOM      8  C   UNL     1      33.842 -12.543 -22.849  0.00  0.00    -0.005 C 
ATOM      9  C   UNL     1      34.210 -13.650 -22.078  0.00  0.00    +0.017 C 
ATOM     10  C   UNL     1      34.918 -16.517 -20.946  0.00  0.00    +0.120 C 
ENDROOT
BRANCH   3  11
ATOM     11  C   UNL     1      33.091 -11.472 -24.977  0.00  0.00    +0.120 C 
BRANCH  11  12
ATOM     12  N   UNL     1      33.531 -10.234 -24.325  0.00  0.00    -0.260 N 
ATOM     13  N   UNL     1      34.809  -8.512 -23.820  0.00  0.00    -0.394 NA
ATOM     14  C   UNL     1      32.824  -9.547 -23.390  0.00  0.00    +0.079 C 
ATOM     15  C   UNL     1      34.703  -9.595 -24.557  0.00  0.00    +0.164 C 
ATOM     16  C   UNL     1      33.647  -8.466 -23.085  0.00  0.00    +0.128 C 
ATOM     17  C   UNL     1      31.579  -9.755 -22.794  0.00  0.00    +0.017 C 
ATOM     18  C   UNL     1      35.705 -10.085 -25.525  0.00  0.00    +0.084 C 
ATOM     19  C   UNL     1      33.217  -7.527 -22.131  0.00  0.00    +0.086 C 
ATOM     20  C   UNL     1      31.169  -8.811 -21.847  0.00  0.00    -0.003 C 
ATOM     21  C   UNL     1      31.972  -7.715 -21.520  0.00  0.00    -0.019 C 
ENDBRANCH  11  12
ENDBRANCH   3  11
BRANCH   6  22
ATOM     22  C   UNL     1      34.532 -18.469 -23.204  0.00  0.00    +0.164 C 
BRANCH  22  23
ATOM     23  N   UNL     1      33.476 -19.207 -22.520  0.00  0.00    -0.326 N 
ATOM     24  H   UNL     1      32.557 -19.141 -22.870  0.00  0.00    +0.147 HD
BRANCH  23  25
ATOM     25  C   UNL     1      33.699 -19.991 -21.409  0.00  0.00    +0.045 C 
ATOM     26  C   UNL     1      35.009 -20.314 -20.995  0.00  0.00    +0.014 C 
ATOM     27  C   UNL     1      32.626 -20.499 -20.647  0.00  0.00    +0.014 C 
ATOM     28  C   UNL     1      35.235 -21.109 -19.872  0.00  0.00    +0.004 C 
ATOM     29  C   UNL     1      32.852 -21.294 -19.524  0.00  0.00    +0.004 C 
ATOM     30  C   UNL     1      34.156 -21.599 -19.137  0.00  0.00    +0.031 C 
BRANCH  30  33
ATOM     31  N   UNL     1      33.378 -23.211 -17.415  0.00  0.00    -0.343 N 
ATOM     32  N   UNL     1      35.587 -22.448 -17.401  0.00  0.00    -0.285 NA
ATOM     33  C   UNL     1      34.392 -22.429 -17.966  0.00  0.00    +0.117 C 
ATOM     34  H   UNL     1      33.560 -23.766 -16.622  0.00  0.00    +0.144 HD
ATOM     35  H   UNL     1      32.481 -23.209 -17.820  0.00  0.00    +0.144 HD
ATOM     36  H   UNL     1      35.748 -23.009 -16.608  0.00  0.00    +0.188 HD
ENDBRANCH  30  33
ENDBRANCH  23  25
ENDBRANCH  22  23
ENDBRANCH   6  22
TORSDOF 6
ENDMDL
