MODEL 1
REMARK VINA RESULT:     -13.8      0.000      0.000
REMARK  Name = 25049750
REMARK  7 active torsions:
REMARK  status: ('A' for Active; 'I' for Inactive)
REMARK    1  A    between atoms: C_1  and  C_14
REMARK    2  A    between atoms: C_6  and  O_20
REMARK    3  A    between atoms: C_10  and  C_17
REMARK    4  A    between atoms: C_17  and  O_18
REMARK    5  A    between atoms: O_20  and  C_21
REMARK    6  A    between atoms: C_21  and  C_23
REMARK    7  A    between atoms: C_27  and  C_32
REMARK                            x       y       z     vdW  Elec       q    Type
REMARK                         _______ _______ _______ _____ _____    ______ ____
ROOT
ATOM      1  C   UNL     1      34.531 -19.980 -21.578  0.00  0.00    -0.004 C 
ATOM      2  C   UNL     1      33.158 -19.878 -21.344  0.00  0.00    +0.000 C 
ATOM      3  C   UNL     1      35.326 -20.749 -20.729  0.00  0.00    +0.000 C 
ATOM      4  C   UNL     1      32.584 -20.546 -20.263  0.00  0.00    +0.037 C 
ATOM      5  C   UNL     1      34.751 -21.416 -19.648  0.00  0.00    +0.037 C 
ATOM      6  C   UNL     1      33.380 -21.316 -19.415  0.00  0.00    +0.139 C 
ENDROOT
BRANCH   1  14
ATOM      7  O   UNL     1      33.099 -17.267 -24.861  0.00  0.00    -0.275 OA
ATOM      8  N   UNL     1      34.200 -19.058 -23.831  0.00  0.00    -0.302 N 
ATOM      9  C   UNL     1      34.692 -16.958 -23.120  0.00  0.00    +0.081 C 
ATOM     10  C   UNL     1      34.057 -15.839 -22.370  0.00  0.00    +0.108 C 
ATOM     11  C   UNL     1      35.085 -15.559 -23.434  0.00  0.00    +0.021 C 
ATOM     12  C   UNL     1      35.656 -17.837 -22.411  0.00  0.00    +0.033 C 
ATOM     13  C   UNL     1      33.887 -17.730 -24.052  0.00  0.00    +0.222 C 
ATOM     14  C   UNL     1      35.153 -19.257 -22.751  0.00  0.00    +0.095 C 
ATOM     15  H   UNL     1      33.815 -19.798 -24.355  0.00  0.00    +0.150 HD
BRANCH  10  17
ATOM     16  O   UNL     1      34.802 -16.364 -20.210  0.00  0.00    -0.250 OA
ATOM     17  C   UNL     1      34.493 -15.511 -21.030  0.00  0.00    +0.314 C 
BRANCH  17  18
ATOM     18  O   UNL     1      34.518 -14.176 -20.800  0.00  0.00    -0.480 OA
ATOM     19  H   UNL     1      35.333 -13.716 -20.799  0.00  0.00    +0.295 HD
ENDBRANCH  17  18
ENDBRANCH  10  17
ENDBRANCH   1  14
BRANCH   6  20
ATOM     20  O   UNL     1      32.815 -21.971 -18.352  0.00  0.00    -0.471 OA
BRANCH  20  21
ATOM     21  C   UNL     1      33.323 -23.264 -18.053  0.00  0.00    +0.229 C 
BRANCH  21  23
ATOM     22  N   UNL     1      33.358 -23.875 -13.819  0.00  0.00    -0.406 NA
ATOM     23  C   UNL     1      33.298 -23.473 -16.571  0.00  0.00    +0.012 C 
ATOM     24  C   UNL     1      32.111 -23.414 -15.828  0.00  0.00    +0.096 C 
ATOM     25  C   UNL     1      34.505 -23.732 -15.939  0.00  0.00    +0.028 C 
ATOM     26  C   UNL     1      32.188 -23.624 -14.435  0.00  0.00    +0.117 C 
ATOM     27  C   UNL     1      34.480 -23.924 -14.572  0.00  0.00    +0.130 C 
ATOM     28  C   UNL     1      30.872 -23.153 -16.440  0.00  0.00    -0.015 C 
ATOM     29  C   UNL     1      31.009 -23.564 -13.699  0.00  0.00    +0.028 C 
ATOM     30  C   UNL     1      29.709 -23.099 -15.679  0.00  0.00    -0.004 C 
ATOM     31  C   UNL     1      29.777 -23.306 -14.306  0.00  0.00    +0.002 C 
BRANCH  27  32
ATOM     32  C   UNL     1      35.692 -24.198 -13.837  0.00  0.00    +0.030 C 
ATOM     33  C   UNL     1      36.500 -25.276 -14.201  0.00  0.00    +0.003 C 
ATOM     34  C   UNL     1      36.057 -23.386 -12.763  0.00  0.00    +0.003 C 
ATOM     35  C   UNL     1      37.672 -25.541 -13.492  0.00  0.00    +0.000 C 
ATOM     36  C   UNL     1      37.228 -23.651 -12.054  0.00  0.00    +0.000 C 
ATOM     37  C   UNL     1      38.035 -24.729 -12.418  0.00  0.00    +0.000 C 
ENDBRANCH  27  32
ENDBRANCH  21  23
ENDBRANCH  20  21
ENDBRANCH   6  20
TORSDOF 7
ENDMDL
MODEL 2
REMARK VINA RESULT:     -13.7      4.585      9.236
REMARK  Name = 25049750
REMARK  7 active torsions:
REMARK  status: ('A' for Active; 'I' for Inactive)
REMARK    1  A    between atoms: C_1  and  C_14
REMARK    2  A    between atoms: C_6  and  O_20
REMARK    3  A    between atoms: C_10  and  C_17
REMARK    4  A    between atoms: C_17  and  O_18
REMARK    5  A    between atoms: O_20  and  C_21
REMARK    6  A    between atoms: C_21  and  C_23
REMARK    7  A    between atoms: C_27  and  C_32
REMARK                            x       y       z     vdW  Elec       q    Type
REMARK                         _______ _______ _______ _____ _____    ______ ____
ROOT
ATOM      1  C   UNL     1      32.173 -11.392 -22.411  0.00  0.00    -0.004 C 
ATOM      2  C   UNL     1      33.083 -12.093 -23.205  0.00  0.00    +0.000 C 
ATOM      3  C   UNL     1      31.797 -11.900 -21.169  0.00  0.00    +0.000 C 
ATOM      4  C   UNL     1      33.613 -13.302 -22.755  0.00  0.00    +0.037 C 
ATOM      5  C   UNL     1      32.328 -13.109 -20.719  0.00  0.00    +0.037 C 
ATOM      6  C   UNL     1      33.237 -13.809 -21.511  0.00  0.00    +0.139 C 
ENDROOT
BRANCH   1  14
ATOM      7  O   UNL     1      32.872  -7.028 -21.600  0.00  0.00    -0.275 OA
ATOM      8  N   UNL     1      31.705  -9.036 -21.894  0.00  0.00    -0.302 N 
ATOM      9  C   UNL     1      33.041  -8.326 -23.587  0.00  0.00    +0.081 C 
ATOM     10  C   UNL     1      34.490  -8.161 -23.893  0.00  0.00    +0.108 C 
ATOM     11  C   UNL     1      33.468  -7.245 -24.514  0.00  0.00    +0.021 C 
ATOM     12  C   UNL     1      32.325  -9.506 -24.135  0.00  0.00    +0.033 C 
ATOM     13  C   UNL     1      32.561  -8.013 -22.252  0.00  0.00    +0.222 C 
ATOM     14  C   UNL     1      31.599 -10.081 -22.899  0.00  0.00    +0.095 C 
ATOM     15  H   UNL     1      31.213  -9.055 -21.041  0.00  0.00    +0.150 HD
BRANCH  10  17
ATOM     16  O   UNL     1      35.141  -8.830 -26.044  0.00  0.00    -0.250 OA
ATOM     17  C   UNL     1      35.146  -9.038 -24.839  0.00  0.00    +0.314 C 
BRANCH  17  18
ATOM     18  O   UNL     1      35.753 -10.092 -24.241  0.00  0.00    -0.480 OA
ATOM     19  H   UNL     1      35.550 -10.965 -24.512  0.00  0.00    +0.295 HD
ENDBRANCH  17  18
ENDBRANCH  10  17
ENDBRANCH   1  14
BRANCH   6  20
ATOM     20  O   UNL     1      33.759 -14.997 -21.069  0.00  0.00    -0.471 OA
BRANCH  20  21
ATOM     21  C   UNL     1      34.885 -15.504 -21.772  0.00  0.00    +0.229 C 
BRANCH  21  23
ATOM     22  N   UNL     1      34.135 -19.586 -22.812  0.00  0.00    -0.406 NA
ATOM     23  C   UNL     1      34.619 -16.921 -22.172  0.00  0.00    +0.012 C 
ATOM     24  C   UNL     1      34.379 -17.290 -23.503  0.00  0.00    +0.096 C 
ATOM     25  C   UNL     1      34.617 -17.882 -21.170  0.00  0.00    +0.028 C 
ATOM     26  C   UNL     1      34.138 -18.651 -23.782  0.00  0.00    +0.117 C 
ATOM     27  C   UNL     1      34.371 -19.189 -21.541  0.00  0.00    +0.130 C 
ATOM     28  C   UNL     1      34.375 -16.340 -24.539  0.00  0.00    -0.015 C 
ATOM     29  C   UNL     1      33.899 -19.015 -25.104  0.00  0.00    +0.028 C 
ATOM     30  C   UNL     1      34.133 -16.733 -25.852  0.00  0.00    -0.004 C 
ATOM     31  C   UNL     1      33.895 -18.072 -26.134  0.00  0.00    +0.002 C 
BRANCH  27  32
ATOM     32  C   UNL     1      34.351 -20.248 -20.561  0.00  0.00    +0.030 C 
ATOM     33  C   UNL     1      35.548 -20.743 -20.043  0.00  0.00    +0.003 C 
ATOM     34  C   UNL     1      33.134 -20.779 -20.132  0.00  0.00    +0.003 C 
ATOM     35  C   UNL     1      35.529 -21.766 -19.095  0.00  0.00    +0.000 C 
ATOM     36  C   UNL     1      33.115 -21.802 -19.184  0.00  0.00    +0.000 C 
ATOM     37  C   UNL     1      34.312 -22.296 -18.667  0.00  0.00    +0.000 C 
ENDBRANCH  27  32
ENDBRANCH  21  23
ENDBRANCH  20  21
ENDBRANCH   6  20
TORSDOF 7
ENDMDL
MODEL 3
REMARK VINA RESULT:     -13.5      4.952      9.823
REMARK  Name = 25049750
REMARK  7 active torsions:
REMARK  status: ('A' for Active; 'I' for Inactive)
REMARK    1  A    between atoms: C_1  and  C_14
REMARK    2  A    between atoms: C_6  and  O_20
REMARK    3  A    between atoms: C_10  and  C_17
REMARK    4  A    between atoms: C_17  and  O_18
REMARK    5  A    between atoms: O_20  and  C_21
REMARK    6  A    between atoms: C_21  and  C_23
REMARK    7  A    between atoms: C_27  and  C_32
REMARK                            x       y       z     vdW  Elec       q    Type
REMARK                         _______ _______ _______ _____ _____    ______ ____
ROOT
ATOM      1  C   UNL     1      31.760 -11.783 -21.652  0.00  0.00    -0.004 C 
ATOM      2  C   UNL     1      32.426 -11.843 -22.877  0.00  0.00    +0.000 C 
ATOM      3  C   UNL     1      32.061 -12.705 -20.649  0.00  0.00    +0.000 C 
ATOM      4  C   UNL     1      33.391 -12.825 -23.099  0.00  0.00    +0.037 C 
ATOM      5  C   UNL     1      33.026 -13.687 -20.872  0.00  0.00    +0.037 C 
ATOM      6  C   UNL     1      33.692 -13.747 -22.096  0.00  0.00    +0.139 C 
ENDROOT
BRANCH   1  14
ATOM      7  O   UNL     1      31.402  -8.084 -19.126  0.00  0.00    -0.275 OA
ATOM      8  N   UNL     1      30.824 -10.142 -20.081  0.00  0.00    -0.302 N 
ATOM      9  C   UNL     1      31.311  -8.421 -21.479  0.00  0.00    +0.081 C 
ATOM     10  C   UNL     1      32.483  -7.611 -21.913  0.00  0.00    +0.108 C 
ATOM     11  C   UNL     1      31.104  -7.008 -21.891  0.00  0.00    +0.021 C 
ATOM     12  C   UNL     1      30.827  -9.509 -22.366  0.00  0.00    +0.033 C 
ATOM     13  C   UNL     1      31.199  -8.812 -20.085  0.00  0.00    +0.222 C 
ATOM     14  C   UNL     1      30.715 -10.717 -21.412  0.00  0.00    +0.095 C 
ATOM     15  H   UNL     1      30.647 -10.651 -19.256  0.00  0.00    +0.150 HD
BRANCH  10  17
ATOM     16  O   UNL     1      32.665  -7.098 -24.193  0.00  0.00    -0.250 OA
ATOM     17  C   UNL     1      33.036  -7.769 -23.241  0.00  0.00    +0.314 C 
BRANCH  17  18
ATOM     18  O   UNL     1      33.993  -8.727 -23.298  0.00  0.00    -0.480 OA
ATOM     19  H   UNL     1      34.030  -9.392 -22.640  0.00  0.00    +0.295 HD
ENDBRANCH  17  18
ENDBRANCH  10  17
ENDBRANCH   1  14
BRANCH   6  20
ATOM     20  O   UNL     1      34.640 -14.712 -22.313  0.00  0.00    -0.471 OA
BRANCH  20  21
ATOM     21  C   UNL     1      34.756 -15.209 -23.639  0.00  0.00    +0.229 C 
BRANCH  21  23
ATOM     22  N   UNL     1      33.132 -19.166 -23.721  0.00  0.00    -0.406 NA
ATOM     23  C   UNL     1      34.173 -16.586 -23.702  0.00  0.00    +0.012 C 
ATOM     24  C   UNL     1      33.430 -17.034 -24.802  0.00  0.00    +0.096 C 
ATOM     25  C   UNL     1      34.393 -17.426 -22.620  0.00  0.00    +0.028 C 
ATOM     26  C   UNL     1      32.921 -18.349 -24.770  0.00  0.00    +0.117 C 
ATOM     27  C   UNL     1      33.855 -18.696 -22.679  0.00  0.00    +0.130 C 
ATOM     28  C   UNL     1      33.191 -16.207 -25.914  0.00  0.00    -0.015 C 
ATOM     29  C   UNL     1      32.182 -18.792 -25.863  0.00  0.00    +0.028 C 
ATOM     30  C   UNL     1      32.449 -16.676 -26.993  0.00  0.00    -0.004 C 
ATOM     31  C   UNL     1      31.944 -17.970 -26.968  0.00  0.00    +0.002 C 
BRANCH  27  32
ATOM     32  C   UNL     1      34.036 -19.632 -21.595  0.00  0.00    +0.030 C 
ATOM     33  C   UNL     1      35.322 -20.007 -21.205  0.00  0.00    +0.003 C 
ATOM     34  C   UNL     1      32.927 -20.163 -20.938  0.00  0.00    +0.003 C 
ATOM     35  C   UNL     1      35.498 -20.910 -20.157  0.00  0.00    +0.000 C 
ATOM     36  C   UNL     1      33.103 -21.067 -19.890  0.00  0.00    +0.000 C 
ATOM     37  C   UNL     1      34.388 -21.441 -19.500  0.00  0.00    +0.000 C 
ENDBRANCH  27  32
ENDBRANCH  21  23
ENDBRANCH  20  21
ENDBRANCH   6  20
TORSDOF 7
ENDMDL
MODEL 4
REMARK VINA RESULT:     -13.0      5.552     10.549
REMARK  Name = 25049750
REMARK  7 active torsions:
REMARK  status: ('A' for Active; 'I' for Inactive)
REMARK    1  A    between atoms: C_1  and  C_14
REMARK    2  A    between atoms: C_6  and  O_20
REMARK    3  A    between atoms: C_10  and  C_17
REMARK    4  A    between atoms: C_17  and  O_18
REMARK    5  A    between atoms: O_20  and  C_21
REMARK    6  A    between atoms: C_21  and  C_23
REMARK    7  A    between atoms: C_27  and  C_32
REMARK                            x       y       z     vdW  Elec       q    Type
REMARK                         _______ _______ _______ _____ _____    ______ ____
ROOT
ATOM      1  C   UNL     1      33.105  -9.728 -23.856  0.00  0.00    -0.004 C 
ATOM      2  C   UNL     1      32.328 -10.359 -22.883  0.00  0.00    +0.000 C 
ATOM      3  C   UNL     1      33.868 -10.490 -24.740  0.00  0.00    +0.000 C 
ATOM      4  C   UNL     1      32.316 -11.751 -22.796  0.00  0.00    +0.037 C 
ATOM      5  C   UNL     1      33.855 -11.882 -24.652  0.00  0.00    +0.037 C 
ATOM      6  C   UNL     1      33.078 -12.513 -23.681  0.00  0.00    +0.139 C 
ENDROOT
BRANCH   1  14
ATOM      7  O   UNL     1      30.084  -6.419 -23.515  0.00  0.00    -0.275 OA
ATOM      8  N   UNL     1      31.838  -7.694 -24.399  0.00  0.00    -0.302 N 
ATOM      9  C   UNL     1      32.059  -6.907 -22.281  0.00  0.00    +0.081 C 
ATOM     10  C   UNL     1      31.482  -7.126 -20.925  0.00  0.00    +0.108 C 
ATOM     11  C   UNL     1      32.001  -5.770 -21.325  0.00  0.00    +0.021 C 
ATOM     12  C   UNL     1      33.376  -7.513 -22.603  0.00  0.00    +0.033 C 
ATOM     13  C   UNL     1      31.181  -6.950 -23.438  0.00  0.00    +0.222 C 
ATOM     14  C   UNL     1      33.117  -8.219 -23.951  0.00  0.00    +0.095 C 
ATOM     15  H   UNL     1      31.474  -7.854 -25.300  0.00  0.00    +0.150 HD
BRANCH  10  17
ATOM     16  O   UNL     1      32.033  -8.911 -19.509  0.00  0.00    -0.250 OA
ATOM     17  C   UNL     1      32.260  -7.772 -19.890  0.00  0.00    +0.314 C 
BRANCH  17  18
ATOM     18  O   UNL     1      33.248  -6.980 -19.408  0.00  0.00    -0.480 OA
ATOM     19  H   UNL     1      34.061  -7.358 -19.137  0.00  0.00    +0.295 HD
ENDBRANCH  17  18
ENDBRANCH  10  17
ENDBRANCH   1  14
BRANCH   6  20
ATOM     20  O   UNL     1      33.066 -13.881 -23.595  0.00  0.00    -0.471 OA
BRANCH  20  21
ATOM     21  C   UNL     1      34.216 -14.563 -24.073  0.00  0.00    +0.229 C 
BRANCH  21  23
ATOM     22  N   UNL     1      33.515 -18.783 -23.971  0.00  0.00    -0.406 NA
ATOM     23  C   UNL     1      33.951 -16.037 -24.069  0.00  0.00    +0.012 C 
ATOM     24  C   UNL     1      33.212 -16.665 -25.081  0.00  0.00    +0.096 C 
ATOM     25  C   UNL     1      34.468 -16.780 -23.017  0.00  0.00    +0.028 C 
ATOM     26  C   UNL     1      33.015 -18.060 -24.990  0.00  0.00    +0.117 C 
ATOM     27  C   UNL     1      34.222 -18.138 -23.016  0.00  0.00    +0.130 C 
ATOM     28  C   UNL     1      32.676 -15.941 -26.159  0.00  0.00    -0.015 C 
ATOM     29  C   UNL     1      32.280 -18.682 -25.995  0.00  0.00    +0.028 C 
ATOM     30  C   UNL     1      31.946 -16.590 -27.149  0.00  0.00    -0.004 C 
ATOM     31  C   UNL     1      31.748 -17.963 -27.067  0.00  0.00    +0.002 C 
BRANCH  27  32
ATOM     32  C   UNL     1      34.723 -18.983 -21.958  0.00  0.00    +0.030 C 
ATOM     33  C   UNL     1      36.074 -18.937 -21.608  0.00  0.00    +0.003 C 
ATOM     34  C   UNL     1      33.859 -19.845 -21.284  0.00  0.00    +0.003 C 
ATOM     35  C   UNL     1      36.558 -19.752 -20.585  0.00  0.00    +0.000 C 
ATOM     36  C   UNL     1      34.343 -20.661 -20.261  0.00  0.00    +0.000 C 
ATOM     37  C   UNL     1      35.693 -20.615 -19.913  0.00  0.00    +0.000 C 
ENDBRANCH  27  32
ENDBRANCH  21  23
ENDBRANCH  20  21
ENDBRANCH   6  20
TORSDOF 7
ENDMDL
MODEL 5
REMARK VINA RESULT:     -13.0      1.671      4.383
REMARK  Name = 25049750
REMARK  7 active torsions:
REMARK  status: ('A' for Active; 'I' for Inactive)
REMARK    1  A    between atoms: C_1  and  C_14
REMARK    2  A    between atoms: C_6  and  O_20
REMARK    3  A    between atoms: C_10  and  C_17
REMARK    4  A    between atoms: C_17  and  O_18
REMARK    5  A    between atoms: O_20  and  C_21
REMARK    6  A    between atoms: C_21  and  C_23
REMARK    7  A    between atoms: C_27  and  C_32
REMARK                            x       y       z     vdW  Elec       q    Type
REMARK                         _______ _______ _______ _____ _____    ______ ____
ROOT
ATOM      1  C   UNL     1      34.505 -18.979 -23.166  0.00  0.00    -0.004 C 
ATOM      2  C   UNL     1      33.282 -19.382 -22.627  0.00  0.00    +0.000 C 
ATOM      3  C   UNL     1      35.678 -19.137 -22.428  0.00  0.00    +0.000 C 
ATOM      4  C   UNL     1      33.233 -19.942 -21.351  0.00  0.00    +0.037 C 
ATOM      5  C   UNL     1      35.628 -19.698 -21.152  0.00  0.00    +0.037 C 
ATOM      6  C   UNL     1      34.407 -20.101 -20.613  0.00  0.00    +0.139 C 
ENDROOT
BRANCH   1  14
ATOM      7  O   UNL     1      31.627 -16.903 -25.923  0.00  0.00    -0.275 OA
ATOM      8  N   UNL     1      33.263 -18.419 -25.211  0.00  0.00    -0.302 N 
ATOM      9  C   UNL     1      33.677 -16.203 -24.939  0.00  0.00    +0.081 C 
ATOM     10  C   UNL     1      33.203 -15.055 -24.117  0.00  0.00    +0.108 C 
ATOM     11  C   UNL     1      33.732 -14.831 -25.509  0.00  0.00    +0.021 C 
ATOM     12  C   UNL     1      34.944 -16.878 -24.560  0.00  0.00    +0.033 C 
ATOM     13  C   UNL     1      32.709 -17.171 -25.425  0.00  0.00    +0.222 C 
ATOM     14  C   UNL     1      34.558 -18.372 -24.550  0.00  0.00    +0.095 C 
ATOM     15  H   UNL     1      32.824 -19.258 -25.480  0.00  0.00    +0.150 HD
BRANCH  10  17
ATOM     16  O   UNL     1      34.459 -15.170 -22.141  0.00  0.00    -0.250 OA
ATOM     17  C   UNL     1      34.040 -14.502 -23.074  0.00  0.00    +0.314 C 
BRANCH  17  18
ATOM     18  O   UNL     1      34.298 -13.184 -23.255  0.00  0.00    -0.480 OA
ATOM     19  H   UNL     1      35.033 -12.916 -23.770  0.00  0.00    +0.295 HD
ENDBRANCH  17  18
ENDBRANCH  10  17
ENDBRANCH   1  14
BRANCH   6  20
ATOM     20  O   UNL     1      34.359 -20.651 -19.359  0.00  0.00    -0.471 OA
BRANCH  20  21
ATOM     21  C   UNL     1      34.487 -22.064 -19.273  0.00  0.00    +0.229 C 
BRANCH  21  23
ATOM     22  N   UNL     1      33.203 -23.356 -15.402  0.00  0.00    -0.406 NA
ATOM     23  C   UNL     1      34.074 -22.514 -17.907  0.00  0.00    +0.012 C 
ATOM     24  C   UNL     1      34.993 -22.668 -16.861  0.00  0.00    +0.096 C 
ATOM     25  C   UNL     1      32.728 -22.779 -17.698  0.00  0.00    +0.028 C 
ATOM     26  C   UNL     1      34.508 -23.097 -15.608  0.00  0.00    +0.117 C 
ATOM     27  C   UNL     1      32.348 -23.194 -16.437  0.00  0.00    +0.130 C 
ATOM     28  C   UNL     1      36.363 -22.407 -17.041  0.00  0.00    -0.015 C 
ATOM     29  C   UNL     1      35.422 -23.251 -14.570  0.00  0.00    +0.028 C 
ATOM     30  C   UNL     1      37.255 -22.569 -15.985  0.00  0.00    -0.004 C 
ATOM     31  C   UNL     1      36.784 -22.991 -14.748  0.00  0.00    +0.002 C 
BRANCH  27  32
ATOM     32  C   UNL     1      30.968 -23.492 -16.137  0.00  0.00    +0.030 C 
ATOM     33  C   UNL     1      30.653 -24.518 -15.246  0.00  0.00    +0.003 C 
ATOM     34  C   UNL     1      29.948 -22.753 -16.737  0.00  0.00    +0.003 C 
ATOM     35  C   UNL     1      29.319 -24.805 -14.954  0.00  0.00    +0.000 C 
ATOM     36  C   UNL     1      28.614 -23.041 -16.446  0.00  0.00    +0.000 C 
ATOM     37  C   UNL     1      28.300 -24.067 -15.556  0.00  0.00    +0.000 C 
ENDBRANCH  27  32
ENDBRANCH  21  23
ENDBRANCH  20  21
ENDBRANCH   6  20
TORSDOF 7
ENDMDL
MODEL 6
REMARK VINA RESULT:     -12.7      1.030      4.182
REMARK  Name = 25049750
REMARK  7 active torsions:
REMARK  status: ('A' for Active; 'I' for Inactive)
REMARK    1  A    between atoms: C_1  and  C_14
REMARK    2  A    between atoms: C_6  and  O_20
REMARK    3  A    between atoms: C_10  and  C_17
REMARK    4  A    between atoms: C_17  and  O_18
REMARK    5  A    between atoms: O_20  and  C_21
REMARK    6  A    between atoms: C_21  and  C_23
REMARK    7  A    between atoms: C_27  and  C_32
REMARK                            x       y       z     vdW  Elec       q    Type
REMARK                         _______ _______ _______ _____ _____    ______ ____
ROOT
ATOM      1  C   UNL     1      34.937 -19.664 -21.841  0.00  0.00    -0.004 C 
ATOM      2  C   UNL     1      35.887 -20.350 -21.082  0.00  0.00    +0.000 C 
ATOM      3  C   UNL     1      33.585 -19.757 -21.514  0.00  0.00    +0.000 C 
ATOM      4  C   UNL     1      35.482 -21.129 -19.998  0.00  0.00    +0.037 C 
ATOM      5  C   UNL     1      33.181 -20.536 -20.430  0.00  0.00    +0.037 C 
ATOM      6  C   UNL     1      34.129 -21.222 -19.671  0.00  0.00    +0.139 C 
ENDROOT
BRANCH   1  14
ATOM      7  O   UNL     1      32.950 -16.963 -24.832  0.00  0.00    -0.275 OA
ATOM      8  N   UNL     1      34.319 -18.672 -24.002  0.00  0.00    -0.302 N 
ATOM      9  C   UNL     1      34.645 -16.569 -23.209  0.00  0.00    +0.081 C 
ATOM     10  C   UNL     1      33.962 -15.566 -22.345  0.00  0.00    +0.108 C 
ATOM     11  C   UNL     1      34.860 -15.121 -23.469  0.00  0.00    +0.021 C 
ATOM     12  C   UNL     1      35.754 -17.371 -22.633  0.00  0.00    +0.033 C 
ATOM     13  C   UNL     1      33.850 -17.377 -24.118  0.00  0.00    +0.222 C 
ATOM     14  C   UNL     1      35.376 -18.819 -23.015  0.00  0.00    +0.095 C 
ATOM     15  H   UNL     1      33.970 -19.422 -24.537  0.00  0.00    +0.150 HD
BRANCH  10  17
ATOM     16  O   UNL     1      34.693 -14.117 -20.652  0.00  0.00    -0.250 OA
ATOM     17  C   UNL     1      34.475 -15.260 -21.027  0.00  0.00    +0.314 C 
BRANCH  17  18
ATOM     18  O   UNL     1      34.678 -16.370 -20.275  0.00  0.00    -0.480 OA
ATOM     19  H   UNL     1      33.965 -16.951 -20.095  0.00  0.00    +0.295 HD
ENDBRANCH  17  18
ENDBRANCH  10  17
ENDBRANCH   1  14
BRANCH   6  20
ATOM     20  O   UNL     1      33.732 -21.987 -18.606  0.00  0.00    -0.471 OA
BRANCH  20  21
ATOM     21  C   UNL     1      34.747 -22.411 -17.707  0.00  0.00    +0.229 C 
BRANCH  21  23
ATOM     22  N   UNL     1      32.832 -24.107 -14.278  0.00  0.00    -0.406 NA
ATOM     23  C   UNL     1      34.111 -23.005 -16.490  0.00  0.00    +0.012 C 
ATOM     24  C   UNL     1      34.847 -23.321 -15.340  0.00  0.00    +0.096 C 
ATOM     25  C   UNL     1      32.744 -23.240 -16.530  0.00  0.00    +0.028 C 
ATOM     26  C   UNL     1      34.158 -23.878 -14.242  0.00  0.00    +0.117 C 
ATOM     27  C   UNL     1      32.158 -23.788 -15.406  0.00  0.00    +0.130 C 
ATOM     28  C   UNL     1      36.233 -23.094 -15.269  0.00  0.00    -0.015 C 
ATOM     29  C   UNL     1      34.891 -24.191 -13.101  0.00  0.00    +0.028 C 
ATOM     30  C   UNL     1      36.940 -23.418 -14.115  0.00  0.00    -0.004 C 
ATOM     31  C   UNL     1      36.268 -23.967 -13.030  0.00  0.00    +0.002 C 
BRANCH  27  32
ATOM     32  C   UNL     1      30.742 -24.064 -15.365  0.00  0.00    +0.030 C 
ATOM     33  C   UNL     1      29.845 -23.205 -16.001  0.00  0.00    +0.003 C 
ATOM     34  C   UNL     1      30.269 -25.189 -14.690  0.00  0.00    +0.003 C 
ATOM     35  C   UNL     1      28.476 -23.472 -15.963  0.00  0.00    +0.000 C 
ATOM     36  C   UNL     1      28.900 -25.456 -14.652  0.00  0.00    +0.000 C 
ATOM     37  C   UNL     1      28.004 -24.597 -15.287  0.00  0.00    +0.000 C 
ENDBRANCH  27  32
ENDBRANCH  21  23
ENDBRANCH  20  21
ENDBRANCH   6  20
TORSDOF 7
ENDMDL
MODEL 7
REMARK VINA RESULT:     -12.6      7.159     13.556
REMARK  Name = 25049750
REMARK  7 active torsions:
REMARK  status: ('A' for Active; 'I' for Inactive)
REMARK    1  A    between atoms: C_1  and  C_14
REMARK    2  A    between atoms: C_6  and  O_20
REMARK    3  A    between atoms: C_10  and  C_17
REMARK    4  A    between atoms: C_17  and  O_18
REMARK    5  A    between atoms: O_20  and  C_21
REMARK    6  A    between atoms: C_21  and  C_23
REMARK    7  A    between atoms: C_27  and  C_32
REMARK                            x       y       z     vdW  Elec       q    Type
REMARK                         _______ _______ _______ _____ _____    ______ ____
ROOT
ATOM      1  C   UNL     1      34.092 -14.799 -22.309  0.00  0.00    -0.004 C 
ATOM      2  C   UNL     1      33.618 -14.328 -21.083  0.00  0.00    +0.000 C 
ATOM      3  C   UNL     1      33.671 -14.200 -23.495  0.00  0.00    +0.000 C 
ATOM      4  C   UNL     1      32.724 -13.259 -21.046  0.00  0.00    +0.037 C 
ATOM      5  C   UNL     1      32.777 -13.130 -23.457  0.00  0.00    +0.037 C 
ATOM      6  C   UNL     1      32.304 -12.658 -22.233  0.00  0.00    +0.139 C 
ENDROOT
BRANCH   1  14
ATOM      7  O   UNL     1      33.918 -19.220 -21.522  0.00  0.00    -0.275 OA
ATOM      8  N   UNL     1      34.687 -17.011 -21.419  0.00  0.00    -0.302 N 
ATOM      9  C   UNL     1      34.478 -17.969 -23.467  0.00  0.00    +0.081 C 
ATOM     10  C   UNL     1      33.411 -18.428 -24.399  0.00  0.00    +0.108 C 
ATOM     11  C   UNL     1      34.755 -19.107 -24.382  0.00  0.00    +0.021 C 
ATOM     12  C   UNL     1      35.135 -16.662 -23.721  0.00  0.00    +0.033 C 
ATOM     13  C   UNL     1      34.312 -18.187 -22.040  0.00  0.00    +0.222 C 
ATOM     14  C   UNL     1      35.062 -15.959 -22.349  0.00  0.00    +0.095 C 
ATOM     15  H   UNL     1      34.699 -16.897 -20.441  0.00  0.00    +0.150 HD
BRANCH  10  17
ATOM     16  O   UNL     1      33.826 -17.804 -26.621  0.00  0.00    -0.250 OA
ATOM     17  C   UNL     1      33.135 -17.698 -25.618  0.00  0.00    +0.314 C 
BRANCH  17  18
ATOM     18  O   UNL     1      32.042 -16.904 -25.515  0.00  0.00    -0.480 OA
ATOM     19  H   UNL     1      31.193 -17.248 -25.708  0.00  0.00    +0.295 HD
ENDBRANCH  17  18
ENDBRANCH  10  17
ENDBRANCH   1  14
BRANCH   6  20
ATOM     20  O   UNL     1      31.425 -11.607 -22.197  0.00  0.00    -0.471 OA
BRANCH  20  21
ATOM     21  C   UNL     1      31.592 -10.668 -21.143  0.00  0.00    +0.229 C 
BRANCH  21  23
ATOM     22  N   UNL     1      33.109  -7.046 -22.843  0.00  0.00    -0.406 NA
ATOM     23  C   UNL     1      32.110  -9.382 -21.708  0.00  0.00    +0.012 C 
ATOM     24  C   UNL     1      31.967  -8.161 -21.037  0.00  0.00    +0.096 C 
ATOM     25  C   UNL     1      32.750  -9.433 -22.939  0.00  0.00    +0.028 C 
ATOM     26  C   UNL     1      32.489  -7.001 -21.649  0.00  0.00    +0.117 C 
ATOM     27  C   UNL     1      33.227  -8.245 -23.458  0.00  0.00    +0.130 C 
ATOM     28  C   UNL     1      31.325  -8.078 -19.789  0.00  0.00    -0.015 C 
ATOM     29  C   UNL     1      32.346  -5.789 -20.982  0.00  0.00    +0.028 C 
ATOM     30  C   UNL     1      31.197  -6.851 -19.144  0.00  0.00    -0.004 C 
ATOM     31  C   UNL     1      31.708  -5.705 -19.741  0.00  0.00    +0.002 C 
BRANCH  27  32
ATOM     32  C   UNL     1      33.903  -8.210 -24.733  0.00  0.00    +0.030 C 
ATOM     33  C   UNL     1      34.659  -9.306 -25.152  0.00  0.00    +0.003 C 
ATOM     34  C   UNL     1      33.802  -7.081 -25.545  0.00  0.00    +0.003 C 
ATOM     35  C   UNL     1      35.312  -9.272 -26.384  0.00  0.00    +0.000 C 
ATOM     36  C   UNL     1      34.456  -7.048 -26.777  0.00  0.00    +0.000 C 
ATOM     37  C   UNL     1      35.211  -8.143 -27.196  0.00  0.00    +0.000 C 
ENDBRANCH  27  32
ENDBRANCH  21  23
ENDBRANCH  20  21
ENDBRANCH   6  20
TORSDOF 7
ENDMDL
MODEL 8
REMARK VINA RESULT:     -12.2      5.770     10.839
REMARK  Name = 25049750
REMARK  7 active torsions:
REMARK  status: ('A' for Active; 'I' for Inactive)
REMARK    1  A    between atoms: C_1  and  C_14
REMARK    2  A    between atoms: C_6  and  O_20
REMARK    3  A    between atoms: C_10  and  C_17
REMARK    4  A    between atoms: C_17  and  O_18
REMARK    5  A    between atoms: O_20  and  C_21
REMARK    6  A    between atoms: C_21  and  C_23
REMARK    7  A    between atoms: C_27  and  C_32
REMARK                            x       y       z     vdW  Elec       q    Type
REMARK                         _______ _______ _______ _____ _____    ______ ____
ROOT
ATOM      1  C   UNL     1      31.544 -10.225 -22.464  0.00  0.00    -0.004 C 
ATOM      2  C   UNL     1      32.419 -10.389 -23.538  0.00  0.00    +0.000 C 
ATOM      3  C   UNL     1      31.363 -11.260 -21.548  0.00  0.00    +0.000 C 
ATOM      4  C   UNL     1      33.112 -11.590 -23.696  0.00  0.00    +0.037 C 
ATOM      5  C   UNL     1      32.056 -12.460 -21.706  0.00  0.00    +0.037 C 
ATOM      6  C   UNL     1      32.931 -12.625 -22.779  0.00  0.00    +0.139 C 
ENDROOT
BRANCH   1  14
ATOM      7  O   UNL     1      32.471  -6.115 -20.902  0.00  0.00    -0.275 OA
ATOM      8  N   UNL     1      31.323  -8.134 -21.191  0.00  0.00    -0.302 N 
ATOM      9  C   UNL     1      31.754  -6.884 -23.037  0.00  0.00    +0.081 C 
ATOM     10  C   UNL     1      32.912  -6.465 -23.876  0.00  0.00    +0.108 C 
ATOM     11  C   UNL     1      31.708  -5.571 -23.734  0.00  0.00    +0.021 C 
ATOM     12  C   UNL     1      30.885  -7.987 -23.518  0.00  0.00    +0.033 C 
ATOM     13  C   UNL     1      31.916  -6.953 -21.594  0.00  0.00    +0.222 C 
ATOM     14  C   UNL     1      30.794  -8.923 -22.293  0.00  0.00    +0.095 C 
ATOM     15  H   UNL     1      31.263  -8.414 -20.249  0.00  0.00    +0.150 HD
BRANCH  10  17
ATOM     16  O   UNL     1      33.776  -7.992 -25.432  0.00  0.00    -0.250 OA
ATOM     17  C   UNL     1      33.089  -7.006 -25.206  0.00  0.00    +0.314 C 
BRANCH  17  18
ATOM     18  O   UNL     1      32.415  -6.304 -26.150  0.00  0.00    -0.480 OA
ATOM     19  H   UNL     1      31.604  -6.630 -26.487  0.00  0.00    +0.295 HD
ENDBRANCH  17  18
ENDBRANCH  10  17
ENDBRANCH   1  14
BRANCH   6  20
ATOM     20  O   UNL     1      33.612 -13.805 -22.934  0.00  0.00    -0.471 OA
BRANCH  20  21
ATOM     21  C   UNL     1      33.812 -14.259 -24.265  0.00  0.00    +0.229 C 
BRANCH  21  23
ATOM     22  N   UNL     1      33.476 -18.525 -24.281  0.00  0.00    -0.406 NA
ATOM     23  C   UNL     1      33.674 -15.749 -24.302  0.00  0.00    +0.012 C 
ATOM     24  C   UNL     1      32.990 -16.411 -25.331  0.00  0.00    +0.096 C 
ATOM     25  C   UNL     1      34.255 -16.474 -23.271  0.00  0.00    +0.028 C 
ATOM     26  C   UNL     1      32.914 -17.818 -25.280  0.00  0.00    +0.117 C 
ATOM     27  C   UNL     1      34.127 -17.848 -23.308  0.00  0.00    +0.130 C 
ATOM     28  C   UNL     1      32.392 -15.705 -26.389  0.00  0.00    -0.015 C 
ATOM     29  C   UNL     1      32.233 -18.474 -26.302  0.00  0.00    +0.028 C 
ATOM     30  C   UNL     1      31.718 -16.386 -27.398  0.00  0.00    -0.004 C 
ATOM     31  C   UNL     1      31.639 -17.773 -27.354  0.00  0.00    +0.002 C 
BRANCH  27  32
ATOM     32  C   UNL     1      34.701 -18.676 -22.274  0.00  0.00    +0.030 C 
ATOM     33  C   UNL     1      33.892 -19.558 -21.557  0.00  0.00    +0.003 C 
ATOM     34  C   UNL     1      36.064 -18.594 -21.990  0.00  0.00    +0.003 C 
ATOM     35  C   UNL     1      34.447 -20.359 -20.558  0.00  0.00    +0.000 C 
ATOM     36  C   UNL     1      36.619 -19.394 -20.991  0.00  0.00    +0.000 C 
ATOM     37  C   UNL     1      35.810 -20.276 -20.275  0.00  0.00    +0.000 C 
ENDBRANCH  27  32
ENDBRANCH  21  23
ENDBRANCH  20  21
ENDBRANCH   6  20
TORSDOF 7
ENDMDL
MODEL 9
REMARK VINA RESULT:     -11.8      7.736     14.376
REMARK  Name = 25049750
REMARK  7 active torsions:
REMARK  status: ('A' for Active; 'I' for Inactive)
REMARK    1  A    between atoms: C_1  and  C_14
REMARK    2  A    between atoms: C_6  and  O_20
REMARK    3  A    between atoms: C_10  and  C_17
REMARK    4  A    between atoms: C_17  and  O_18
REMARK    5  A    between atoms: O_20  and  C_21
REMARK    6  A    between atoms: C_21  and  C_23
REMARK    7  A    between atoms: C_27  and  C_32
REMARK                            x       y       z     vdW  Elec       q    Type
REMARK                         _______ _______ _______ _____ _____    ______ ____
ROOT
ATOM      1  C   UNL     1      34.110 -15.044 -23.627  0.00  0.00    -0.004 C 
ATOM      2  C   UNL     1      34.054 -14.487 -22.348  0.00  0.00    +0.000 C 
ATOM      3  C   UNL     1      33.424 -14.439 -24.680  0.00  0.00    +0.000 C 
ATOM      4  C   UNL     1      33.312 -13.327 -22.125  0.00  0.00    +0.037 C 
ATOM      5  C   UNL     1      32.683 -13.279 -24.456  0.00  0.00    +0.037 C 
ATOM      6  C   UNL     1      32.627 -12.722 -23.179  0.00  0.00    +0.139 C 
ENDROOT
BRANCH   1  14
ATOM      7  O   UNL     1      33.793 -19.381 -22.498  0.00  0.00    -0.275 OA
ATOM      8  N   UNL     1      34.749 -17.265 -22.794  0.00  0.00    -0.302 N 
ATOM      9  C   UNL     1      33.841 -18.284 -24.609  0.00  0.00    +0.081 C 
ATOM     10  C   UNL     1      32.504 -18.666 -25.142  0.00  0.00    +0.108 C 
ATOM     11  C   UNL     1      33.723 -19.484 -25.479  0.00  0.00    +0.021 C 
ATOM     12  C   UNL     1      34.502 -17.067 -25.145  0.00  0.00    +0.033 C 
ATOM     13  C   UNL     1      34.100 -18.420 -23.186  0.00  0.00    +0.222 C 
ATOM     14  C   UNL     1      34.915 -16.300 -23.869  0.00  0.00    +0.095 C 
ATOM     15  H   UNL     1      35.069 -17.110 -21.876  0.00  0.00    +0.150 HD
BRANCH  10  17
ATOM     16  O   UNL     1      32.121 -18.318 -27.429  0.00  0.00    -0.250 OA
ATOM     17  C   UNL     1      31.935 -17.965 -26.274  0.00  0.00    +0.314 C 
BRANCH  17  18
ATOM     18  O   UNL     1      31.187 -16.897 -25.904  0.00  0.00    -0.480 OA
ATOM     19  H   UNL     1      30.883 -16.821 -25.022  0.00  0.00    +0.295 HD
ENDBRANCH  17  18
ENDBRANCH  10  17
ENDBRANCH   1  14
BRANCH   6  20
ATOM     20  O   UNL     1      31.899 -11.583 -22.958  0.00  0.00    -0.471 OA
BRANCH  20  21
ATOM     21  C   UNL     1      32.469 -10.615 -22.088  0.00  0.00    +0.229 C 
BRANCH  21  23
ATOM     22  N   UNL     1      32.930  -6.900 -24.161  0.00  0.00    -0.406 NA
ATOM     23  C   UNL     1      32.657  -9.331 -22.835  0.00  0.00    +0.012 C 
ATOM     24  C   UNL     1      33.576  -9.206 -23.885  0.00  0.00    +0.096 C 
ATOM     25  C   UNL     1      31.880  -8.247 -22.453  0.00  0.00    +0.028 C 
ATOM     26  C   UNL     1      33.681  -7.955 -24.529  0.00  0.00    +0.117 C 
ATOM     27  C   UNL     1      32.055  -7.063 -23.142  0.00  0.00    +0.130 C 
ATOM     28  C   UNL     1      34.376 -10.286 -24.296  0.00  0.00    -0.015 C 
ATOM     29  C   UNL     1      34.595  -7.831 -25.572  0.00  0.00    +0.028 C 
ATOM     30  C   UNL     1      35.281 -10.134 -25.341  0.00  0.00    -0.004 C 
ATOM     31  C   UNL     1      35.390  -8.905 -25.980  0.00  0.00    +0.002 C 
BRANCH  27  32
ATOM     32  C   UNL     1      31.288  -5.887 -22.807  0.00  0.00    +0.030 C 
ATOM     33  C   UNL     1      30.423  -5.907 -21.712  0.00  0.00    +0.003 C 
ATOM     34  C   UNL     1      31.410  -4.732 -23.578  0.00  0.00    +0.003 C 
ATOM     35  C   UNL     1      29.682  -4.770 -21.388  0.00  0.00    +0.000 C 
ATOM     36  C   UNL     1      30.669  -3.595 -23.254  0.00  0.00    +0.000 C 
ATOM     37  C   UNL     1      29.804  -3.615 -22.159  0.00  0.00    +0.000 C 
ENDBRANCH  27  32
ENDBRANCH  21  23
ENDBRANCH  20  21
ENDBRANCH   6  20
TORSDOF 7
ENDMDL
