MODEL 1
REMARK VINA RESULT:     -11.8      0.000      0.000
REMARK  Name = 11560787
REMARK  5 active torsions:
REMARK  status: ('A' for Active; 'I' for Inactive)
REMARK    1  A    between atoms: N_2  and  C_23
REMARK    2  A    between atoms: C_8  and  C_9
REMARK    3  A    between atoms: C_12  and  N_15
REMARK    4  A    between atoms: C_13  and  O_21
REMARK    5  A    between atoms: C_23  and  C_26
REMARK                            x       y       z     vdW  Elec       q    Type
REMARK                         _______ _______ _______ _____ _____    ______ ____
ROOT
ATOM      1  O   UNL     1      34.528 -16.662 -24.302  0.00  0.00    -0.270 OA
ATOM      2  N   UNL     1      34.872 -17.136 -22.058  0.00  0.00    -0.274 N 
ATOM      3  C   UNL     1      34.747 -16.753 -20.653  0.00  0.00    +0.094 C 
ATOM      4  C   UNL     1      34.886 -15.258 -20.443  0.00  0.00    +0.026 C 
ATOM      5  C   UNL     1      33.874 -14.541 -21.317  0.00  0.00    +0.033 C 
ATOM      6  C   UNL     1      34.057 -14.923 -22.754  0.00  0.00    +0.031 C 
ATOM      7  C   UNL     1      34.499 -16.311 -23.122  0.00  0.00    +0.245 C 
ATOM      8  C   UNL     1      33.866 -14.041 -23.747  0.00  0.00    +0.000 C 
ENDROOT
BRANCH   8   9
ATOM      9  C   UNL     1      33.435 -12.645 -23.581  0.00  0.00    +0.003 C 
ATOM     10  C   UNL     1      32.359 -12.357 -22.756  0.00  0.00    +0.038 C 
ATOM     11  C   UNL     1      34.114 -11.638 -24.252  0.00  0.00    +0.001 C 
ATOM     12  C   UNL     1      32.625 -10.011 -23.266  0.00  0.00    +0.084 C 
ATOM     13  C   UNL     1      31.951 -11.032 -22.597  0.00  0.00    +0.152 C 
ATOM     14  C   UNL     1      33.707 -10.314 -24.094  0.00  0.00    +0.018 C 
BRANCH  12  15
ATOM     15  N   UNL     1      32.233  -8.691 -23.122  0.00  0.00    -0.280 N 
ATOM     16  N   UNL     1      31.109  -6.797 -23.457  0.00  0.00    -0.255 NA
ATOM     17  C   UNL     1      32.761  -7.774 -22.251  0.00  0.00    +0.134 C 
ATOM     18  C   UNL     1      31.243  -8.053 -23.823  0.00  0.00    +0.220 C 
ATOM     19  C   UNL     1      32.053  -6.617 -22.477  0.00  0.00    +0.054 C 
ATOM     20  C   UNL     1      32.205  -5.313 -21.815  0.00  0.00    +0.049 C 
ENDBRANCH  12  15
BRANCH  13  21
ATOM     21  O   UNL     1      30.892 -10.761 -21.783  0.00  0.00    -0.470 OA
ATOM     22  C   UNL     1      31.119 -10.844 -20.378  0.00  0.00    +0.253 C 
ENDBRANCH  13  21
ENDBRANCH   8   9
BRANCH   2  23
ATOM     23  C   UNL     1      35.262 -18.517 -22.313  0.00  0.00    +0.098 C 
ATOM     24  C   UNL     1      36.784 -18.645 -22.203  0.00  0.00    +0.026 C 
BRANCH  23  26
ATOM     25  F   UNL     1      32.612 -22.079 -18.866  0.00  0.00    -0.204 F 
ATOM     26  C   UNL     1      34.547 -19.478 -21.383  0.00  0.00    -0.004 C 
ATOM     27  C   UNL     1      35.295 -20.305 -20.566  0.00  0.00    -0.000 C 
ATOM     28  C   UNL     1      33.165 -19.503 -21.376  0.00  0.00    -0.000 C 
ATOM     29  C   UNL     1      34.638 -21.188 -19.710  0.00  0.00    +0.029 C 
ATOM     30  C   UNL     1      32.507 -20.387 -20.520  0.00  0.00    +0.029 C 
ATOM     31  C   UNL     1      33.243 -21.229 -19.688  0.00  0.00    +0.140 C 
ENDBRANCH  23  26
ENDBRANCH   2  23
TORSDOF 5
ENDMDL
MODEL 2
REMARK VINA RESULT:     -11.8      0.947      1.860
REMARK  Name = 11560787
REMARK  5 active torsions:
REMARK  status: ('A' for Active; 'I' for Inactive)
REMARK    1  A    between atoms: N_2  and  C_23
REMARK    2  A    between atoms: C_8  and  C_9
REMARK    3  A    between atoms: C_12  and  N_15
REMARK    4  A    between atoms: C_13  and  O_21
REMARK    5  A    between atoms: C_23  and  C_26
REMARK                            x       y       z     vdW  Elec       q    Type
REMARK                         _______ _______ _______ _____ _____    ______ ____
ROOT
ATOM      1  O   UNL     1      34.512 -16.598 -24.309  0.00  0.00    -0.270 OA
ATOM      2  N   UNL     1      34.871 -17.084 -22.070  0.00  0.00    -0.274 N 
ATOM      3  C   UNL     1      34.744 -16.715 -20.661  0.00  0.00    +0.094 C 
ATOM      4  C   UNL     1      34.859 -15.220 -20.439  0.00  0.00    +0.026 C 
ATOM      5  C   UNL     1      33.833 -14.512 -21.305  0.00  0.00    +0.033 C 
ATOM      6  C   UNL     1      34.018 -14.880 -22.745  0.00  0.00    +0.031 C 
ATOM      7  C   UNL     1      34.481 -16.257 -23.125  0.00  0.00    +0.245 C 
ATOM      8  C   UNL     1      33.809 -13.993 -23.731  0.00  0.00    +0.000 C 
ENDROOT
BRANCH   8   9
ATOM      9  C   UNL     1      33.357 -12.605 -23.552  0.00  0.00    +0.003 C 
ATOM     10  C   UNL     1      33.964 -11.592 -24.278  0.00  0.00    +0.038 C 
ATOM     11  C   UNL     1      32.329 -12.333 -22.661  0.00  0.00    +0.001 C 
ATOM     12  C   UNL     1      32.502  -9.988 -23.216  0.00  0.00    +0.084 C 
ATOM     13  C   UNL     1      33.534 -10.275 -24.109  0.00  0.00    +0.152 C 
ATOM     14  C   UNL     1      31.900 -11.018 -22.491  0.00  0.00    +0.018 C 
BRANCH  12  15
ATOM     15  N   UNL     1      32.064  -8.688 -23.034  0.00  0.00    -0.280 N 
ATOM     16  N   UNL     1      30.895  -6.816 -23.337  0.00  0.00    -0.255 NA
ATOM     17  C   UNL     1      32.531  -7.792 -22.108  0.00  0.00    +0.134 C 
ATOM     18  C   UNL     1      31.081  -8.051 -23.747  0.00  0.00    +0.220 C 
ATOM     19  C   UNL     1      31.795  -6.649 -22.315  0.00  0.00    +0.054 C 
ATOM     20  C   UNL     1      31.882  -5.368 -21.596  0.00  0.00    +0.049 C 
ENDBRANCH  12  15
BRANCH  13  21
ATOM     21  O   UNL     1      34.138  -9.287 -24.828  0.00  0.00    -0.470 OA
ATOM     22  C   UNL     1      35.376  -8.789 -24.329  0.00  0.00    +0.253 C 
ENDBRANCH  13  21
ENDBRANCH   8   9
BRANCH   2  23
ATOM     23  C   UNL     1      35.282 -18.457 -22.336  0.00  0.00    +0.098 C 
ATOM     24  C   UNL     1      36.805 -18.564 -22.223  0.00  0.00    +0.026 C 
BRANCH  23  26
ATOM     25  F   UNL     1      32.676 -22.091 -18.931  0.00  0.00    -0.204 F 
ATOM     26  C   UNL     1      34.579 -19.437 -21.418  0.00  0.00    -0.004 C 
ATOM     27  C   UNL     1      33.197 -19.486 -21.417  0.00  0.00    -0.000 C 
ATOM     28  C   UNL     1      35.337 -20.258 -20.604  0.00  0.00    -0.000 C 
ATOM     29  C   UNL     1      32.550 -20.388 -20.572  0.00  0.00    +0.029 C 
ATOM     30  C   UNL     1      34.691 -21.161 -19.759  0.00  0.00    +0.029 C 
ATOM     31  C   UNL     1      33.298 -21.225 -19.743  0.00  0.00    +0.140 C 
ENDBRANCH  23  26
ENDBRANCH   2  23
TORSDOF 5
ENDMDL
MODEL 3
REMARK VINA RESULT:     -11.0      5.154     11.754
REMARK  Name = 11560787
REMARK  5 active torsions:
REMARK  status: ('A' for Active; 'I' for Inactive)
REMARK    1  A    between atoms: N_2  and  C_23
REMARK    2  A    between atoms: C_8  and  C_9
REMARK    3  A    between atoms: C_12  and  N_15
REMARK    4  A    between atoms: C_13  and  O_21
REMARK    5  A    between atoms: C_23  and  C_26
REMARK                            x       y       z     vdW  Elec       q    Type
REMARK                         _______ _______ _______ _____ _____    ______ ____
ROOT
ATOM      1  O   UNL     1      36.822 -19.067 -22.021  0.00  0.00    -0.270 OA
ATOM      2  N   UNL     1      34.576 -18.906 -22.577  0.00  0.00    -0.274 N 
ATOM      3  C   UNL     1      33.170 -19.092 -22.221  0.00  0.00    +0.094 C 
ATOM      4  C   UNL     1      32.949 -20.306 -21.340  0.00  0.00    +0.026 C 
ATOM      5  C   UNL     1      33.834 -20.192 -20.112  0.00  0.00    +0.033 C 
ATOM      6  C   UNL     1      35.271 -20.045 -20.512  0.00  0.00    +0.031 C 
ATOM      7  C   UNL     1      35.640 -19.297 -21.761  0.00  0.00    +0.245 C 
ATOM      8  C   UNL     1      36.261 -20.597 -19.794  0.00  0.00    +0.000 C 
ENDROOT
BRANCH   8   9
ATOM      9  C   UNL     1      36.093 -21.363 -18.550  0.00  0.00    +0.003 C 
ATOM     10  C   UNL     1      35.002 -22.206 -18.411  0.00  0.00    +0.038 C 
ATOM     11  C   UNL     1      37.031 -21.229 -17.536  0.00  0.00    +0.001 C 
ATOM     12  C   UNL     1      35.778 -22.808 -16.204  0.00  0.00    +0.084 C 
ATOM     13  C   UNL     1      34.843 -22.933 -17.231  0.00  0.00    +0.152 C 
ATOM     14  C   UNL     1      36.872 -21.955 -16.356  0.00  0.00    +0.018 C 
BRANCH  12  15
ATOM     15  N   UNL     1      35.635 -23.520 -15.026  0.00  0.00    -0.280 N 
ATOM     16  N   UNL     1      34.718 -24.285 -13.145  0.00  0.00    -0.255 NA
ATOM     17  C   UNL     1      36.549 -24.381 -14.477  0.00  0.00    +0.134 C 
ATOM     18  C   UNL     1      34.552 -23.499 -14.185  0.00  0.00    +0.220 C 
ATOM     19  C   UNL     1      35.961 -24.838 -13.321  0.00  0.00    +0.054 C 
ATOM     20  C   UNL     1      36.504 -25.788 -12.338  0.00  0.00    +0.049 C 
ENDBRANCH  12  15
BRANCH  13  21
ATOM     21  O   UNL     1      33.766 -23.760 -17.106  0.00  0.00    -0.470 OA
ATOM     22  C   UNL     1      32.477 -23.168 -17.245  0.00  0.00    +0.253 C 
ENDBRANCH  13  21
ENDBRANCH   8   9
BRANCH   2  23
ATOM     23  C   UNL     1      34.833 -18.126 -23.781  0.00  0.00    +0.098 C 
ATOM     24  C   UNL     1      34.104 -18.765 -24.967  0.00  0.00    +0.026 C 
BRANCH  23  26
ATOM     25  F   UNL     1      33.385 -12.738 -23.100  0.00  0.00    -0.204 F 
ATOM     26  C   UNL     1      34.442 -16.672 -23.597  0.00  0.00    -0.004 C 
ATOM     27  C   UNL     1      33.746 -16.031 -24.605  0.00  0.00    -0.000 C 
ATOM     28  C   UNL     1      34.792 -16.025 -22.427  0.00  0.00    -0.000 C 
ATOM     29  C   UNL     1      33.386 -14.694 -24.436  0.00  0.00    +0.029 C 
ATOM     30  C   UNL     1      34.432 -14.688 -22.258  0.00  0.00    +0.029 C 
ATOM     31  C   UNL     1      33.730 -14.023 -23.262  0.00  0.00    +0.140 C 
ENDBRANCH  23  26
ENDBRANCH   2  23
TORSDOF 5
ENDMDL
MODEL 4
REMARK VINA RESULT:     -10.8      4.374      6.292
REMARK  Name = 11560787
REMARK  5 active torsions:
REMARK  status: ('A' for Active; 'I' for Inactive)
REMARK    1  A    between atoms: N_2  and  C_23
REMARK    2  A    between atoms: C_8  and  C_9
REMARK    3  A    between atoms: C_12  and  N_15
REMARK    4  A    between atoms: C_13  and  O_21
REMARK    5  A    between atoms: C_23  and  C_26
REMARK                            x       y       z     vdW  Elec       q    Type
REMARK                         _______ _______ _______ _____ _____    ______ ____
ROOT
ATOM      1  O   UNL     1      36.537 -20.545 -20.219  0.00  0.00    -0.270 OA
ATOM      2  N   UNL     1      34.496 -21.366 -19.485  0.00  0.00    -0.274 N 
ATOM      3  C   UNL     1      33.045 -21.465 -19.638  0.00  0.00    +0.094 C 
ATOM      4  C   UNL     1      32.430 -20.190 -20.183  0.00  0.00    +0.026 C 
ATOM      5  C   UNL     1      33.115 -19.830 -21.488  0.00  0.00    +0.033 C 
ATOM      6  C   UNL     1      34.593 -19.696 -21.286  0.00  0.00    +0.031 C 
ATOM      7  C   UNL     1      35.308 -20.567 -20.294  0.00  0.00    +0.245 C 
ATOM      8  C   UNL     1      35.315 -18.782 -21.954  0.00  0.00    +0.000 C 
ENDROOT
BRANCH   8   9
ATOM      9  C   UNL     1      34.791 -17.845 -22.960  0.00  0.00    +0.003 C 
ATOM     10  C   UNL     1      34.260 -18.341 -24.141  0.00  0.00    +0.038 C 
ATOM     11  C   UNL     1      34.836 -16.482 -22.709  0.00  0.00    +0.001 C 
ATOM     12  C   UNL     1      33.801 -16.079 -24.855  0.00  0.00    +0.084 C 
ATOM     13  C   UNL     1      33.762 -17.452 -25.094  0.00  0.00    +0.152 C 
ATOM     14  C   UNL     1      34.339 -15.593 -23.662  0.00  0.00    +0.018 C 
BRANCH  12  15
ATOM     15  N   UNL     1      33.314 -15.183 -25.791  0.00  0.00    -0.280 N 
ATOM     16  N   UNL     1      32.549 -14.397 -27.729  0.00  0.00    -0.255 NA
ATOM     17  C   UNL     1      33.069 -13.849 -25.592  0.00  0.00    +0.134 C 
ATOM     18  C   UNL     1      32.984 -15.461 -27.092  0.00  0.00    +0.220 C 
ATOM     19  C   UNL     1      32.598 -13.389 -26.800  0.00  0.00    +0.054 C 
ATOM     20  C   UNL     1      32.180 -12.023 -27.153  0.00  0.00    +0.049 C 
ENDBRANCH  12  15
BRANCH  13  21
ATOM     21  O   UNL     1      33.242 -17.950 -26.252  0.00  0.00    -0.470 OA
ATOM     22  C   UNL     1      32.063 -18.743 -26.142  0.00  0.00    +0.253 C 
ENDBRANCH  13  21
ENDBRANCH   8   9
BRANCH   2  23
ATOM     23  C   UNL     1      35.102 -22.285 -18.531  0.00  0.00    +0.098 C 
ATOM     24  C   UNL     1      36.351 -21.640 -17.924  0.00  0.00    +0.026 C 
BRANCH  23  26
ATOM     25  F   UNL     1      31.438 -23.864 -14.572  0.00  0.00    -0.204 F 
ATOM     26  C   UNL     1      34.113 -22.711 -17.463  0.00  0.00    -0.004 C 
ATOM     27  C   UNL     1      34.558 -22.884 -16.165  0.00  0.00    -0.000 C 
ATOM     28  C   UNL     1      32.792 -22.916 -17.814  0.00  0.00    -0.000 C 
ATOM     29  C   UNL     1      33.649 -23.275 -15.182  0.00  0.00    +0.029 C 
ATOM     30  C   UNL     1      31.882 -23.308 -16.831  0.00  0.00    +0.029 C 
ATOM     31  C   UNL     1      32.311 -23.488 -15.516  0.00  0.00    +0.140 C 
ENDBRANCH  23  26
ENDBRANCH   2  23
TORSDOF 5
ENDMDL
MODEL 5
REMARK VINA RESULT:     -10.8      4.129      6.155
REMARK  Name = 11560787
REMARK  5 active torsions:
REMARK  status: ('A' for Active; 'I' for Inactive)
REMARK    1  A    between atoms: N_2  and  C_23
REMARK    2  A    between atoms: C_8  and  C_9
REMARK    3  A    between atoms: C_12  and  N_15
REMARK    4  A    between atoms: C_13  and  O_21
REMARK    5  A    between atoms: C_23  and  C_26
REMARK                            x       y       z     vdW  Elec       q    Type
REMARK                         _______ _______ _______ _____ _____    ______ ____
ROOT
ATOM      1  O   UNL     1      36.550 -20.647 -20.198  0.00  0.00    -0.270 OA
ATOM      2  N   UNL     1      34.516 -21.428 -19.404  0.00  0.00    -0.274 N 
ATOM      3  C   UNL     1      33.062 -21.514 -19.524  0.00  0.00    +0.094 C 
ATOM      4  C   UNL     1      32.449 -20.244 -20.083  0.00  0.00    +0.026 C 
ATOM      5  C   UNL     1      33.110 -19.920 -21.410  0.00  0.00    +0.033 C 
ATOM      6  C   UNL     1      34.594 -19.798 -21.242  0.00  0.00    +0.031 C 
ATOM      7  C   UNL     1      35.319 -20.656 -20.246  0.00  0.00    +0.245 C 
ATOM      8  C   UNL     1      35.311 -18.907 -21.945  0.00  0.00    +0.000 C 
ENDROOT
BRANCH   8   9
ATOM      9  C   UNL     1      34.776 -17.986 -22.959  0.00  0.00    +0.003 C 
ATOM     10  C   UNL     1      34.748 -16.625 -22.696  0.00  0.00    +0.038 C 
ATOM     11  C   UNL     1      34.309 -18.495 -24.162  0.00  0.00    +0.001 C 
ATOM     12  C   UNL     1      33.769 -16.250 -24.872  0.00  0.00    +0.084 C 
ATOM     13  C   UNL     1      34.241 -15.752 -23.659  0.00  0.00    +0.152 C 
ATOM     14  C   UNL     1      33.802 -17.622 -25.124  0.00  0.00    +0.018 C 
BRANCH  12  15
ATOM     15  N   UNL     1      33.261 -15.398 -25.838  0.00  0.00    -0.280 N 
ATOM     16  N   UNL     1      32.368 -14.716 -27.761  0.00  0.00    -0.255 NA
ATOM     17  C   UNL     1      33.145 -14.035 -25.744  0.00  0.00    +0.134 C 
ATOM     18  C   UNL     1      32.779 -15.756 -27.071  0.00  0.00    +0.220 C 
ATOM     19  C   UNL     1      32.592 -13.640 -26.939  0.00  0.00    +0.054 C 
ATOM     20  C   UNL     1      32.250 -12.279 -27.378  0.00  0.00    +0.049 C 
ENDBRANCH  12  15
BRANCH  13  21
ATOM     21  O   UNL     1      34.220 -14.415 -23.390  0.00  0.00    -0.470 OA
ATOM     22  C   UNL     1      33.920 -14.030 -22.051  0.00  0.00    +0.253 C 
ENDBRANCH  13  21
ENDBRANCH   8   9
BRANCH   2  23
ATOM     23  C   UNL     1      35.133 -22.335 -18.443  0.00  0.00    +0.098 C 
ATOM     24  C   UNL     1      36.381 -21.676 -17.850  0.00  0.00    +0.026 C 
BRANCH  23  26
ATOM     25  F   UNL     1      31.497 -23.890 -14.448  0.00  0.00    -0.204 F 
ATOM     26  C   UNL     1      34.152 -22.754 -17.365  0.00  0.00    -0.004 C 
ATOM     27  C   UNL     1      32.833 -22.986 -17.710  0.00  0.00    -0.000 C 
ATOM     28  C   UNL     1      34.601 -22.894 -16.065  0.00  0.00    -0.000 C 
ATOM     29  C   UNL     1      31.931 -23.373 -16.719  0.00  0.00    +0.029 C 
ATOM     30  C   UNL     1      33.699 -23.281 -15.074  0.00  0.00    +0.029 C 
ATOM     31  C   UNL     1      32.364 -23.519 -15.401  0.00  0.00    +0.140 C 
ENDBRANCH  23  26
ENDBRANCH   2  23
TORSDOF 5
ENDMDL
MODEL 6
REMARK VINA RESULT:     -10.6      5.029     11.660
REMARK  Name = 11560787
REMARK  5 active torsions:
REMARK  status: ('A' for Active; 'I' for Inactive)
REMARK    1  A    between atoms: N_2  and  C_23
REMARK    2  A    between atoms: C_8  and  C_9
REMARK    3  A    between atoms: C_12  and  N_15
REMARK    4  A    between atoms: C_13  and  O_21
REMARK    5  A    between atoms: C_23  and  C_26
REMARK                            x       y       z     vdW  Elec       q    Type
REMARK                         _______ _______ _______ _____ _____    ______ ____
ROOT
ATOM      1  O   UNL     1      32.985 -19.543 -22.400  0.00  0.00    -0.270 OA
ATOM      2  N   UNL     1      35.128 -18.730 -22.751  0.00  0.00    -0.274 N 
ATOM      3  C   UNL     1      36.553 -18.742 -22.424  0.00  0.00    +0.094 C 
ATOM      4  C   UNL     1      36.810 -19.019 -20.956  0.00  0.00    +0.026 C 
ATOM      5  C   UNL     1      36.130 -20.320 -20.573  0.00  0.00    +0.033 C 
ATOM      6  C   UNL     1      34.665 -20.258 -20.882  0.00  0.00    +0.031 C 
ATOM      7  C   UNL     1      34.172 -19.490 -22.074  0.00  0.00    +0.245 C 
ATOM      8  C   UNL     1      33.754 -20.853 -20.096  0.00  0.00    +0.000 C 
ENDROOT
BRANCH   8   9
ATOM      9  C   UNL     1      34.048 -21.644 -18.891  0.00  0.00    +0.003 C 
ATOM     10  C   UNL     1      33.037 -22.387 -18.301  0.00  0.00    +0.038 C 
ATOM     11  C   UNL     1      35.332 -21.633 -18.366  0.00  0.00    +0.001 C 
ATOM     12  C   UNL     1      34.603 -23.137 -16.621  0.00  0.00    +0.084 C 
ATOM     13  C   UNL     1      33.316 -23.138 -17.159  0.00  0.00    +0.152 C 
ATOM     14  C   UNL     1      35.611 -22.383 -17.224  0.00  0.00    +0.018 C 
BRANCH  12  15
ATOM     15  N   UNL     1      34.897 -23.875 -15.487  0.00  0.00    -0.280 N 
ATOM     16  N   UNL     1      35.560 -25.583 -14.221  0.00  0.00    -0.255 NA
ATOM     17  C   UNL     1      34.755 -23.464 -14.187  0.00  0.00    +0.134 C 
ATOM     18  C   UNL     1      35.384 -25.156 -15.451  0.00  0.00    +0.220 C 
ATOM     19  C   UNL     1      35.171 -24.533 -13.428  0.00  0.00    +0.054 C 
ATOM     20  C   UNL     1      35.228 -24.640 -11.962  0.00  0.00    +0.049 C 
ENDBRANCH  12  15
BRANCH  13  21
ATOM     21  O   UNL     1      32.315 -23.866 -16.588  0.00  0.00    -0.470 OA
ATOM     22  C   UNL     1      31.145 -23.155 -16.190  0.00  0.00    +0.253 C 
ENDBRANCH  13  21
ENDBRANCH   8   9
BRANCH   2  23
ATOM     23  C   UNL     1      34.754 -17.996 -23.953  0.00  0.00    +0.098 C 
ATOM     24  C   UNL     1      33.632 -18.743 -24.679  0.00  0.00    +0.026 C 
BRANCH  23  26
ATOM     25  F   UNL     1      33.303 -12.697 -22.766  0.00  0.00    -0.204 F 
ATOM     26  C   UNL     1      34.363 -16.566 -23.633  0.00  0.00    -0.004 C 
ATOM     27  C   UNL     1      33.716 -15.814 -24.596  0.00  0.00    -0.000 C 
ATOM     28  C   UNL     1      34.662 -16.051 -22.385  0.00  0.00    -0.000 C 
ATOM     29  C   UNL     1      33.356 -14.499 -24.302  0.00  0.00    +0.029 C 
ATOM     30  C   UNL     1      34.301 -14.736 -22.091  0.00  0.00    +0.029 C 
ATOM     31  C   UNL     1      33.649 -13.960 -23.049  0.00  0.00    +0.140 C 
ENDBRANCH  23  26
ENDBRANCH   2  23
TORSDOF 5
ENDMDL
MODEL 7
REMARK VINA RESULT:     -10.5      3.498     10.337
REMARK  Name = 11560787
REMARK  5 active torsions:
REMARK  status: ('A' for Active; 'I' for Inactive)
REMARK    1  A    between atoms: N_2  and  C_23
REMARK    2  A    between atoms: C_8  and  C_9
REMARK    3  A    between atoms: C_12  and  N_15
REMARK    4  A    between atoms: C_13  and  O_21
REMARK    5  A    between atoms: C_23  and  C_26
REMARK                            x       y       z     vdW  Elec       q    Type
REMARK                         _______ _______ _______ _____ _____    ______ ____
ROOT
ATOM      1  O   UNL     1      34.560 -11.559 -24.810  0.00  0.00    -0.270 OA
ATOM      2  N   UNL     1      32.830 -10.687 -23.535  0.00  0.00    -0.274 N 
ATOM      3  C   UNL     1      31.925 -10.795 -22.392  0.00  0.00    +0.094 C 
ATOM      4  C   UNL     1      31.529 -12.229 -22.098  0.00  0.00    +0.026 C 
ATOM      5  C   UNL     1      32.785 -13.058 -21.906  0.00  0.00    +0.033 C 
ATOM      6  C   UNL     1      33.669 -12.958 -23.111  0.00  0.00    +0.031 C 
ATOM      7  C   UNL     1      33.741 -11.682 -23.898  0.00  0.00    +0.245 C 
ATOM      8  C   UNL     1      34.395 -14.003 -23.540  0.00  0.00    +0.000 C 
ENDROOT
BRANCH   8   9
ATOM      9  C   UNL     1      34.451 -15.327 -22.902  0.00  0.00    +0.003 C 
ATOM     10  C   UNL     1      34.323 -16.466 -23.682  0.00  0.00    +0.038 C 
ATOM     11  C   UNL     1      34.633 -15.413 -21.529  0.00  0.00    +0.001 C 
ATOM     12  C   UNL     1      34.559 -17.822 -21.697  0.00  0.00    +0.084 C 
ATOM     13  C   UNL     1      34.377 -17.721 -23.076  0.00  0.00    +0.152 C 
ATOM     14  C   UNL     1      34.687 -16.668 -20.923  0.00  0.00    +0.018 C 
BRANCH  12  15
ATOM     15  N   UNL     1      34.614 -19.060 -21.079  0.00  0.00    -0.280 N 
ATOM     16  N   UNL     1      35.469 -20.920 -20.201  0.00  0.00    -0.255 NA
ATOM     17  C   UNL     1      33.548 -19.800 -20.640  0.00  0.00    +0.134 C 
ATOM     18  C   UNL     1      35.746 -19.778 -20.790  0.00  0.00    +0.220 C 
ATOM     19  C   UNL     1      34.100 -20.939 -20.103  0.00  0.00    +0.054 C 
ATOM     20  C   UNL     1      33.409 -22.082 -19.486  0.00  0.00    +0.049 C 
ENDBRANCH  12  15
BRANCH  13  21
ATOM     21  O   UNL     1      34.250 -18.834 -23.853  0.00  0.00    -0.470 OA
ATOM     22  C   UNL     1      33.591 -18.675 -25.107  0.00  0.00    +0.253 C 
ENDBRANCH  13  21
ENDBRANCH   8   9
BRANCH   2  23
ATOM     23  C   UNL     1      32.862  -9.394 -24.205  0.00  0.00    +0.098 C 
ATOM     24  C   UNL     1      32.127  -9.496 -25.545  0.00  0.00    +0.026 C 
BRANCH  23  26
ATOM     25  F   UNL     1      30.728  -5.332 -20.958  0.00  0.00    -0.204 F 
ATOM     26  C   UNL     1      32.286  -8.298 -23.329  0.00  0.00    -0.004 C 
ATOM     27  C   UNL     1      33.055  -7.787 -22.300  0.00  0.00    -0.000 C 
ATOM     28  C   UNL     1      31.007  -7.838 -23.582  0.00  0.00    -0.000 C 
ATOM     29  C   UNL     1      32.525  -6.778 -21.494  0.00  0.00    +0.029 C 
ATOM     30  C   UNL     1      30.478  -6.829 -22.776  0.00  0.00    +0.029 C 
ATOM     31  C   UNL     1      31.236  -6.300 -21.732  0.00  0.00    +0.140 C 
ENDBRANCH  23  26
ENDBRANCH   2  23
TORSDOF 5
ENDMDL
MODEL 8
REMARK VINA RESULT:     -10.2      1.575      2.473
REMARK  Name = 11560787
REMARK  5 active torsions:
REMARK  status: ('A' for Active; 'I' for Inactive)
REMARK    1  A    between atoms: N_2  and  C_23
REMARK    2  A    between atoms: C_8  and  C_9
REMARK    3  A    between atoms: C_12  and  N_15
REMARK    4  A    between atoms: C_13  and  O_21
REMARK    5  A    between atoms: C_23  and  C_26
REMARK                            x       y       z     vdW  Elec       q    Type
REMARK                         _______ _______ _______ _____ _____    ______ ____
ROOT
ATOM      1  O   UNL     1      35.187 -16.671 -21.240  0.00  0.00    -0.270 OA
ATOM      2  N   UNL     1      34.798 -17.738 -23.262  0.00  0.00    -0.274 N 
ATOM      3  C   UNL     1      34.394 -17.676 -24.666  0.00  0.00    +0.094 C 
ATOM      4  C   UNL     1      33.323 -16.633 -24.916  0.00  0.00    +0.026 C 
ATOM      5  C   UNL     1      33.814 -15.290 -24.409  0.00  0.00    +0.033 C 
ATOM      6  C   UNL     1      34.179 -15.379 -22.959  0.00  0.00    +0.031 C 
ATOM      7  C   UNL     1      34.770 -16.640 -22.399  0.00  0.00    +0.245 C 
ATOM      8  C   UNL     1      33.965 -14.357 -22.115  0.00  0.00    +0.000 C 
ENDROOT
BRANCH   8   9
ATOM      9  C   UNL     1      33.397 -13.050 -22.479  0.00  0.00    +0.003 C 
ATOM     10  C   UNL     1      34.048 -12.261 -23.415  0.00  0.00    +0.038 C 
ATOM     11  C   UNL     1      32.218 -12.629 -21.880  0.00  0.00    +0.001 C 
ATOM     12  C   UNL     1      32.324 -10.587 -23.167  0.00  0.00    +0.084 C 
ATOM     13  C   UNL     1      33.508 -11.022 -23.761  0.00  0.00    +0.152 C 
ATOM     14  C   UNL     1      31.679 -11.390 -22.226  0.00  0.00    +0.018 C 
BRANCH  12  15
ATOM     15  N   UNL     1      31.776  -9.359 -23.497  0.00  0.00    -0.280 N 
ATOM     16  N   UNL     1      30.564  -7.498 -23.324  0.00  0.00    -0.255 NA
ATOM     17  C   UNL     1      31.999  -8.650 -24.648  0.00  0.00    +0.134 C 
ATOM     18  C   UNL     1      30.907  -8.622 -22.735  0.00  0.00    +0.220 C 
ATOM     19  C   UNL     1      31.243  -7.509 -24.517  0.00  0.00    +0.054 C 
ATOM     20  C   UNL     1      31.107  -6.392 -25.465  0.00  0.00    +0.049 C 
ENDBRANCH  12  15
BRANCH  13  21
ATOM     21  O   UNL     1      34.157 -10.255 -24.683  0.00  0.00    -0.470 OA
ATOM     22  C   UNL     1      34.552 -10.896 -25.893  0.00  0.00    +0.253 C 
ENDBRANCH  13  21
ENDBRANCH   8   9
BRANCH   2  23
ATOM     23  C   UNL     1      35.404 -18.990 -22.826  0.00  0.00    +0.098 C 
ATOM     24  C   UNL     1      36.837 -18.725 -22.354  0.00  0.00    +0.026 C 
BRANCH  23  26
ATOM     25  F   UNL     1      32.327 -21.495 -18.845  0.00  0.00    -0.204 F 
ATOM     26  C   UNL     1      34.574 -19.665 -21.752  0.00  0.00    -0.004 C 
ATOM     27  C   UNL     1      35.213 -20.406 -20.775  0.00  0.00    -0.000 C 
ATOM     28  C   UNL     1      33.199 -19.524 -21.776  0.00  0.00    -0.000 C 
ATOM     29  C   UNL     1      34.450 -21.028 -19.786  0.00  0.00    +0.029 C 
ATOM     30  C   UNL     1      32.435 -20.146 -20.788  0.00  0.00    +0.029 C 
ATOM     31  C   UNL     1      33.060 -20.897 -19.794  0.00  0.00    +0.140 C 
ENDBRANCH  23  26
ENDBRANCH   2  23
TORSDOF 5
ENDMDL
MODEL 9
REMARK VINA RESULT:     -10.1      5.818      9.718
REMARK  Name = 11560787
REMARK  5 active torsions:
REMARK  status: ('A' for Active; 'I' for Inactive)
REMARK    1  A    between atoms: N_2  and  C_23
REMARK    2  A    between atoms: C_8  and  C_9
REMARK    3  A    between atoms: C_12  and  N_15
REMARK    4  A    between atoms: C_13  and  O_21
REMARK    5  A    between atoms: C_23  and  C_26
REMARK                            x       y       z     vdW  Elec       q    Type
REMARK                         _______ _______ _______ _____ _____    ______ ____
ROOT
ATOM      1  O   UNL     1      33.501 -24.328 -17.000  0.00  0.00    -0.270 OA
ATOM      2  N   UNL     1      35.507 -24.008 -15.881  0.00  0.00    -0.274 N 
ATOM      3  C   UNL     1      36.690 -23.191 -15.618  0.00  0.00    +0.094 C 
ATOM      4  C   UNL     1      37.159 -22.434 -16.845  0.00  0.00    +0.026 C 
ATOM      5  C   UNL     1      36.008 -21.607 -17.385  0.00  0.00    +0.033 C 
ATOM      6  C   UNL     1      34.828 -22.481 -17.684  0.00  0.00    +0.031 C 
ATOM      7  C   UNL     1      34.538 -23.684 -16.833  0.00  0.00    +0.245 C 
ATOM      8  C   UNL     1      34.019 -22.239 -18.727  0.00  0.00    +0.000 C 
ENDROOT
BRANCH   8   9
ATOM      9  C   UNL     1      34.146 -21.115 -19.667  0.00  0.00    +0.003 C 
ATOM     10  C   UNL     1      35.390 -20.541 -19.879  0.00  0.00    +0.038 C 
ATOM     11  C   UNL     1      33.018 -20.648 -20.326  0.00  0.00    +0.001 C 
ATOM     12  C   UNL     1      34.385 -18.996 -21.440  0.00  0.00    +0.084 C 
ATOM     13  C   UNL     1      35.510 -19.475 -20.771  0.00  0.00    +0.152 C 
ATOM     14  C   UNL     1      33.138 -19.582 -21.217  0.00  0.00    +0.018 C 
BRANCH  12  15
ATOM     15  N   UNL     1      34.485 -17.938 -22.327  0.00  0.00    -0.280 N 
ATOM     16  N   UNL     1      34.864 -15.879 -23.088  0.00  0.00    -0.255 NA
ATOM     17  C   UNL     1      34.221 -17.973 -23.671  0.00  0.00    +0.134 C 
ATOM     18  C   UNL     1      34.868 -16.656 -22.028  0.00  0.00    +0.220 C 
ATOM     19  C   UNL     1      34.462 -16.694 -24.116  0.00  0.00    +0.054 C 
ATOM     20  C   UNL     1      34.335 -16.167 -25.483  0.00  0.00    +0.049 C 
ENDBRANCH  12  15
BRANCH  13  21
ATOM     21  O   UNL     1      36.739 -18.919 -20.972  0.00  0.00    -0.470 OA
ATOM     22  C   UNL     1      37.318 -19.083 -22.264  0.00  0.00    +0.253 C 
ENDBRANCH  13  21
ENDBRANCH   8   9
BRANCH   2  23
ATOM     23  C   UNL     1      35.287 -25.126 -14.973  0.00  0.00    +0.098 C 
ATOM     24  C   UNL     1      36.163 -26.308 -15.397  0.00  0.00    +0.026 C 
BRANCH  23  26
ATOM     25  F   UNL     1      36.215 -23.655  -9.628  0.00  0.00    -0.204 F 
ATOM     26  C   UNL     1      35.538 -24.729 -13.531  0.00  0.00    -0.004 C 
ATOM     27  C   UNL     1      34.525 -24.117 -12.816  0.00  0.00    -0.000 C 
ATOM     28  C   UNL     1      36.773 -24.990 -12.967  0.00  0.00    -0.000 C 
ATOM     29  C   UNL     1      34.755 -23.752 -11.490  0.00  0.00    +0.029 C 
ATOM     30  C   UNL     1      37.003 -24.625 -11.640  0.00  0.00    +0.029 C 
ATOM     31  C   UNL     1      35.994 -24.006 -10.902  0.00  0.00    +0.140 C 
ENDBRANCH  23  26
ENDBRANCH   2  23
TORSDOF 5
ENDMDL
