MODEL 1
REMARK VINA RESULT:     -12.0      0.000      0.000
REMARK  Name = 8969
REMARK  3 active torsions:
REMARK  status: ('A' for Active; 'I' for Inactive)
REMARK    1  A    between atoms: C_7  and  C_27
REMARK    2  A    between atoms: C_10  and  O_24
REMARK    3  A    between atoms: C_27  and  O_28
REMARK                            x       y       z     vdW  Elec       q    Type
REMARK                         _______ _______ _______ _____ _____    ______ ____
ROOT
ATOM      1  N   UNL     1      33.909 -22.971 -16.630  0.00  0.00    +0.392 N 
ATOM      2  N   UNL     1      32.541 -21.491 -19.783  0.00  0.00    -0.358 N 
ATOM      3  C   UNL     1      31.128 -23.698 -16.074  0.00  0.00    +0.009 C 
ATOM      4  C   UNL     1      32.233 -23.736 -14.996  0.00  0.00    -0.020 C 
ATOM      5  C   UNL     1      31.509 -22.667 -17.152  0.00  0.00    -0.015 C 
ATOM      6  C   UNL     1      32.903 -22.974 -17.727  0.00  0.00    -0.019 C 
ATOM      7  C   UNL     1      29.763 -23.403 -15.421  0.00  0.00    +0.126 C 
ATOM      8  C   UNL     1      33.607 -24.005 -15.632  0.00  0.00    -0.077 C 
ATOM      9  C   UNL     1      31.910 -24.767 -13.909  0.00  0.00    +0.000 C 
ATOM     10  C   UNL     1      29.431 -24.425 -14.320  0.00  0.00    +0.121 C 
ATOM     11  C   UNL     1      30.544 -24.492 -13.274  0.00  0.00    +0.030 C 
ATOM     12  C   UNL     1      33.320 -21.992 -18.779  0.00  0.00    +0.010 A 
ATOM     13  C   UNL     1      35.288 -23.104 -17.147  0.00  0.00    -0.072 C 
ATOM     14  C   UNL     1      34.598 -21.496 -18.934  0.00  0.00    -0.013 A 
ATOM     15  C   UNL     1      35.689 -21.874 -17.995  0.00  0.00    +0.005 C 
ATOM     16  C   UNL     1      34.593 -20.631 -20.060  0.00  0.00    +0.013 A 
ATOM     17  C   UNL     1      33.291 -20.645 -20.574  0.00  0.00    +0.056 A 
ATOM     18  C   UNL     1      35.565 -19.837 -20.700  0.00  0.00    +0.001 C 
ATOM     19  C   UNL     1      32.917 -19.902 -21.701  0.00  0.00    +0.017 C 
ATOM     20  C   UNL     1      35.203 -19.088 -21.826  0.00  0.00    +0.000 C 
ATOM     21  C   UNL     1      33.900 -19.121 -22.317  0.00  0.00    +0.001 C 
ATOM     22  H   UNL     1      33.851 -22.064 -16.166  0.00  0.00    -0.079 HD
ATOM     23  H   UNL     1      31.590 -21.701 -19.922  0.00  0.00    +0.166 HD
ENDROOT
BRANCH  10  24
ATOM     24  O   UNL     1      29.267 -25.720 -14.900  0.00  0.00    -0.384 OA
ATOM     25  H   UNL     1      28.936 -26.336 -14.229  0.00  0.00    +0.210 HD
ENDBRANCH  10  24
BRANCH   7  27
ATOM     26  O   UNL     1      28.341 -24.387 -17.101  0.00  0.00    -0.250 OA
ATOM     27  C   UNL     1      28.657 -23.408 -16.436  0.00  0.00    +0.319 C 
BRANCH  27  28
ATOM     28  O   UNL     1      28.082 -22.173 -16.490  0.00  0.00    -0.444 OA
ATOM     29  C   UNL     1      26.651 -22.160 -16.483  0.00  0.00    +0.256 C 
ENDBRANCH  27  28
ENDBRANCH   7  27
TORSDOF 3
ENDMDL
MODEL 2
REMARK VINA RESULT:     -10.3      7.932     12.080
REMARK  Name = 8969
REMARK  3 active torsions:
REMARK  status: ('A' for Active; 'I' for Inactive)
REMARK    1  A    between atoms: C_7  and  C_27
REMARK    2  A    between atoms: C_10  and  O_24
REMARK    3  A    between atoms: C_27  and  O_28
REMARK                            x       y       z     vdW  Elec       q    Type
REMARK                         _______ _______ _______ _____ _____    ______ ____
ROOT
ATOM      1  N   UNL     1      32.685 -14.488 -26.642  0.00  0.00    +0.392 N 
ATOM      2  N   UNL     1      34.150 -11.943 -24.321  0.00  0.00    -0.358 N 
ATOM      3  C   UNL     1      33.626 -16.440 -24.673  0.00  0.00    +0.009 C 
ATOM      4  C   UNL     1      33.180 -16.837 -26.098  0.00  0.00    -0.020 C 
ATOM      5  C   UNL     1      34.119 -14.982 -24.686  0.00  0.00    -0.015 C 
ATOM      6  C   UNL     1      33.041 -14.049 -25.264  0.00  0.00    -0.019 C 
ATOM      7  C   UNL     1      34.691 -17.427 -24.158  0.00  0.00    +0.126 C 
ATOM      8  C   UNL     1      32.135 -15.849 -26.639  0.00  0.00    -0.077 C 
ATOM      9  C   UNL     1      32.658 -18.278 -26.133  0.00  0.00    +0.000 C 
ATOM     10  C   UNL     1      34.183 -18.879 -24.197  0.00  0.00    +0.121 C 
ATOM     11  C   UNL     1      33.705 -19.260 -25.599  0.00  0.00    +0.030 C 
ATOM     12  C   UNL     1      33.478 -12.617 -25.302  0.00  0.00    +0.010 A 
ATOM     13  C   UNL     1      31.769 -13.534 -27.304  0.00  0.00    -0.072 C 
ATOM     14  C   UNL     1      33.198 -11.732 -26.322  0.00  0.00    -0.013 A 
ATOM     15  C   UNL     1      32.455 -12.167 -27.535  0.00  0.00    +0.005 C 
ATOM     16  C   UNL     1      33.749 -10.472 -25.965  0.00  0.00    +0.013 A 
ATOM     17  C   UNL     1      34.340 -10.632 -24.707  0.00  0.00    +0.056 A 
ATOM     18  C   UNL     1      33.802  -9.207 -26.583  0.00  0.00    +0.001 C 
ATOM     19  C   UNL     1      34.982  -9.583 -24.037  0.00  0.00    +0.017 C 
ATOM     20  C   UNL     1      34.443  -8.151 -25.925  0.00  0.00    +0.000 C 
ATOM     21  C   UNL     1      35.023  -8.338 -24.673  0.00  0.00    +0.001 C 
ATOM     22  H   UNL     1      33.546 -14.501 -27.189  0.00  0.00    -0.079 HD
ATOM     23  H   UNL     1      34.453 -12.332 -23.470  0.00  0.00    +0.166 HD
ENDROOT
BRANCH  10  24
ATOM     24  O   UNL     1      33.095 -19.032 -23.284  0.00  0.00    -0.384 OA
ATOM     25  H   UNL     1      33.392 -18.816 -22.387  0.00  0.00    +0.210 HD
ENDBRANCH  10  24
BRANCH   7  27
ATOM     26  O   UNL     1      34.692 -16.138 -22.121  0.00  0.00    -0.250 OA
ATOM     27  C   UNL     1      35.110 -17.099 -22.754  0.00  0.00    +0.319 C 
BRANCH  27  28
ATOM     28  O   UNL     1      36.010 -18.026 -22.318  0.00  0.00    -0.444 OA
ATOM     29  C   UNL     1      35.728 -18.602 -21.038  0.00  0.00    +0.256 C 
ENDBRANCH  27  28
ENDBRANCH   7  27
TORSDOF 3
ENDMDL
MODEL 3
REMARK VINA RESULT:      -9.9     12.050     14.854
REMARK  Name = 8969
REMARK  3 active torsions:
REMARK  status: ('A' for Active; 'I' for Inactive)
REMARK    1  A    between atoms: C_7  and  C_27
REMARK    2  A    between atoms: C_10  and  O_24
REMARK    3  A    between atoms: C_27  and  O_28
REMARK                            x       y       z     vdW  Elec       q    Type
REMARK                         _______ _______ _______ _____ _____    ______ ____
ROOT
ATOM      1  N   UNL     1      32.976  -8.201 -24.574  0.00  0.00    +0.392 N 
ATOM      2  N   UNL     1      33.140 -11.911 -24.109  0.00  0.00    -0.358 N 
ATOM      3  C   UNL     1      32.369  -8.133 -21.710  0.00  0.00    +0.009 C 
ATOM      4  C   UNL     1      32.149  -6.920 -22.640  0.00  0.00    -0.020 C 
ATOM      5  C   UNL     1      32.283  -9.428 -22.539  0.00  0.00    -0.015 C 
ATOM      6  C   UNL     1      33.269  -9.384 -23.718  0.00  0.00    -0.019 C 
ATOM      7  C   UNL     1      31.358  -8.099 -20.547  0.00  0.00    +0.126 C 
ATOM      8  C   UNL     1      33.134  -6.950 -23.820  0.00  0.00    -0.077 C 
ATOM      9  C   UNL     1      32.249  -5.602 -21.863  0.00  0.00    +0.000 C 
ATOM     10  C   UNL     1      31.440  -6.776 -19.766  0.00  0.00    +0.121 C 
ATOM     11  C   UNL     1      31.262  -5.573 -20.693  0.00  0.00    +0.030 C 
ATOM     12  C   UNL     1      33.218 -10.623 -24.559  0.00  0.00    +0.010 A 
ATOM     13  C   UNL     1      33.792  -8.197 -25.807  0.00  0.00    -0.072 C 
ATOM     14  C   UNL     1      33.315 -10.649 -25.934  0.00  0.00    -0.013 A 
ATOM     15  C   UNL     1      33.430  -9.391 -26.721  0.00  0.00    +0.005 C 
ATOM     16  C   UNL     1      33.263 -12.008 -26.346  0.00  0.00    +0.013 A 
ATOM     17  C   UNL     1      33.154 -12.778 -25.183  0.00  0.00    +0.056 A 
ATOM     18  C   UNL     1      33.303 -12.664 -27.592  0.00  0.00    +0.001 C 
ATOM     19  C   UNL     1      33.082 -14.176 -25.209  0.00  0.00    +0.017 C 
ATOM     20  C   UNL     1      33.230 -14.061 -27.632  0.00  0.00    +0.000 C 
ATOM     21  C   UNL     1      33.121 -14.803 -26.458  0.00  0.00    +0.001 C 
ATOM     22  H   UNL     1      32.000  -8.269 -24.862  0.00  0.00    -0.079 HD
ATOM     23  H   UNL     1      33.084 -12.181 -23.165  0.00  0.00    +0.166 HD
ENDROOT
BRANCH  10  24
ATOM     24  O   UNL     1      32.713  -6.676 -19.124  0.00  0.00    -0.384 OA
ATOM     25  H   UNL     1      33.282  -7.404 -19.417  0.00  0.00    +0.210 HD
ENDBRANCH  10  24
BRANCH   7  27
ATOM     26  O   UNL     1      32.645  -9.477 -19.045  0.00  0.00    -0.250 OA
ATOM     27  C   UNL     1      31.577  -9.239 -19.595  0.00  0.00    +0.319 C 
BRANCH  27  28
ATOM     28  O   UNL     1      30.418  -9.942 -19.452  0.00  0.00    -0.444 OA
ATOM     29  C   UNL     1      30.111 -10.844 -20.519  0.00  0.00    +0.256 C 
ENDBRANCH  27  28
ENDBRANCH   7  27
TORSDOF 3
ENDMDL
MODEL 4
REMARK VINA RESULT:      -9.4     10.668     14.595
REMARK  Name = 8969
REMARK  3 active torsions:
REMARK  status: ('A' for Active; 'I' for Inactive)
REMARK    1  A    between atoms: C_7  and  C_27
REMARK    2  A    between atoms: C_10  and  O_24
REMARK    3  A    between atoms: C_27  and  O_28
REMARK                            x       y       z     vdW  Elec       q    Type
REMARK                         _______ _______ _______ _____ _____    ______ ____
ROOT
ATOM      1  N   UNL     1      32.287  -9.631 -25.194  0.00  0.00    +0.392 N 
ATOM      2  N   UNL     1      33.498 -12.572 -23.221  0.00  0.00    -0.358 N 
ATOM      3  C   UNL     1      32.046  -8.315 -22.589  0.00  0.00    +0.009 C 
ATOM      4  C   UNL     1      31.395  -7.755 -23.873  0.00  0.00    -0.020 C 
ATOM      5  C   UNL     1      32.208  -9.840 -22.729  0.00  0.00    -0.015 C 
ATOM      6  C   UNL     1      32.992 -10.188 -24.006  0.00  0.00    -0.019 C 
ATOM      7  C   UNL     1      31.215  -7.913 -21.355  0.00  0.00    +0.126 C 
ATOM      8  C   UNL     1      32.196  -8.168 -25.118  0.00  0.00    -0.077 C 
ATOM      9  C   UNL     1      31.233  -6.233 -23.792  0.00  0.00    +0.000 C 
ATOM     10  C   UNL     1      31.037  -6.387 -21.268  0.00  0.00    +0.121 C 
ATOM     11  C   UNL     1      30.428  -5.827 -22.554  0.00  0.00    +0.030 C 
ATOM     12  C   UNL     1      33.170 -11.665 -24.188  0.00  0.00    +0.010 A 
ATOM     13  C   UNL     1      32.912 -10.070 -26.460  0.00  0.00    -0.072 C 
ATOM     14  C   UNL     1      33.099 -12.325 -25.396  0.00  0.00    -0.013 A 
ATOM     15  C   UNL     1      32.773 -11.598 -26.653  0.00  0.00    +0.005 C 
ATOM     16  C   UNL     1      33.363 -13.700 -25.154  0.00  0.00    +0.013 A 
ATOM     17  C   UNL     1      33.610 -13.828 -23.782  0.00  0.00    +0.056 A 
ATOM     18  C   UNL     1      33.422 -14.852 -25.962  0.00  0.00    +0.001 C 
ATOM     19  C   UNL     1      33.913 -15.056 -23.182  0.00  0.00    +0.017 C 
ATOM     20  C   UNL     1      33.722 -16.086 -25.374  0.00  0.00    +0.000 C 
ATOM     21  C   UNL     1      33.964 -16.184 -24.006  0.00  0.00    +0.001 C 
ATOM     22  H   UNL     1      31.337 -10.003 -25.186  0.00  0.00    -0.079 HD
ATOM     23  H   UNL     1      33.634 -12.363 -22.269  0.00  0.00    +0.166 HD
ENDROOT
BRANCH  10  24
ATOM     24  O   UNL     1      32.305  -5.766 -21.052  0.00  0.00    -0.384 OA
ATOM     25  H   UNL     1      32.712  -5.555 -21.906  0.00  0.00    +0.210 HD
ENDBRANCH  10  24
BRANCH   7  27
ATOM     26  O   UNL     1      32.977  -8.093 -19.720  0.00  0.00    -0.250 OA
ATOM     27  C   UNL     1      31.849  -8.400 -20.084  0.00  0.00    +0.319 C 
BRANCH  27  28
ATOM     28  O   UNL     1      30.980  -9.217 -19.425  0.00  0.00    -0.444 OA
ATOM     29  C   UNL     1      31.496 -10.503 -19.068  0.00  0.00    +0.256 C 
ENDBRANCH  27  28
ENDBRANCH   7  27
TORSDOF 3
ENDMDL
