MODEL 1
REMARK VINA RESULT:     -12.6      0.000      0.000
REMARK  Name = 448384
REMARK  11 active torsions:
REMARK  status: ('A' for Active; 'I' for Inactive)
REMARK    1  A    between atoms: C_1  and  C_3
REMARK    2  A    between atoms: C_1  and  C_6
REMARK    3  A    between atoms: C_1  and  C_19
REMARK    4  A    between atoms: C_3  and  O_4
REMARK    5  A    between atoms: C_6  and  C_7
REMARK    6  A    between atoms: C_7  and  N_10
REMARK    7  A    between atoms: C_19  and  C_21
REMARK    8  A    between atoms: C_21  and  C_22
REMARK    9  A    between atoms: C_25  and  C_28
REMARK   10  A    between atoms: C_33  and  O_34
REMARK   11  A    between atoms: O_34  and  C_35
REMARK                            x       y       z     vdW  Elec       q    Type
REMARK                         _______ _______ _______ _____ _____    ______ ____
ROOT
ATOM      1  C   UNL     1      32.380 -23.176 -16.079  0.00  0.00    +0.108 C 
ENDROOT
BRANCH   1   3
ATOM      2  O   UNL     1      30.091 -23.412 -15.285  0.00  0.00    -0.250 OA
ATOM      3  C   UNL     1      30.867 -23.017 -16.147  0.00  0.00    +0.314 C 
BRANCH   3   4
ATOM      4  O   UNL     1      30.455 -22.379 -17.270  0.00  0.00    -0.480 OA
ATOM      5  H   UNL     1      29.651 -21.898 -17.267  0.00  0.00    +0.295 HD
ENDBRANCH   3   4
ENDBRANCH   1   3
BRANCH   1   6
ATOM      6  C   UNL     1      32.749 -24.358 -15.159  0.00  0.00    +0.034 C 
BRANCH   6   7
ATOM      7  C   UNL     1      33.529 -23.950 -13.909  0.00  0.00    +0.102 C 
BRANCH   7  10
ATOM      8  O   UNL     1      34.846 -25.948 -15.686  0.00  0.00    -0.269 OA
ATOM      9  O   UNL     1      35.803 -23.055 -12.196  0.00  0.00    -0.269 OA
ATOM     10  N   UNL     1      34.902 -24.369 -13.936  0.00  0.00    -0.223 N 
ATOM     11  C   UNL     1      35.411 -25.313 -14.815  0.00  0.00    +0.255 C 
ATOM     12  C   UNL     1      35.883 -23.879 -13.087  0.00  0.00    +0.255 C 
ATOM     13  C   UNL     1      36.836 -25.428 -14.507  0.00  0.00    +0.058 C 
ATOM     14  C   UNL     1      37.122 -24.561 -13.463  0.00  0.00    +0.058 C 
ATOM     15  C   UNL     1      37.807 -26.220 -15.085  0.00  0.00    +0.005 C 
ATOM     16  C   UNL     1      38.393 -24.441 -12.940  0.00  0.00    +0.005 C 
ATOM     17  C   UNL     1      39.102 -26.116 -14.572  0.00  0.00    +0.000 C 
ATOM     18  C   UNL     1      39.393 -25.235 -13.509  0.00  0.00    +0.000 C 
ENDBRANCH   7  10
ENDBRANCH   6   7
ENDBRANCH   1   6
BRANCH   1  19
ATOM     19  C   UNL     1      32.910 -23.420 -17.505  0.00  0.00    +0.080 C 
BRANCH  19  21
ATOM     20  O   UNL     1      35.227 -22.859 -17.111  0.00  0.00    -0.291 OA
ATOM     21  C   UNL     1      34.217 -22.688 -17.790  0.00  0.00    +0.174 C 
BRANCH  21  22
ATOM     22  C   UNL     1      34.262 -21.723 -18.926  0.00  0.00    +0.035 C 
ATOM     23  C   UNL     1      35.490 -21.279 -19.418  0.00  0.00    +0.003 C 
ATOM     24  C   UNL     1      33.075 -21.265 -19.499  0.00  0.00    +0.003 C 
ATOM     25  C   UNL     1      34.344 -19.919 -21.053  0.00  0.00    +0.000 C 
ATOM     26  C   UNL     1      35.531 -20.377 -20.480  0.00  0.00    +0.000 C 
ATOM     27  C   UNL     1      33.116 -20.362 -20.562  0.00  0.00    +0.000 C 
BRANCH  25  28
ATOM     28  C   UNL     1      34.386 -18.982 -22.155  0.00  0.00    +0.000 C 
ATOM     29  C   UNL     1      34.852 -17.683 -21.948  0.00  0.00    +0.003 C 
ATOM     30  C   UNL     1      33.958 -19.376 -23.423  0.00  0.00    +0.003 C 
ATOM     31  C   UNL     1      34.891 -16.779 -23.009  0.00  0.00    +0.037 C 
ATOM     32  C   UNL     1      33.997 -18.472 -24.484  0.00  0.00    +0.037 C 
ATOM     33  C   UNL     1      34.463 -17.173 -24.277  0.00  0.00    +0.139 C 
BRANCH  33  34
ATOM     34  O   UNL     1      34.503 -16.291 -25.313  0.00  0.00    -0.475 OA
BRANCH  34  35
ATOM     35  C   UNL     1      33.339 -15.497 -25.536  0.00  0.00    +0.206 C 
ATOM     36  C   UNL     1      32.715 -15.897 -26.856  0.00  0.00    +0.051 C 
ENDBRANCH  34  35
ENDBRANCH  33  34
ENDBRANCH  25  28
ENDBRANCH  21  22
ENDBRANCH  19  21
ENDBRANCH   1  19
TORSDOF 11
ENDMDL
MODEL 2
REMARK VINA RESULT:     -12.2      4.583     12.632
REMARK  Name = 448384
REMARK  11 active torsions:
REMARK  status: ('A' for Active; 'I' for Inactive)
REMARK    1  A    between atoms: C_1  and  C_3
REMARK    2  A    between atoms: C_1  and  C_6
REMARK    3  A    between atoms: C_1  and  C_19
REMARK    4  A    between atoms: C_3  and  O_4
REMARK    5  A    between atoms: C_6  and  C_7
REMARK    6  A    between atoms: C_7  and  N_10
REMARK    7  A    between atoms: C_19  and  C_21
REMARK    8  A    between atoms: C_21  and  C_22
REMARK    9  A    between atoms: C_25  and  C_28
REMARK   10  A    between atoms: C_33  and  O_34
REMARK   11  A    between atoms: O_34  and  C_35
REMARK                            x       y       z     vdW  Elec       q    Type
REMARK                         _______ _______ _______ _____ _____    ______ ____
ROOT
ATOM      1  C   UNL     1      33.123 -14.333 -26.388  0.00  0.00    +0.108 C 
ENDROOT
BRANCH   1   3
ATOM      2  O   UNL     1      31.112 -14.322 -27.759  0.00  0.00    -0.250 OA
ATOM      3  C   UNL     1      32.181 -14.845 -27.470  0.00  0.00    +0.314 C 
BRANCH   3   4
ATOM      4  O   UNL     1      32.652 -15.952 -28.097  0.00  0.00    -0.480 OA
ATOM      5  H   UNL     1      32.197 -16.298 -28.839  0.00  0.00    +0.295 HD
ENDBRANCH   3   4
ENDBRANCH   1   3
BRANCH   1   6
ATOM      6  C   UNL     1      32.719 -12.906 -25.965  0.00  0.00    +0.034 C 
BRANCH   6   7
ATOM      7  C   UNL     1      33.670 -12.269 -24.950  0.00  0.00    +0.102 C 
BRANCH   7  10
ATOM      8  O   UNL     1      32.948 -13.677 -22.424  0.00  0.00    -0.269 OA
ATOM      9  O   UNL     1      32.628  -9.519 -24.443  0.00  0.00    -0.269 OA
ATOM     10  N   UNL     1      32.999 -11.756 -23.790  0.00  0.00    -0.223 N 
ATOM     11  C   UNL     1      32.714 -12.506 -22.659  0.00  0.00    +0.255 C 
ATOM     12  C   UNL     1      32.557 -10.447 -23.660  0.00  0.00    +0.255 C 
ATOM     13  C   UNL     1      32.043 -11.599 -21.728  0.00  0.00    +0.058 C 
ATOM     14  C   UNL     1      31.948 -10.354 -22.333  0.00  0.00    +0.058 C 
ATOM     15  C   UNL     1      31.553 -11.833 -20.459  0.00  0.00    +0.005 C 
ATOM     16  C   UNL     1      31.358  -9.279 -21.703  0.00  0.00    +0.005 C 
ATOM     17  C   UNL     1      30.952 -10.757 -19.801  0.00  0.00    +0.000 C 
ATOM     18  C   UNL     1      30.854  -9.492 -20.416  0.00  0.00    +0.000 C 
ENDBRANCH   7  10
ENDBRANCH   6   7
ENDBRANCH   1   6
BRANCH   1  19
ATOM     19  C   UNL     1      33.050 -15.292 -25.183  0.00  0.00    +0.080 C 
BRANCH  19  21
ATOM     20  O   UNL     1      34.929 -16.473 -26.138  0.00  0.00    -0.291 OA
ATOM     21  C   UNL     1      34.123 -16.375 -25.216  0.00  0.00    +0.174 C 
BRANCH  21  22
ATOM     22  C   UNL     1      34.184 -17.353 -24.092  0.00  0.00    +0.035 C 
ATOM     23  C   UNL     1      33.663 -18.637 -24.255  0.00  0.00    +0.003 C 
ATOM     24  C   UNL     1      34.763 -16.984 -22.878  0.00  0.00    +0.003 C 
ATOM     25  C   UNL     1      34.300 -19.182 -21.989  0.00  0.00    +0.000 C 
ATOM     26  C   UNL     1      33.720 -19.551 -23.203  0.00  0.00    +0.000 C 
ATOM     27  C   UNL     1      34.821 -17.899 -21.826  0.00  0.00    +0.000 C 
BRANCH  25  28
ATOM     28  C   UNL     1      34.359 -20.130 -20.897  0.00  0.00    +0.000 C 
ATOM     29  C   UNL     1      33.180 -20.655 -20.366  0.00  0.00    +0.003 C 
ATOM     30  C   UNL     1      35.593 -20.517 -20.374  0.00  0.00    +0.003 C 
ATOM     31  C   UNL     1      33.236 -21.567 -19.312  0.00  0.00    +0.037 C 
ATOM     32  C   UNL     1      35.648 -21.429 -19.321  0.00  0.00    +0.037 C 
ATOM     33  C   UNL     1      34.470 -21.954 -18.789  0.00  0.00    +0.139 C 
BRANCH  33  34
ATOM     34  O   UNL     1      34.524 -22.846 -17.762  0.00  0.00    -0.475 OA
BRANCH  34  35
ATOM     35  C   UNL     1      33.287 -23.204 -17.147  0.00  0.00    +0.206 C 
ATOM     36  C   UNL     1      33.547 -23.593 -15.707  0.00  0.00    +0.051 C 
ENDBRANCH  34  35
ENDBRANCH  33  34
ENDBRANCH  25  28
ENDBRANCH  21  22
ENDBRANCH  19  21
ENDBRANCH   1  19
TORSDOF 11
ENDMDL
MODEL 3
REMARK VINA RESULT:     -12.2      4.592     12.642
REMARK  Name = 448384
REMARK  11 active torsions:
REMARK  status: ('A' for Active; 'I' for Inactive)
REMARK    1  A    between atoms: C_1  and  C_3
REMARK    2  A    between atoms: C_1  and  C_6
REMARK    3  A    between atoms: C_1  and  C_19
REMARK    4  A    between atoms: C_3  and  O_4
REMARK    5  A    between atoms: C_6  and  C_7
REMARK    6  A    between atoms: C_7  and  N_10
REMARK    7  A    between atoms: C_19  and  C_21
REMARK    8  A    between atoms: C_21  and  C_22
REMARK    9  A    between atoms: C_25  and  C_28
REMARK   10  A    between atoms: C_33  and  O_34
REMARK   11  A    between atoms: O_34  and  C_35
REMARK                            x       y       z     vdW  Elec       q    Type
REMARK                         _______ _______ _______ _____ _____    ______ ____
ROOT
ATOM      1  C   UNL     1      33.136 -14.303 -26.375  0.00  0.00    +0.108 C 
ENDROOT
BRANCH   1   3
ATOM      2  O   UNL     1      31.138 -14.277 -27.764  0.00  0.00    -0.250 OA
ATOM      3  C   UNL     1      32.204 -14.804 -27.470  0.00  0.00    +0.314 C 
BRANCH   3   4
ATOM      4  O   UNL     1      32.679 -15.905 -28.103  0.00  0.00    -0.480 OA
ATOM      5  H   UNL     1      33.095 -15.822 -28.938  0.00  0.00    +0.295 HD
ENDBRANCH   3   4
ENDBRANCH   1   3
BRANCH   1   6
ATOM      6  C   UNL     1      32.726 -12.882 -25.937  0.00  0.00    +0.034 C 
BRANCH   6   7
ATOM      7  C   UNL     1      33.676 -12.249 -24.920  0.00  0.00    +0.102 C 
BRANCH   7  10
ATOM      8  O   UNL     1      32.677  -9.492 -24.389  0.00  0.00    -0.269 OA
ATOM      9  O   UNL     1      32.929 -13.671 -22.405  0.00  0.00    -0.269 OA
ATOM     10  N   UNL     1      33.006 -11.740 -23.758  0.00  0.00    -0.223 N 
ATOM     11  C   UNL     1      32.578 -10.428 -23.617  0.00  0.00    +0.255 C 
ATOM     12  C   UNL     1      32.704 -12.499 -22.637  0.00  0.00    +0.255 C 
ATOM     13  C   UNL     1      31.944 -10.346 -22.302  0.00  0.00    +0.058 C 
ATOM     14  C   UNL     1      32.019 -11.598 -21.709  0.00  0.00    +0.058 C 
ATOM     15  C   UNL     1      31.350  -9.273 -21.669  0.00  0.00    +0.005 C 
ATOM     16  C   UNL     1      31.506 -11.843 -20.453  0.00  0.00    +0.005 C 
ATOM     17  C   UNL     1      30.822  -9.498 -20.396  0.00  0.00    +0.000 C 
ATOM     18  C   UNL     1      30.899 -10.770 -19.792  0.00  0.00    +0.000 C 
ENDBRANCH   7  10
ENDBRANCH   6   7
ENDBRANCH   1   6
BRANCH   1  19
ATOM     19  C   UNL     1      33.057 -15.277 -25.183  0.00  0.00    +0.080 C 
BRANCH  19  21
ATOM     20  O   UNL     1      34.914 -16.472 -26.166  0.00  0.00    -0.291 OA
ATOM     21  C   UNL     1      34.125 -16.365 -25.230  0.00  0.00    +0.174 C 
BRANCH  21  22
ATOM     22  C   UNL     1      34.201 -17.339 -24.102  0.00  0.00    +0.035 C 
ATOM     23  C   UNL     1      34.680 -16.929 -22.857  0.00  0.00    +0.003 C 
ATOM     24  C   UNL     1      33.793 -18.659 -24.292  0.00  0.00    +0.003 C 
ATOM     25  C   UNL     1      34.343 -19.160 -21.994  0.00  0.00    +0.000 C 
ATOM     26  C   UNL     1      34.751 -17.839 -21.804  0.00  0.00    +0.000 C 
ATOM     27  C   UNL     1      33.864 -19.570 -23.238  0.00  0.00    +0.000 C 
BRANCH  25  28
ATOM     28  C   UNL     1      34.417 -20.105 -20.901  0.00  0.00    +0.000 C 
ATOM     29  C   UNL     1      33.246 -20.638 -20.361  0.00  0.00    +0.003 C 
ATOM     30  C   UNL     1      35.657 -20.481 -20.386  0.00  0.00    +0.003 C 
ATOM     31  C   UNL     1      33.316 -21.548 -19.306  0.00  0.00    +0.037 C 
ATOM     32  C   UNL     1      35.727 -21.391 -19.331  0.00  0.00    +0.037 C 
ATOM     33  C   UNL     1      34.557 -21.924 -18.791  0.00  0.00    +0.139 C 
BRANCH  33  34
ATOM     34  O   UNL     1      34.624 -22.815 -17.763  0.00  0.00    -0.475 OA
BRANCH  34  35
ATOM     35  C   UNL     1      33.398 -23.158 -17.119  0.00  0.00    +0.206 C 
ATOM     36  C   UNL     1      33.688 -23.558 -15.688  0.00  0.00    +0.051 C 
ENDBRANCH  34  35
ENDBRANCH  33  34
ENDBRANCH  25  28
ENDBRANCH  21  22
ENDBRANCH  19  21
ENDBRANCH   1  19
TORSDOF 11
ENDMDL
MODEL 4
REMARK VINA RESULT:     -12.0      4.945      9.716
REMARK  Name = 448384
REMARK  11 active torsions:
REMARK  status: ('A' for Active; 'I' for Inactive)
REMARK    1  A    between atoms: C_1  and  C_3
REMARK    2  A    between atoms: C_1  and  C_6
REMARK    3  A    between atoms: C_1  and  C_19
REMARK    4  A    between atoms: C_3  and  O_4
REMARK    5  A    between atoms: C_6  and  C_7
REMARK    6  A    between atoms: C_7  and  N_10
REMARK    7  A    between atoms: C_19  and  C_21
REMARK    8  A    between atoms: C_21  and  C_22
REMARK    9  A    between atoms: C_25  and  C_28
REMARK   10  A    between atoms: C_33  and  O_34
REMARK   11  A    between atoms: O_34  and  C_35
REMARK                            x       y       z     vdW  Elec       q    Type
REMARK                         _______ _______ _______ _____ _____    ______ ____
ROOT
ATOM      1  C   UNL     1      33.258 -17.528 -24.913  0.00  0.00    +0.108 C 
ENDROOT
BRANCH   1   3
ATOM      2  O   UNL     1      32.338 -19.386 -26.188  0.00  0.00    -0.250 OA
ATOM      3  C   UNL     1      32.193 -18.267 -25.712  0.00  0.00    +0.314 C 
BRANCH   3   4
ATOM      4  O   UNL     1      31.045 -17.556 -25.843  0.00  0.00    -0.480 OA
ATOM      5  H   UNL     1      30.623 -17.204 -25.083  0.00  0.00    +0.295 HD
ENDBRANCH   3   4
ENDBRANCH   1   3
BRANCH   1   6
ATOM      6  C   UNL     1      34.117 -18.533 -24.117  0.00  0.00    +0.034 C 
BRANCH   6   7
ATOM      7  C   UNL     1      34.543 -18.026 -22.739  0.00  0.00    +0.102 C 
BRANCH   7  10
ATOM      8  O   UNL     1      36.827 -19.076 -21.138  0.00  0.00    -0.269 OA
ATOM      9  O   UNL     1      32.269 -19.666 -21.717  0.00  0.00    -0.269 OA
ATOM     10  N   UNL     1      34.546 -19.051 -21.735  0.00  0.00    -0.223 N 
ATOM     11  C   UNL     1      35.677 -19.462 -21.044  0.00  0.00    +0.255 C 
ATOM     12  C   UNL     1      33.419 -19.753 -21.332  0.00  0.00    +0.255 C 
ATOM     13  C   UNL     1      35.233 -20.505 -20.120  0.00  0.00    +0.058 C 
ATOM     14  C   UNL     1      33.867 -20.681 -20.294  0.00  0.00    +0.058 C 
ATOM     15  C   UNL     1      35.953 -21.243 -19.203  0.00  0.00    +0.005 C 
ATOM     16  C   UNL     1      33.151 -21.603 -19.561  0.00  0.00    +0.005 C 
ATOM     17  C   UNL     1      35.247 -22.184 -18.448  0.00  0.00    +0.000 C 
ATOM     18  C   UNL     1      33.860 -22.363 -18.625  0.00  0.00    +0.000 C 
ENDBRANCH   7  10
ENDBRANCH   6   7
ENDBRANCH   1   6
BRANCH   1  19
ATOM     19  C   UNL     1      34.138 -16.729 -25.894  0.00  0.00    +0.080 C 
BRANCH  19  21
ATOM     20  O   UNL     1      32.913 -15.646 -27.674  0.00  0.00    -0.291 OA
ATOM     21  C   UNL     1      33.398 -15.566 -26.548  0.00  0.00    +0.174 C 
BRANCH  21  22
ATOM     22  C   UNL     1      33.272 -14.286 -25.793  0.00  0.00    +0.035 C 
ATOM     23  C   UNL     1      33.304 -14.292 -24.398  0.00  0.00    +0.003 C 
ATOM     24  C   UNL     1      33.122 -13.082 -26.482  0.00  0.00    +0.003 C 
ATOM     25  C   UNL     1      33.036 -11.891 -24.382  0.00  0.00    +0.000 C 
ATOM     26  C   UNL     1      33.186 -13.095 -23.693  0.00  0.00    +0.000 C 
ATOM     27  C   UNL     1      33.004 -11.884 -25.776  0.00  0.00    +0.000 C 
BRANCH  25  28
ATOM     28  C   UNL     1      32.913 -10.648 -23.651  0.00  0.00    +0.000 C 
ATOM     29  C   UNL     1      33.683  -9.544 -24.019  0.00  0.00    +0.003 C 
ATOM     30  C   UNL     1      32.028 -10.554 -22.577  0.00  0.00    +0.003 C 
ATOM     31  C   UNL     1      33.567  -8.347 -23.314  0.00  0.00    +0.037 C 
ATOM     32  C   UNL     1      31.912  -9.356 -21.872  0.00  0.00    +0.037 C 
ATOM     33  C   UNL     1      32.681  -8.253 -22.240  0.00  0.00    +0.139 C 
BRANCH  33  34
ATOM     34  O   UNL     1      32.566  -7.082 -21.554  0.00  0.00    -0.475 OA
BRANCH  34  35
ATOM     35  C   UNL     1      32.674  -7.150 -20.133  0.00  0.00    +0.206 C 
ATOM     36  C   UNL     1      32.229  -5.829 -19.542  0.00  0.00    +0.051 C 
ENDBRANCH  34  35
ENDBRANCH  33  34
ENDBRANCH  25  28
ENDBRANCH  21  22
ENDBRANCH  19  21
ENDBRANCH   1  19
TORSDOF 11
ENDMDL
MODEL 5
REMARK VINA RESULT:     -11.9      1.407      1.985
REMARK  Name = 448384
REMARK  11 active torsions:
REMARK  status: ('A' for Active; 'I' for Inactive)
REMARK    1  A    between atoms: C_1  and  C_3
REMARK    2  A    between atoms: C_1  and  C_6
REMARK    3  A    between atoms: C_1  and  C_19
REMARK    4  A    between atoms: C_3  and  O_4
REMARK    5  A    between atoms: C_6  and  C_7
REMARK    6  A    between atoms: C_7  and  N_10
REMARK    7  A    between atoms: C_19  and  C_21
REMARK    8  A    between atoms: C_21  and  C_22
REMARK    9  A    between atoms: C_25  and  C_28
REMARK   10  A    between atoms: C_33  and  O_34
REMARK   11  A    between atoms: O_34  and  C_35
REMARK                            x       y       z     vdW  Elec       q    Type
REMARK                         _______ _______ _______ _____ _____    ______ ____
ROOT
ATOM      1  C   UNL     1      32.313 -23.226 -14.540  0.00  0.00    +0.108 C 
ENDROOT
BRANCH   1   3
ATOM      2  O   UNL     1      29.908 -22.860 -14.469  0.00  0.00    -0.250 OA
ATOM      3  C   UNL     1      30.945 -23.139 -13.878  0.00  0.00    +0.314 C 
BRANCH   3   4
ATOM      4  O   UNL     1      30.984 -23.412 -12.550  0.00  0.00    -0.480 OA
ATOM      5  H   UNL     1      30.203 -23.346 -12.036  0.00  0.00    +0.295 HD
ENDBRANCH   3   4
ENDBRANCH   1   3
BRANCH   1   6
ATOM      6  C   UNL     1      33.173 -24.301 -13.844  0.00  0.00    +0.034 C 
BRANCH   6   7
ATOM      7  C   UNL     1      34.293 -23.731 -12.975  0.00  0.00    +0.102 C 
BRANCH   7  10
ATOM      8  O   UNL     1      36.025 -25.917 -11.924  0.00  0.00    -0.269 OA
ATOM      9  O   UNL     1      35.993 -22.584 -15.143  0.00  0.00    -0.269 OA
ATOM     10  N   UNL     1      35.603 -24.130 -13.404  0.00  0.00    -0.223 N 
ATOM     11  C   UNL     1      36.323 -25.173 -12.840  0.00  0.00    +0.255 C 
ATOM     12  C   UNL     1      36.305 -23.522 -14.434  0.00  0.00    +0.255 C 
ATOM     13  C   UNL     1      37.584 -25.242 -13.578  0.00  0.00    +0.058 C 
ATOM     14  C   UNL     1      37.574 -24.243 -14.542  0.00  0.00    +0.058 C 
ATOM     15  C   UNL     1      38.655 -26.098 -13.426  0.00  0.00    +0.005 C 
ATOM     16  C   UNL     1      38.633 -24.050 -15.403  0.00  0.00    +0.005 C 
ATOM     17  C   UNL     1      39.740 -25.921 -14.289  0.00  0.00    +0.000 C 
ATOM     18  C   UNL     1      39.730 -24.906 -15.268  0.00  0.00    +0.000 C 
ENDBRANCH   7  10
ENDBRANCH   6   7
ENDBRANCH   1   6
BRANCH   1  19
ATOM     19  C   UNL     1      32.115 -23.577 -16.028  0.00  0.00    +0.080 C 
BRANCH  19  21
ATOM     20  O   UNL     1      34.259 -24.568 -16.541  0.00  0.00    -0.291 OA
ATOM     21  C   UNL     1      33.429 -23.697 -16.793  0.00  0.00    +0.174 C 
BRANCH  21  22
ATOM     22  C   UNL     1      33.717 -22.713 -17.877  0.00  0.00    +0.035 C 
ATOM     23  C   UNL     1      35.034 -22.351 -18.160  0.00  0.00    +0.003 C 
ATOM     24  C   UNL     1      32.667 -22.156 -18.608  0.00  0.00    +0.003 C 
ATOM     25  C   UNL     1      34.252 -20.874 -19.904  0.00  0.00    +0.000 C 
ATOM     26  C   UNL     1      35.301 -21.431 -19.173  0.00  0.00    +0.000 C 
ATOM     27  C   UNL     1      32.935 -21.236 -19.622  0.00  0.00    +0.000 C 
BRANCH  25  28
ATOM     28  C   UNL     1      34.529 -19.919 -20.956  0.00  0.00    +0.000 C 
ATOM     29  C   UNL     1      35.791 -19.329 -21.046  0.00  0.00    +0.003 C 
ATOM     30  C   UNL     1      33.536 -19.586 -21.876  0.00  0.00    +0.003 C 
ATOM     31  C   UNL     1      36.058 -18.407 -22.057  0.00  0.00    +0.037 C 
ATOM     32  C   UNL     1      33.804 -18.664 -22.888  0.00  0.00    +0.037 C 
ATOM     33  C   UNL     1      35.064 -18.074 -22.978  0.00  0.00    +0.139 C 
BRANCH  33  34
ATOM     34  O   UNL     1      35.327 -17.176 -23.967  0.00  0.00    -0.475 OA
BRANCH  34  35
ATOM     35  C   UNL     1      34.206 -16.593 -24.630  0.00  0.00    +0.206 C 
ATOM     36  C   UNL     1      34.092 -17.186 -26.019  0.00  0.00    +0.051 C 
ENDBRANCH  34  35
ENDBRANCH  33  34
ENDBRANCH  25  28
ENDBRANCH  21  22
ENDBRANCH  19  21
ENDBRANCH   1  19
TORSDOF 11
ENDMDL
MODEL 6
REMARK VINA RESULT:     -11.9      2.072      3.819
REMARK  Name = 448384
REMARK  11 active torsions:
REMARK  status: ('A' for Active; 'I' for Inactive)
REMARK    1  A    between atoms: C_1  and  C_3
REMARK    2  A    between atoms: C_1  and  C_6
REMARK    3  A    between atoms: C_1  and  C_19
REMARK    4  A    between atoms: C_3  and  O_4
REMARK    5  A    between atoms: C_6  and  C_7
REMARK    6  A    between atoms: C_7  and  N_10
REMARK    7  A    between atoms: C_19  and  C_21
REMARK    8  A    between atoms: C_21  and  C_22
REMARK    9  A    between atoms: C_25  and  C_28
REMARK   10  A    between atoms: C_33  and  O_34
REMARK   11  A    between atoms: O_34  and  C_35
REMARK                            x       y       z     vdW  Elec       q    Type
REMARK                         _______ _______ _______ _____ _____    ______ ____
ROOT
ATOM      1  C   UNL     1      34.384 -21.375 -19.023  0.00  0.00    +0.108 C 
ENDROOT
BRANCH   1   3
ATOM      2  O   UNL     1      32.293 -22.537 -18.574  0.00  0.00    -0.250 OA
ATOM      3  C   UNL     1      32.924 -21.738 -19.255  0.00  0.00    +0.314 C 
BRANCH   3   4
ATOM      4  O   UNL     1      32.376 -21.073 -20.304  0.00  0.00    -0.480 OA
ATOM      5  H   UNL     1      32.060 -21.550 -21.046  0.00  0.00    +0.295 HD
ENDBRANCH   3   4
ENDBRANCH   1   3
BRANCH   1   6
ATOM      6  C   UNL     1      35.068 -22.456 -18.161  0.00  0.00    +0.034 C 
BRANCH   6   7
ATOM      7  C   UNL     1      36.059 -21.896 -17.139  0.00  0.00    +0.102 C 
BRANCH   7  10
ATOM      8  O   UNL     1      38.475 -23.219 -16.001  0.00  0.00    -0.269 OA
ATOM      9  O   UNL     1      33.943 -22.699 -15.194  0.00  0.00    -0.269 OA
ATOM     10  N   UNL     1      36.174 -22.705 -15.960  0.00  0.00    -0.223 N 
ATOM     11  C   UNL     1      37.360 -23.274 -15.518  0.00  0.00    +0.255 C 
ATOM     12  C   UNL     1      35.115 -23.014 -15.119  0.00  0.00    +0.255 C 
ATOM     13  C   UNL     1      37.031 -23.997 -14.290  0.00  0.00    +0.058 C 
ATOM     14  C   UNL     1      35.673 -23.840 -14.048  0.00  0.00    +0.058 C 
ATOM     15  C   UNL     1      37.841 -24.733 -13.450  0.00  0.00    +0.005 C 
ATOM     16  C   UNL     1      35.056 -24.411 -12.956  0.00  0.00    +0.005 C 
ATOM     17  C   UNL     1      37.237 -25.320 -12.335  0.00  0.00    +0.000 C 
ATOM     18  C   UNL     1      35.857 -25.162 -12.090  0.00  0.00    +0.000 C 
ENDBRANCH   7  10
ENDBRANCH   6   7
ENDBRANCH   1   6
BRANCH   1  19
ATOM     19  C   UNL     1      35.082 -21.260 -20.392  0.00  0.00    +0.080 C 
BRANCH  19  21
ATOM     20  O   UNL     1      36.768 -19.593 -19.923  0.00  0.00    -0.291 OA
ATOM     21  C   UNL     1      35.791 -19.923 -20.590  0.00  0.00    +0.174 C 
BRANCH  21  22
ATOM     22  C   UNL     1      35.268 -18.984 -21.624  0.00  0.00    +0.035 C 
ATOM     23  C   UNL     1      34.766 -19.480 -22.828  0.00  0.00    +0.003 C 
ATOM     24  C   UNL     1      35.279 -17.610 -21.386  0.00  0.00    +0.003 C 
ATOM     25  C   UNL     1      34.289 -17.227 -23.556  0.00  0.00    +0.000 C 
ATOM     26  C   UNL     1      34.278 -18.601 -23.794  0.00  0.00    +0.000 C 
ATOM     27  C   UNL     1      34.789 -16.731 -22.353  0.00  0.00    +0.000 C 
BRANCH  25  28
ATOM     28  C   UNL     1      33.782 -16.314 -24.559  0.00  0.00    +0.000 C 
ATOM     29  C   UNL     1      33.532 -16.771 -25.854  0.00  0.00    +0.003 C 
ATOM     30  C   UNL     1      33.547 -14.979 -24.233  0.00  0.00    +0.003 C 
ATOM     31  C   UNL     1      33.046 -15.892 -26.821  0.00  0.00    +0.037 C 
ATOM     32  C   UNL     1      33.060 -14.100 -25.201  0.00  0.00    +0.037 C 
ATOM     33  C   UNL     1      32.810 -14.557 -26.495  0.00  0.00    +0.139 C 
BRANCH  33  34
ATOM     34  O   UNL     1      32.333 -13.700 -27.439  0.00  0.00    -0.475 OA
BRANCH  34  35
ATOM     35  C   UNL     1      32.800 -12.353 -27.389  0.00  0.00    +0.206 C 
ATOM     36  C   UNL     1      34.258 -12.322 -27.797  0.00  0.00    +0.051 C 
ENDBRANCH  34  35
ENDBRANCH  33  34
ENDBRANCH  25  28
ENDBRANCH  21  22
ENDBRANCH  19  21
ENDBRANCH   1  19
TORSDOF 11
ENDMDL
MODEL 7
REMARK VINA RESULT:     -11.8      3.214     12.129
REMARK  Name = 448384
REMARK  11 active torsions:
REMARK  status: ('A' for Active; 'I' for Inactive)
REMARK    1  A    between atoms: C_1  and  C_3
REMARK    2  A    between atoms: C_1  and  C_6
REMARK    3  A    between atoms: C_1  and  C_19
REMARK    4  A    between atoms: C_3  and  O_4
REMARK    5  A    between atoms: C_6  and  C_7
REMARK    6  A    between atoms: C_7  and  N_10
REMARK    7  A    between atoms: C_19  and  C_21
REMARK    8  A    between atoms: C_21  and  C_22
REMARK    9  A    between atoms: C_25  and  C_28
REMARK   10  A    between atoms: C_33  and  O_34
REMARK   11  A    between atoms: O_34  and  C_35
REMARK                            x       y       z     vdW  Elec       q    Type
REMARK                         _______ _______ _______ _____ _____    ______ ____
ROOT
ATOM      1  C   UNL     1      34.197 -18.164 -22.251  0.00  0.00    +0.108 C 
ENDROOT
BRANCH   1   3
ATOM      2  O   UNL     1      36.073 -18.203 -20.702  0.00  0.00    -0.250 OA
ATOM      3  C   UNL     1      35.117 -17.602 -21.176  0.00  0.00    +0.314 C 
BRANCH   3   4
ATOM      4  O   UNL     1      34.774 -16.347 -20.793  0.00  0.00    -0.480 OA
ATOM      5  H   UNL     1      35.184 -15.606 -21.194  0.00  0.00    +0.295 HD
ENDBRANCH   3   4
ENDBRANCH   1   3
BRANCH   1   6
ATOM      6  C   UNL     1      34.662 -17.698 -23.646  0.00  0.00    +0.034 C 
BRANCH   6   7
ATOM      7  C   UNL     1      33.534 -17.595 -24.672  0.00  0.00    +0.102 C 
BRANCH   7  10
ATOM      8  O   UNL     1      32.803 -16.743 -27.434  0.00  0.00    -0.269 OA
ATOM      9  O   UNL     1      33.815 -14.974 -23.273  0.00  0.00    -0.269 OA
ATOM     10  N   UNL     1      33.359 -16.268 -25.192  0.00  0.00    -0.223 N 
ATOM     11  C   UNL     1      33.013 -15.985 -26.505  0.00  0.00    +0.255 C 
ATOM     12  C   UNL     1      33.514 -15.111 -24.443  0.00  0.00    +0.255 C 
ATOM     13  C   UNL     1      32.932 -14.528 -26.599  0.00  0.00    +0.058 C 
ATOM     14  C   UNL     1      33.234 -13.999 -25.352  0.00  0.00    +0.058 C 
ATOM     15  C   UNL     1      32.622 -13.724 -27.677  0.00  0.00    +0.005 C 
ATOM     16  C   UNL     1      33.243 -12.640 -25.119  0.00  0.00    +0.005 C 
ATOM     17  C   UNL     1      32.624 -12.344 -27.463  0.00  0.00    +0.000 C 
ATOM     18  C   UNL     1      32.933 -11.806 -26.197  0.00  0.00    +0.000 C 
ENDBRANCH   7  10
ENDBRANCH   6   7
ENDBRANCH   1   6
BRANCH   1  19
ATOM     19  C   UNL     1      34.226 -19.703 -22.163  0.00  0.00    +0.080 C 
BRANCH  19  21
ATOM     20  O   UNL     1      32.018 -20.124 -21.275  0.00  0.00    -0.291 OA
ATOM     21  C   UNL     1      33.232 -20.261 -21.149  0.00  0.00    +0.174 C 
BRANCH  21  22
ATOM     22  C   UNL     1      33.760 -20.988 -19.958  0.00  0.00    +0.035 C 
ATOM     23  C   UNL     1      35.127 -20.971 -19.679  0.00  0.00    +0.003 C 
ATOM     24  C   UNL     1      32.886 -21.685 -19.123  0.00  0.00    +0.003 C 
ATOM     25  C   UNL     1      34.745 -22.348 -17.731  0.00  0.00    +0.000 C 
ATOM     26  C   UNL     1      35.619 -21.651 -18.565  0.00  0.00    +0.000 C 
ATOM     27  C   UNL     1      33.379 -22.365 -18.010  0.00  0.00    +0.000 C 
BRANCH  25  28
ATOM     28  C   UNL     1      35.256 -23.055 -16.576  0.00  0.00    +0.000 C 
ATOM     29  C   UNL     1      34.490 -24.056 -15.977  0.00  0.00    +0.003 C 
ATOM     30  C   UNL     1      36.511 -22.733 -16.059  0.00  0.00    +0.003 C 
ATOM     31  C   UNL     1      34.981 -24.736 -14.863  0.00  0.00    +0.037 C 
ATOM     32  C   UNL     1      37.001 -23.414 -14.945  0.00  0.00    +0.037 C 
ATOM     33  C   UNL     1      36.236 -24.415 -14.346  0.00  0.00    +0.139 C 
BRANCH  33  34
ATOM     34  O   UNL     1      36.715 -25.081 -13.260  0.00  0.00    -0.475 OA
BRANCH  34  35
ATOM     35  C   UNL     1      38.118 -24.998 -13.014  0.00  0.00    +0.206 C 
ATOM     36  C   UNL     1      38.837 -25.965 -13.931  0.00  0.00    +0.051 C 
ENDBRANCH  34  35
ENDBRANCH  33  34
ENDBRANCH  25  28
ENDBRANCH  21  22
ENDBRANCH  19  21
ENDBRANCH   1  19
TORSDOF 11
ENDMDL
MODEL 8
REMARK VINA RESULT:     -11.7      3.218     12.191
REMARK  Name = 448384
REMARK  11 active torsions:
REMARK  status: ('A' for Active; 'I' for Inactive)
REMARK    1  A    between atoms: C_1  and  C_3
REMARK    2  A    between atoms: C_1  and  C_6
REMARK    3  A    between atoms: C_1  and  C_19
REMARK    4  A    between atoms: C_3  and  O_4
REMARK    5  A    between atoms: C_6  and  C_7
REMARK    6  A    between atoms: C_7  and  N_10
REMARK    7  A    between atoms: C_19  and  C_21
REMARK    8  A    between atoms: C_21  and  C_22
REMARK    9  A    between atoms: C_25  and  C_28
REMARK   10  A    between atoms: C_33  and  O_34
REMARK   11  A    between atoms: O_34  and  C_35
REMARK                            x       y       z     vdW  Elec       q    Type
REMARK                         _______ _______ _______ _____ _____    ______ ____
ROOT
ATOM      1  C   UNL     1      34.218 -18.213 -22.284  0.00  0.00    +0.108 C 
ENDROOT
BRANCH   1   3
ATOM      2  O   UNL     1      34.980 -16.809 -20.449  0.00  0.00    -0.250 OA
ATOM      3  C   UNL     1      35.203 -17.724 -21.231  0.00  0.00    +0.314 C 
BRANCH   3   4
ATOM      4  O   UNL     1      36.369 -18.417 -21.239  0.00  0.00    -0.480 OA
ATOM      5  H   UNL     1      36.493 -19.131 -20.645  0.00  0.00    +0.295 HD
ENDBRANCH   3   4
ENDBRANCH   1   3
BRANCH   1   6
ATOM      6  C   UNL     1      34.673 -17.762 -23.687  0.00  0.00    +0.034 C 
BRANCH   6   7
ATOM      7  C   UNL     1      33.530 -17.618 -24.692  0.00  0.00    +0.102 C 
BRANCH   7  10
ATOM      8  O   UNL     1      33.803 -15.043 -23.216  0.00  0.00    -0.269 OA
ATOM      9  O   UNL     1      32.823 -16.683 -27.437  0.00  0.00    -0.269 OA
ATOM     10  N   UNL     1      33.367 -16.277 -25.177  0.00  0.00    -0.223 N 
ATOM     11  C   UNL     1      33.522 -15.142 -24.396  0.00  0.00    +0.255 C 
ATOM     12  C   UNL     1      33.037 -15.956 -26.486  0.00  0.00    +0.255 C 
ATOM     13  C   UNL     1      33.280 -14.003 -25.281  0.00  0.00    +0.058 C 
ATOM     14  C   UNL     1      32.987 -14.495 -26.545  0.00  0.00    +0.058 C 
ATOM     15  C   UNL     1      33.309 -12.650 -25.013  0.00  0.00    +0.005 C 
ATOM     16  C   UNL     1      32.708 -13.660 -27.606  0.00  0.00    +0.005 C 
ATOM     17  C   UNL     1      33.030 -11.785 -26.074  0.00  0.00    +0.000 C 
ATOM     18  C   UNL     1      32.732 -12.285 -27.359  0.00  0.00    +0.000 C 
ENDBRANCH   7  10
ENDBRANCH   6   7
ENDBRANCH   1   6
BRANCH   1  19
ATOM     19  C   UNL     1      34.148 -19.752 -22.211  0.00  0.00    +0.080 C 
BRANCH  19  21
ATOM     20  O   UNL     1      31.958 -20.078 -21.243  0.00  0.00    -0.291 OA
ATOM     21  C   UNL     1      33.170 -20.255 -21.154  0.00  0.00    +0.174 C 
BRANCH  21  22
ATOM     22  C   UNL     1      33.712 -20.979 -19.968  0.00  0.00    +0.035 C 
ATOM     23  C   UNL     1      32.850 -21.674 -19.120  0.00  0.00    +0.003 C 
ATOM     24  C   UNL     1      35.082 -20.960 -19.706  0.00  0.00    +0.003 C 
ATOM     25  C   UNL     1      34.727 -22.332 -17.750  0.00  0.00    +0.000 C 
ATOM     26  C   UNL     1      33.357 -22.350 -18.011  0.00  0.00    +0.000 C 
ATOM     27  C   UNL     1      35.590 -21.637 -18.597  0.00  0.00    +0.000 C 
BRANCH  25  28
ATOM     28  C   UNL     1      35.255 -23.032 -16.598  0.00  0.00    +0.000 C 
ATOM     29  C   UNL     1      36.533 -22.732 -16.125  0.00  0.00    +0.003 C 
ATOM     30  C   UNL     1      34.488 -24.009 -15.964  0.00  0.00    +0.003 C 
ATOM     31  C   UNL     1      37.043 -23.408 -15.017  0.00  0.00    +0.037 C 
ATOM     32  C   UNL     1      34.998 -24.685 -14.856  0.00  0.00    +0.037 C 
ATOM     33  C   UNL     1      36.276 -24.385 -14.383  0.00  0.00    +0.139 C 
BRANCH  33  34
ATOM     34  O   UNL     1      36.773 -25.043 -13.299  0.00  0.00    -0.475 OA
BRANCH  34  35
ATOM     35  C   UNL     1      38.190 -25.033 -13.128  0.00  0.00    +0.206 C 
ATOM     36  C   UNL     1      38.810 -26.016 -14.098  0.00  0.00    +0.051 C 
ENDBRANCH  34  35
ENDBRANCH  33  34
ENDBRANCH  25  28
ENDBRANCH  21  22
ENDBRANCH  19  21
ENDBRANCH   1  19
TORSDOF 11
ENDMDL
MODEL 9
REMARK VINA RESULT:     -11.7      4.329     13.050
REMARK  Name = 448384
REMARK  11 active torsions:
REMARK  status: ('A' for Active; 'I' for Inactive)
REMARK    1  A    between atoms: C_1  and  C_3
REMARK    2  A    between atoms: C_1  and  C_6
REMARK    3  A    between atoms: C_1  and  C_19
REMARK    4  A    between atoms: C_3  and  O_4
REMARK    5  A    between atoms: C_6  and  C_7
REMARK    6  A    between atoms: C_7  and  N_10
REMARK    7  A    between atoms: C_19  and  C_21
REMARK    8  A    between atoms: C_21  and  C_22
REMARK    9  A    between atoms: C_25  and  C_28
REMARK   10  A    between atoms: C_33  and  O_34
REMARK   11  A    between atoms: O_34  and  C_35
REMARK                            x       y       z     vdW  Elec       q    Type
REMARK                         _______ _______ _______ _____ _____    ______ ____
ROOT
ATOM      1  C   UNL     1      33.372 -16.055 -26.339  0.00  0.00    +0.108 C 
ENDROOT
BRANCH   1   3
ATOM      2  O   UNL     1      31.571 -17.541 -25.652  0.00  0.00    -0.250 OA
ATOM      3  C   UNL     1      32.170 -16.965 -26.552  0.00  0.00    +0.314 C 
BRANCH   3   4
ATOM      4  O   UNL     1      31.815 -17.073 -27.857  0.00  0.00    -0.480 OA
ATOM      5  H   UNL     1      31.734 -17.919 -28.251  0.00  0.00    +0.295 HD
ENDBRANCH   3   4
ENDBRANCH   1   3
BRANCH   1   6
ATOM      6  C   UNL     1      32.982 -14.859 -25.446  0.00  0.00    +0.034 C 
BRANCH   6   7
ATOM      7  C   UNL     1      32.462 -13.650 -26.224  0.00  0.00    +0.102 C 
BRANCH   7  10
ATOM      8  O   UNL     1      32.280 -12.177 -23.639  0.00  0.00    -0.269 OA
ATOM      9  O   UNL     1      34.278 -11.891 -27.810  0.00  0.00    -0.269 OA
ATOM     10  N   UNL     1      33.089 -12.417 -25.841  0.00  0.00    -0.223 N 
ATOM     11  C   UNL     1      32.935 -11.818 -24.600  0.00  0.00    +0.255 C 
ATOM     12  C   UNL     1      33.925 -11.678 -26.665  0.00  0.00    +0.255 C 
ATOM     13  C   UNL     1      33.747 -10.602 -24.633  0.00  0.00    +0.058 C 
ATOM     14  C   UNL     1      34.345 -10.517 -25.882  0.00  0.00    +0.058 C 
ATOM     15  C   UNL     1      33.950  -9.644 -23.660  0.00  0.00    +0.005 C 
ATOM     16  C   UNL     1      35.177  -9.472 -26.223  0.00  0.00    +0.005 C 
ATOM     17  C   UNL     1      34.790  -8.576 -23.983  0.00  0.00    +0.000 C 
ATOM     18  C   UNL     1      35.397  -8.489 -25.253  0.00  0.00    +0.000 C 
ENDBRANCH   7  10
ENDBRANCH   6   7
ENDBRANCH   1   6
BRANCH   1  19
ATOM     19  C   UNL     1      34.495 -16.877 -25.676  0.00  0.00    +0.080 C 
BRANCH  19  21
ATOM     20  O   UNL     1      35.027 -15.354 -23.876  0.00  0.00    -0.291 OA
ATOM     21  C   UNL     1      34.731 -16.496 -24.218  0.00  0.00    +0.174 C 
BRANCH  21  22
ATOM     22  C   UNL     1      34.608 -17.555 -23.175  0.00  0.00    +0.035 C 
ATOM     23  C   UNL     1      33.839 -18.693 -23.421  0.00  0.00    +0.003 C 
ATOM     24  C   UNL     1      35.264 -17.409 -21.952  0.00  0.00    +0.003 C 
ATOM     25  C   UNL     1      34.380 -19.536 -21.223  0.00  0.00    +0.000 C 
ATOM     26  C   UNL     1      33.725 -19.682 -22.446  0.00  0.00    +0.000 C 
ATOM     27  C   UNL     1      35.150 -18.399 -20.976  0.00  0.00    +0.000 C 
BRANCH  25  28
ATOM     28  C   UNL     1      34.262 -20.562 -20.210  0.00  0.00    +0.000 C 
ATOM     29  C   UNL     1      35.409 -21.095 -19.621  0.00  0.00    +0.003 C 
ATOM     30  C   UNL     1      33.002 -21.020 -19.824  0.00  0.00    +0.003 C 
ATOM     31  C   UNL     1      35.296 -22.086 -18.646  0.00  0.00    +0.037 C 
ATOM     32  C   UNL     1      32.890 -22.011 -18.849  0.00  0.00    +0.037 C 
ATOM     33  C   UNL     1      34.036 -22.544 -18.260  0.00  0.00    +0.139 C 
BRANCH  33  34
ATOM     34  O   UNL     1      33.927 -23.509 -17.306  0.00  0.00    -0.475 OA
BRANCH  34  35
ATOM     35  C   UNL     1      34.191 -23.123 -15.958  0.00  0.00    +0.206 C 
ATOM     36  C   UNL     1      33.121 -23.707 -15.060  0.00  0.00    +0.051 C 
ENDBRANCH  34  35
ENDBRANCH  33  34
ENDBRANCH  25  28
ENDBRANCH  21  22
ENDBRANCH  19  21
ENDBRANCH   1  19
TORSDOF 11
ENDMDL
