MODEL 1
REMARK VINA RESULT:     -12.5      0.000      0.000
REMARK  Name = 46926973
REMARK  4 active torsions:
REMARK  status: ('A' for Active; 'I' for Inactive)
REMARK    1  A    between atoms: C_4  and  C_17
REMARK    2  A    between atoms: C_6  and  C_13
REMARK    3  A    between atoms: C_17  and  C_19
REMARK    4  A    between atoms: C_21  and  C_26
REMARK                            x       y       z     vdW  Elec       q    Type
REMARK                         _______ _______ _______ _____ _____    ______ ____
ROOT
ATOM      1  O   UNL     1      33.105 -19.367 -22.499  0.00  0.00    -0.274 OA
ATOM      2  N   UNL     1      35.263 -19.630 -21.603  0.00  0.00    -0.269 N 
ATOM      3  N   UNL     1      36.115 -20.778 -19.718  0.00  0.00    -0.229 NA
ATOM      4  C   UNL     1      34.314 -19.158 -22.520  0.00  0.00    +0.232 C 
ATOM      5  C   UNL     1      35.049 -20.433 -20.475  0.00  0.00    +0.134 C 
ATOM      6  C   UNL     1      34.596 -22.001 -18.289  0.00  0.00    +0.038 C 
ATOM      7  C   UNL     1      33.748 -20.826 -20.209  0.00  0.00    +0.035 C 
ATOM      8  C   UNL     1      33.525 -21.624 -19.092  0.00  0.00    +0.006 C 
ATOM      9  C   UNL     1      35.860 -21.555 -18.641  0.00  0.00    +0.102 C 
ATOM     10  H   UNL     1      36.196 -19.364 -21.773  0.00  0.00    +0.156 HD
ENDROOT
BRANCH   6  13
ATOM     11  N   UNL     1      35.512 -23.171 -16.446  0.00  0.00    -0.241 NA
ATOM     12  N   UNL     1      32.965 -24.018 -15.636  0.00  0.00    -0.239 NA
ATOM     13  C   UNL     1      34.398 -22.829 -17.123  0.00  0.00    +0.102 C 
ATOM     14  C   UNL     1      33.146 -23.245 -16.725  0.00  0.00    +0.118 C 
ATOM     15  C   UNL     1      35.330 -23.943 -15.356  0.00  0.00    +0.119 C 
ATOM     16  C   UNL     1      34.079 -24.360 -14.959  0.00  0.00    +0.120 C 
ENDBRANCH   6  13
BRANCH   4  17
ATOM     17  C   UNL     1      34.975 -18.318 -23.601  0.00  0.00    +0.113 C 
BRANCH  17  19
ATOM     18  N   UNL     1      34.280 -14.783 -22.435  0.00  0.00    -0.244 NA
ATOM     19  C   UNL     1      34.515 -16.883 -23.610  0.00  0.00    +0.006 C 
ATOM     20  C   UNL     1      33.504 -15.000 -24.715  0.00  0.00    -0.004 C 
ATOM     21  C   UNL     1      33.706 -14.278 -23.550  0.00  0.00    +0.077 C 
ATOM     22  C   UNL     1      33.920 -16.328 -24.736  0.00  0.00    -0.005 C 
ATOM     23  C   UNL     1      34.670 -16.075 -22.494  0.00  0.00    +0.095 C 
ATOM     24  C   UNL     1      32.866 -14.408 -25.924  0.00  0.00    +0.033 C 
BRANCH  21  26
ATOM     25  N   UNL     1      32.535 -10.216 -23.204  0.00  0.00    -0.248 NA
ATOM     26  C   UNL     1      33.306 -12.893 -23.432  0.00  0.00    +0.020 C 
ATOM     27  C   UNL     1      32.285 -12.533 -22.559  0.00  0.00    +0.016 C 
ATOM     28  C   UNL     1      33.942 -11.917 -24.191  0.00  0.00    +0.022 C 
ATOM     29  C   UNL     1      31.941 -11.192 -22.483  0.00  0.00    +0.059 C 
ATOM     30  C   UNL     1      33.523 -10.604 -24.042  0.00  0.00    +0.098 C 
ATOM     31  C   UNL     1      30.849 -10.769 -21.557  0.00  0.00    +0.052 C 
ENDBRANCH  21  26
ENDBRANCH  17  19
ENDBRANCH   4  17
TORSDOF 4
ENDMDL
MODEL 2
REMARK VINA RESULT:     -12.3      0.698      1.301
REMARK  Name = 46926973
REMARK  4 active torsions:
REMARK  status: ('A' for Active; 'I' for Inactive)
REMARK    1  A    between atoms: C_4  and  C_17
REMARK    2  A    between atoms: C_6  and  C_13
REMARK    3  A    between atoms: C_17  and  C_19
REMARK    4  A    between atoms: C_21  and  C_26
REMARK                            x       y       z     vdW  Elec       q    Type
REMARK                         _______ _______ _______ _____ _____    ______ ____
ROOT
ATOM      1  O   UNL     1      33.003 -19.434 -22.511  0.00  0.00    -0.274 OA
ATOM      2  N   UNL     1      35.199 -19.594 -21.683  0.00  0.00    -0.269 N 
ATOM      3  N   UNL     1      36.161 -20.687 -19.820  0.00  0.00    -0.229 NA
ATOM      4  C   UNL     1      34.200 -19.172 -22.572  0.00  0.00    +0.232 C 
ATOM      5  C   UNL     1      35.057 -20.396 -20.544  0.00  0.00    +0.134 C 
ATOM      6  C   UNL     1      34.745 -21.965 -18.333  0.00  0.00    +0.038 C 
ATOM      7  C   UNL     1      33.784 -20.845 -20.232  0.00  0.00    +0.035 C 
ATOM      8  C   UNL     1      33.633 -21.642 -19.104  0.00  0.00    +0.006 C 
ATOM      9  C   UNL     1      35.976 -21.466 -18.730  0.00  0.00    +0.102 C 
ATOM     10  H   UNL     1      36.113 -19.289 -21.885  0.00  0.00    +0.156 HD
ENDROOT
BRANCH   6  13
ATOM     11  N   UNL     1      35.762 -23.023 -16.476  0.00  0.00    -0.241 NA
ATOM     12  N   UNL     1      33.299 -24.082 -15.651  0.00  0.00    -0.239 NA
ATOM     13  C   UNL     1      34.621 -22.791 -17.156  0.00  0.00    +0.102 C 
ATOM     14  C   UNL     1      33.412 -23.311 -16.751  0.00  0.00    +0.118 C 
ATOM     15  C   UNL     1      35.649 -23.793 -15.376  0.00  0.00    +0.119 C 
ATOM     16  C   UNL     1      34.440 -24.314 -14.971  0.00  0.00    +0.120 C 
ENDBRANCH   6  13
BRANCH   4  17
ATOM     17  C   UNL     1      34.788 -18.312 -23.680  0.00  0.00    +0.113 C 
BRANCH  17  19
ATOM     18  N   UNL     1      33.507 -14.873 -24.613  0.00  0.00    -0.244 NA
ATOM     19  C   UNL     1      34.416 -16.856 -23.570  0.00  0.00    +0.006 C 
ATOM     20  C   UNL     1      34.265 -14.809 -22.317  0.00  0.00    -0.004 C 
ATOM     21  C   UNL     1      33.718 -14.222 -23.447  0.00  0.00    +0.077 C 
ATOM     22  C   UNL     1      34.617 -16.152 -22.389  0.00  0.00    -0.005 C 
ATOM     23  C   UNL     1      33.863 -16.177 -24.644  0.00  0.00    +0.095 C 
ATOM     24  C   UNL     1      34.482 -14.056 -21.050  0.00  0.00    +0.033 C 
BRANCH  21  26
ATOM     25  N   UNL     1      32.555 -10.143 -23.511  0.00  0.00    -0.248 NA
ATOM     26  C   UNL     1      33.322 -12.831 -23.469  0.00  0.00    +0.020 C 
ATOM     27  C   UNL     1      32.333 -12.373 -22.604  0.00  0.00    +0.016 C 
ATOM     28  C   UNL     1      33.928 -11.946 -24.353  0.00  0.00    +0.022 C 
ATOM     29  C   UNL     1      31.989 -11.032 -22.665  0.00  0.00    +0.059 C 
ATOM     30  C   UNL     1      33.513 -10.625 -24.336  0.00  0.00    +0.098 C 
ATOM     31  C   UNL     1      30.931 -10.506 -21.753  0.00  0.00    +0.052 C 
ENDBRANCH  21  26
ENDBRANCH  17  19
ENDBRANCH   4  17
TORSDOF 4
ENDMDL
MODEL 3
REMARK VINA RESULT:     -12.2      1.300      2.093
REMARK  Name = 46926973
REMARK  4 active torsions:
REMARK  status: ('A' for Active; 'I' for Inactive)
REMARK    1  A    between atoms: C_4  and  C_17
REMARK    2  A    between atoms: C_6  and  C_13
REMARK    3  A    between atoms: C_17  and  C_19
REMARK    4  A    between atoms: C_21  and  C_26
REMARK                            x       y       z     vdW  Elec       q    Type
REMARK                         _______ _______ _______ _____ _____    ______ ____
ROOT
ATOM      1  O   UNL     1      36.719 -18.691 -22.449  0.00  0.00    -0.274 OA
ATOM      2  N   UNL     1      34.639 -19.640 -21.896  0.00  0.00    -0.269 N 
ATOM      3  N   UNL     1      33.898 -21.019 -20.122  0.00  0.00    -0.229 NA
ATOM      4  C   UNL     1      35.527 -18.880 -22.670  0.00  0.00    +0.232 C 
ATOM      5  C   UNL     1      34.909 -20.344 -20.715  0.00  0.00    +0.134 C 
ATOM      6  C   UNL     1      35.469 -21.700 -18.414  0.00  0.00    +0.038 C 
ATOM      7  C   UNL     1      36.204 -20.300 -20.226  0.00  0.00    +0.035 C 
ATOM      8  C   UNL     1      36.482 -20.994 -19.054  0.00  0.00    +0.006 C 
ATOM      9  C   UNL     1      34.206 -21.681 -18.984  0.00  0.00    +0.102 C 
ATOM     10  H   UNL     1      33.712 -19.685 -22.222  0.00  0.00    +0.156 HD
ENDROOT
BRANCH   6  13
ATOM     11  N   UNL     1      34.707 -23.185 -16.736  0.00  0.00    -0.241 NA
ATOM     12  N   UNL     1      37.172 -23.045 -15.405  0.00  0.00    -0.239 NA
ATOM     13  C   UNL     1      35.725 -22.430 -17.196  0.00  0.00    +0.102 C 
ATOM     14  C   UNL     1      36.936 -22.362 -16.542  0.00  0.00    +0.118 C 
ATOM     15  C   UNL     1      34.944 -23.869 -15.599  0.00  0.00    +0.119 C 
ATOM     16  C   UNL     1      36.154 -23.800 -14.944  0.00  0.00    +0.120 C 
ENDBRANCH   6  13
BRANCH   4  17
ATOM     17  C   UNL     1      34.819 -18.281 -23.875  0.00  0.00    +0.113 C 
BRANCH  17  19
ATOM     18  N   UNL     1      33.404 -14.840 -24.580  0.00  0.00    -0.244 NA
ATOM     19  C   UNL     1      34.412 -16.843 -23.677  0.00  0.00    +0.006 C 
ATOM     20  C   UNL     1      34.260 -14.865 -22.318  0.00  0.00    -0.004 C 
ATOM     21  C   UNL     1      33.648 -14.240 -23.393  0.00  0.00    +0.077 C 
ATOM     22  C   UNL     1      34.646 -16.192 -22.472  0.00  0.00    -0.005 C 
ATOM     23  C   UNL     1      33.793 -16.129 -24.691  0.00  0.00    +0.095 C 
ATOM     24  C   UNL     1      34.513 -14.168 -21.025  0.00  0.00    +0.033 C 
BRANCH  21  26
ATOM     25  N   UNL     1      32.373 -10.199 -23.204  0.00  0.00    -0.248 NA
ATOM     26  C   UNL     1      33.213 -12.862 -23.328  0.00  0.00    +0.020 C 
ATOM     27  C   UNL     1      32.185 -12.494 -22.467  0.00  0.00    +0.016 C 
ATOM     28  C   UNL     1      33.822 -11.900 -24.127  0.00  0.00    +0.022 C 
ATOM     29  C   UNL     1      31.806 -11.161 -22.443  0.00  0.00    +0.059 C 
ATOM     30  C   UNL     1      33.369 -10.595 -24.028  0.00  0.00    +0.098 C 
ATOM     31  C   UNL     1      30.705 -10.730 -21.532  0.00  0.00    +0.052 C 
ENDBRANCH  21  26
ENDBRANCH  17  19
ENDBRANCH   4  17
TORSDOF 4
ENDMDL
MODEL 4
REMARK VINA RESULT:     -12.0      1.425      2.310
REMARK  Name = 46926973
REMARK  4 active torsions:
REMARK  status: ('A' for Active; 'I' for Inactive)
REMARK    1  A    between atoms: C_4  and  C_17
REMARK    2  A    between atoms: C_6  and  C_13
REMARK    3  A    between atoms: C_17  and  C_19
REMARK    4  A    between atoms: C_21  and  C_26
REMARK                            x       y       z     vdW  Elec       q    Type
REMARK                         _______ _______ _______ _____ _____    ______ ____
ROOT
ATOM      1  O   UNL     1      35.635 -18.231 -23.670  0.00  0.00    -0.274 OA
ATOM      2  N   UNL     1      33.518 -18.896 -22.890  0.00  0.00    -0.269 N 
ATOM      3  N   UNL     1      32.794 -20.187 -21.045  0.00  0.00    -0.229 NA
ATOM      4  C   UNL     1      34.411 -18.253 -23.758  0.00  0.00    +0.232 C 
ATOM      5  C   UNL     1      33.816 -19.648 -21.746  0.00  0.00    +0.134 C 
ATOM      6  C   UNL     1      34.434 -21.102 -19.522  0.00  0.00    +0.038 C 
ATOM      7  C   UNL     1      35.152 -19.789 -21.405  0.00  0.00    +0.035 C 
ATOM      8  C   UNL     1      35.458 -20.532 -20.270  0.00  0.00    +0.006 C 
ATOM      9  C   UNL     1      33.131 -20.903 -19.948  0.00  0.00    +0.102 C 
ATOM     10  H   UNL     1      32.563 -18.809 -23.111  0.00  0.00    +0.156 HD
ENDROOT
BRANCH   6  13
ATOM     11  N   UNL     1      35.921 -21.661 -17.766  0.00  0.00    -0.241 NA
ATOM     12  N   UNL     1      34.092 -23.514 -16.723  0.00  0.00    -0.239 NA
ATOM     13  C   UNL     1      34.720 -21.880 -18.340  0.00  0.00    +0.102 C 
ATOM     14  C   UNL     1      33.822 -22.790 -17.827  0.00  0.00    +0.118 C 
ATOM     15  C   UNL     1      36.190 -22.386 -16.662  0.00  0.00    +0.119 C 
ATOM     16  C   UNL     1      35.293 -23.296 -16.150  0.00  0.00    +0.120 C 
ENDBRANCH   6  13
BRANCH   4  17
ATOM     17  C   UNL     1      33.664 -17.544 -24.877  0.00  0.00    +0.113 C 
BRANCH  17  19
ATOM     18  N   UNL     1      33.947 -14.123 -23.278  0.00  0.00    -0.244 NA
ATOM     19  C   UNL     1      33.585 -16.050 -24.692  0.00  0.00    +0.006 C 
ATOM     20  C   UNL     1      33.040 -13.853 -25.504  0.00  0.00    -0.004 C 
ATOM     21  C   UNL     1      33.471 -13.355 -24.285  0.00  0.00    +0.077 C 
ATOM     22  C   UNL     1      33.102 -15.228 -25.703  0.00  0.00    -0.005 C 
ATOM     23  C   UNL     1      33.992 -15.454 -23.509  0.00  0.00    +0.095 C 
ATOM     24  C   UNL     1      32.520 -12.973 -26.588  0.00  0.00    +0.033 C 
BRANCH  21  26
ATOM     25  N   UNL     1      33.392  -9.207 -23.405  0.00  0.00    -0.248 NA
ATOM     26  C   UNL     1      33.444 -11.941 -23.985  0.00  0.00    +0.020 C 
ATOM     27  C   UNL     1      34.423 -11.099 -24.502  0.00  0.00    +0.016 C 
ATOM     28  C   UNL     1      32.440 -11.418 -23.178  0.00  0.00    +0.022 C 
ATOM     29  C   UNL     1      34.352  -9.751 -24.184  0.00  0.00    +0.059 C 
ATOM     30  C   UNL     1      32.458 -10.057 -22.920  0.00  0.00    +0.098 C 
ATOM     31  C   UNL     1      35.385  -8.818 -24.721  0.00  0.00    +0.052 C 
ENDBRANCH  21  26
ENDBRANCH  17  19
ENDBRANCH   4  17
TORSDOF 4
ENDMDL
MODEL 5
REMARK VINA RESULT:     -11.9      2.236     10.703
REMARK  Name = 46926973
REMARK  4 active torsions:
REMARK  status: ('A' for Active; 'I' for Inactive)
REMARK    1  A    between atoms: C_4  and  C_17
REMARK    2  A    between atoms: C_6  and  C_13
REMARK    3  A    between atoms: C_17  and  C_19
REMARK    4  A    between atoms: C_21  and  C_26
REMARK                            x       y       z     vdW  Elec       q    Type
REMARK                         _______ _______ _______ _____ _____    ______ ____
ROOT
ATOM      1  O   UNL     1      36.071 -19.184 -19.976  0.00  0.00    -0.274 OA
ATOM      2  N   UNL     1      34.962 -20.066 -21.852  0.00  0.00    -0.269 N 
ATOM      3  N   UNL     1      33.954 -19.091 -23.757  0.00  0.00    -0.229 NA
ATOM      4  C   UNL     1      35.644 -20.131 -20.629  0.00  0.00    +0.232 C 
ATOM      5  C   UNL     1      34.619 -18.927 -22.591  0.00  0.00    +0.134 C 
ATOM      6  C   UNL     1      33.972 -16.686 -24.006  0.00  0.00    +0.038 C 
ATOM      7  C   UNL     1      34.989 -17.696 -22.075  0.00  0.00    +0.035 C 
ATOM      8  C   UNL     1      34.655 -16.558 -22.801  0.00  0.00    +0.006 C 
ATOM      9  C   UNL     1      33.647 -17.962 -24.436  0.00  0.00    +0.102 C 
ATOM     10  H   UNL     1      34.689 -20.930 -22.240  0.00  0.00    +0.156 HD
ENDROOT
BRANCH   6  13
ATOM     11  N   UNL     1      33.452 -14.378 -24.091  0.00  0.00    -0.241 NA
ATOM     12  N   UNL     1      33.101 -14.494 -26.871  0.00  0.00    -0.239 NA
ATOM     13  C   UNL     1      33.611 -15.524 -24.783  0.00  0.00    +0.102 C 
ATOM     14  C   UNL     1      33.439 -15.581 -26.148  0.00  0.00    +0.118 C 
ATOM     15  C   UNL     1      33.115 -13.291 -24.814  0.00  0.00    +0.119 C 
ATOM     16  C   UNL     1      32.942 -13.348 -26.179  0.00  0.00    +0.120 C 
ENDBRANCH   6  13
BRANCH   4  17
ATOM     17  C   UNL     1      35.810 -21.573 -20.176  0.00  0.00    +0.113 C 
BRANCH  17  19
ATOM     18  N   UNL     1      32.468 -22.390 -18.594  0.00  0.00    -0.244 NA
ATOM     19  C   UNL     1      34.787 -22.001 -19.155  0.00  0.00    +0.006 C 
ATOM     20  C   UNL     1      34.204 -22.779 -16.955  0.00  0.00    -0.004 C 
ATOM     21  C   UNL     1      32.879 -22.762 -17.360  0.00  0.00    +0.077 C 
ATOM     22  C   UNL     1      35.170 -22.390 -17.877  0.00  0.00    -0.005 C 
ATOM     23  C   UNL     1      33.436 -22.019 -19.461  0.00  0.00    +0.095 C 
ATOM     24  C   UNL     1      34.616 -23.195 -15.585  0.00  0.00    +0.033 C 
BRANCH  21  26
ATOM     25  N   UNL     1      29.727 -23.897 -14.758  0.00  0.00    -0.248 NA
ATOM     26  C   UNL     1      31.804 -23.149 -16.473  0.00  0.00    +0.020 C 
ATOM     27  C   UNL     1      30.497 -22.760 -16.748  0.00  0.00    +0.016 C 
ATOM     28  C   UNL     1      32.073 -23.912 -15.342  0.00  0.00    +0.022 C 
ATOM     29  C   UNL     1      29.504 -23.157 -15.866  0.00  0.00    +0.059 C 
ATOM     30  C   UNL     1      31.010 -24.256 -14.524  0.00  0.00    +0.098 C 
ATOM     31  C   UNL     1      28.090 -22.757 -16.129  0.00  0.00    +0.052 C 
ENDBRANCH  21  26
ENDBRANCH  17  19
ENDBRANCH   4  17
TORSDOF 4
ENDMDL
MODEL 6
REMARK VINA RESULT:     -11.6      1.869     11.138
REMARK  Name = 46926973
REMARK  4 active torsions:
REMARK  status: ('A' for Active; 'I' for Inactive)
REMARK    1  A    between atoms: C_4  and  C_17
REMARK    2  A    between atoms: C_6  and  C_13
REMARK    3  A    between atoms: C_17  and  C_19
REMARK    4  A    between atoms: C_21  and  C_26
REMARK                            x       y       z     vdW  Elec       q    Type
REMARK                         _______ _______ _______ _____ _____    ______ ____
ROOT
ATOM      1  O   UNL     1      35.889 -18.838 -20.145  0.00  0.00    -0.274 OA
ATOM      2  N   UNL     1      35.008 -19.330 -22.269  0.00  0.00    -0.269 N 
ATOM      3  N   UNL     1      34.125 -17.999 -24.015  0.00  0.00    -0.229 NA
ATOM      4  C   UNL     1      35.578 -19.634 -21.026  0.00  0.00    +0.232 C 
ATOM      5  C   UNL     1      34.670 -18.070 -22.779  0.00  0.00    +0.134 C 
ATOM      6  C   UNL     1      34.028 -15.599 -23.741  0.00  0.00    +0.038 C 
ATOM      7  C   UNL     1      34.920 -16.968 -21.977  0.00  0.00    +0.035 C 
ATOM      8  C   UNL     1      34.589 -15.713 -22.474  0.00  0.00    +0.006 C 
ATOM      9  C   UNL     1      33.817 -16.762 -24.464  0.00  0.00    +0.102 C 
ATOM     10  H   UNL     1      34.822 -20.097 -22.858  0.00  0.00    +0.156 HD
ENDROOT
BRANCH   6  13
ATOM     11  N   UNL     1      33.177 -14.314 -25.539  0.00  0.00    -0.241 NA
ATOM     12  N   UNL     1      33.500 -11.942 -24.080  0.00  0.00    -0.239 NA
ATOM     13  C   UNL     1      33.673 -14.310 -24.285  0.00  0.00    +0.102 C 
ATOM     14  C   UNL     1      33.832 -13.144 -23.569  0.00  0.00    +0.118 C 
ATOM     15  C   UNL     1      32.844 -13.112 -26.049  0.00  0.00    +0.119 C 
ATOM     16  C   UNL     1      33.004 -11.947 -25.333  0.00  0.00    +0.120 C 
ENDBRANCH   6  13
BRANCH   4  17
ATOM     17  C   UNL     1      35.784 -21.133 -20.875  0.00  0.00    +0.113 C 
BRANCH  17  19
ATOM     18  N   UNL     1      33.721 -22.658 -18.091  0.00  0.00    -0.244 NA
ATOM     19  C   UNL     1      35.397 -21.658 -19.517  0.00  0.00    +0.006 C 
ATOM     20  C   UNL     1      35.912 -22.130 -17.215  0.00  0.00    -0.004 C 
ATOM     21  C   UNL     1      34.624 -22.624 -17.085  0.00  0.00    +0.077 C 
ATOM     22  C   UNL     1      36.298 -21.640 -18.459  0.00  0.00    -0.005 C 
ATOM     23  C   UNL     1      34.132 -22.173 -19.283  0.00  0.00    +0.095 C 
ATOM     24  C   UNL     1      36.879 -22.109 -16.082  0.00  0.00    +0.033 C 
BRANCH  21  26
ATOM     25  N   UNL     1      33.182 -24.177 -13.411  0.00  0.00    -0.248 NA
ATOM     26  C   UNL     1      34.132 -23.153 -15.833  0.00  0.00    +0.020 C 
ATOM     27  C   UNL     1      35.014 -23.407 -14.788  0.00  0.00    +0.016 C 
ATOM     28  C   UNL     1      32.776 -23.410 -15.668  0.00  0.00    +0.022 C 
ATOM     29  C   UNL     1      34.492 -23.915 -13.608  0.00  0.00    +0.059 C 
ATOM     30  C   UNL     1      32.355 -23.918 -14.450  0.00  0.00    +0.098 C 
ATOM     31  C   UNL     1      35.410 -24.200 -12.465  0.00  0.00    +0.052 C 
ENDBRANCH  21  26
ENDBRANCH  17  19
ENDBRANCH   4  17
TORSDOF 4
ENDMDL
MODEL 7
REMARK VINA RESULT:     -11.5      1.679      3.121
REMARK  Name = 46926973
REMARK  4 active torsions:
REMARK  status: ('A' for Active; 'I' for Inactive)
REMARK    1  A    between atoms: C_4  and  C_17
REMARK    2  A    between atoms: C_6  and  C_13
REMARK    3  A    between atoms: C_17  and  C_19
REMARK    4  A    between atoms: C_21  and  C_26
REMARK                            x       y       z     vdW  Elec       q    Type
REMARK                         _______ _______ _______ _____ _____    ______ ____
ROOT
ATOM      1  O   UNL     1      33.053 -20.337 -20.952  0.00  0.00    -0.274 OA
ATOM      2  N   UNL     1      34.782 -21.239 -19.637  0.00  0.00    -0.269 N 
ATOM      3  N   UNL     1      34.817 -22.544 -17.664  0.00  0.00    -0.229 NA
ATOM      4  C   UNL     1      34.243 -20.518 -20.711  0.00  0.00    +0.232 C 
ATOM      5  C   UNL     1      34.096 -21.903 -18.612  0.00  0.00    +0.134 C 
ATOM      6  C   UNL     1      32.727 -23.190 -16.634  0.00  0.00    +0.038 C 
ATOM      7  C   UNL     1      32.712 -21.862 -18.639  0.00  0.00    +0.035 C 
ATOM      8  C   UNL     1      32.022 -22.519 -17.626  0.00  0.00    +0.006 C 
ATOM      9  C   UNL     1      34.111 -23.172 -16.697  0.00  0.00    +0.102 C 
ATOM     10  H   UNL     1      35.765 -21.284 -19.598  0.00  0.00    +0.156 HD
ENDROOT
BRANCH   6  13
ATOM     11  N   UNL     1      30.744 -24.177 -15.798  0.00  0.00    -0.241 NA
ATOM     12  N   UNL     1      32.022 -24.865 -13.399  0.00  0.00    -0.239 NA
ATOM     13  C   UNL     1      32.040 -23.882 -15.569  0.00  0.00    +0.102 C 
ATOM     14  C   UNL     1      32.667 -24.220 -14.390  0.00  0.00    +0.118 C 
ATOM     15  C   UNL     1      30.100 -24.823 -14.807  0.00  0.00    +0.119 C 
ATOM     16  C   UNL     1      30.727 -25.161 -13.628  0.00  0.00    +0.120 C 
ENDBRANCH   6  13
BRANCH   4  17
ATOM     17  C   UNL     1      35.345 -19.957 -21.596  0.00  0.00    +0.113 C 
BRANCH  17  19
ATOM     18  N   UNL     1      34.555 -16.302 -22.186  0.00  0.00    -0.244 NA
ATOM     19  C   UNL     1      34.958 -18.683 -22.300  0.00  0.00    +0.006 C 
ATOM     20  C   UNL     1      34.295 -17.486 -24.278  0.00  0.00    -0.004 C 
ATOM     21  C   UNL     1      34.263 -16.336 -23.506  0.00  0.00    +0.077 C 
ATOM     22  C   UNL     1      34.650 -18.678 -23.655  0.00  0.00    -0.005 C 
ATOM     23  C   UNL     1      34.896 -17.479 -21.616  0.00  0.00    +0.095 C 
ATOM     24  C   UNL     1      33.965 -17.483 -25.731  0.00  0.00    +0.033 C 
BRANCH  21  26
ATOM     25  N   UNL     1      33.212 -12.567 -25.143  0.00  0.00    -0.248 NA
ATOM     26  C   UNL     1      33.905 -15.051 -24.064  0.00  0.00    +0.020 C 
ATOM     27  C   UNL     1      33.327 -14.975 -25.327  0.00  0.00    +0.016 C 
ATOM     28  C   UNL     1      34.136 -13.887 -23.340  0.00  0.00    +0.022 C 
ATOM     29  C   UNL     1      33.003 -13.719 -25.816  0.00  0.00    +0.059 C 
ATOM     30  C   UNL     1      33.776 -12.681 -23.919  0.00  0.00    +0.098 C 
ATOM     31  C   UNL     1      32.382 -13.599 -27.169  0.00  0.00    +0.052 C 
ENDBRANCH  21  26
ENDBRANCH  17  19
ENDBRANCH   4  17
TORSDOF 4
ENDMDL
MODEL 8
REMARK VINA RESULT:     -11.5      1.608     11.124
REMARK  Name = 46926973
REMARK  4 active torsions:
REMARK  status: ('A' for Active; 'I' for Inactive)
REMARK    1  A    between atoms: C_4  and  C_17
REMARK    2  A    between atoms: C_6  and  C_13
REMARK    3  A    between atoms: C_17  and  C_19
REMARK    4  A    between atoms: C_21  and  C_26
REMARK                            x       y       z     vdW  Elec       q    Type
REMARK                         _______ _______ _______ _____ _____    ______ ____
ROOT
ATOM      1  O   UNL     1      34.938 -16.379 -21.903  0.00  0.00    -0.274 OA
ATOM      2  N   UNL     1      34.163 -16.206 -24.117  0.00  0.00    -0.269 N 
ATOM      3  N   UNL     1      33.333 -14.412 -25.416  0.00  0.00    -0.229 NA
ATOM      4  C   UNL     1      34.682 -16.871 -22.998  0.00  0.00    +0.232 C 
ATOM      5  C   UNL     1      33.823 -14.853 -24.235  0.00  0.00    +0.134 C 
ATOM      6  C   UNL     1      33.177 -12.209 -24.432  0.00  0.00    +0.038 C 
ATOM      7  C   UNL     1      34.016 -14.046 -23.126  0.00  0.00    +0.035 C 
ATOM      8  C   UNL     1      33.683 -12.700 -23.234  0.00  0.00    +0.006 C 
ATOM      9  C   UNL     1      33.021 -13.098 -25.483  0.00  0.00    +0.102 C 
ATOM     10  H   UNL     1      34.018 -16.759 -24.919  0.00  0.00    +0.156 HD
ENDROOT
BRANCH   6  13
ATOM     11  N   UNL     1      32.506 -10.168 -23.436  0.00  0.00    -0.241 NA
ATOM     12  N   UNL     1      32.473  -8.889 -25.931  0.00  0.00    -0.239 NA
ATOM     13  C   UNL     1      32.821 -10.817 -24.575  0.00  0.00    +0.102 C 
ATOM     14  C   UNL     1      32.805 -10.188 -25.801  0.00  0.00    +0.118 C 
ATOM     15  C   UNL     1      32.174  -8.869 -23.567  0.00  0.00    +0.119 C 
ATOM     16  C   UNL     1      32.157  -8.240 -24.792  0.00  0.00    +0.120 C 
ENDBRANCH   6  13
BRANCH   4  17
ATOM     17  C   UNL     1      34.911 -18.344 -23.300  0.00  0.00    +0.113 C 
BRANCH  17  19
ATOM     18  N   UNL     1      35.967 -20.478 -20.356  0.00  0.00    -0.244 NA
ATOM     19  C   UNL     1      34.827 -19.226 -22.081  0.00  0.00    +0.006 C 
ATOM     20  C   UNL     1      33.551 -20.421 -20.428  0.00  0.00    -0.004 C 
ATOM     21  C   UNL     1      34.754 -20.825 -19.872  0.00  0.00    +0.077 C 
ATOM     22  C   UNL     1      33.598 -19.605 -21.554  0.00  0.00    -0.005 C 
ATOM     23  C   UNL     1      35.972 -19.685 -21.450  0.00  0.00    +0.095 C 
ATOM     24  C   UNL     1      32.232 -20.827 -19.866  0.00  0.00    +0.033 C 
BRANCH  21  26
ATOM     25  N   UNL     1      34.908 -23.314 -16.441  0.00  0.00    -0.248 NA
ATOM     26  C   UNL     1      34.806 -21.674 -18.703  0.00  0.00    +0.020 C 
ATOM     27  C   UNL     1      35.948 -21.699 -17.909  0.00  0.00    +0.016 C 
ATOM     28  C   UNL     1      33.715 -22.468 -18.366  0.00  0.00    +0.022 C 
ATOM     29  C   UNL     1      35.948 -22.529 -16.799  0.00  0.00    +0.059 C 
ATOM     30  C   UNL     1      33.815 -23.263 -17.236  0.00  0.00    +0.098 C 
ATOM     31  C   UNL     1      37.157 -22.582 -15.925  0.00  0.00    +0.052 C 
ENDBRANCH  21  26
ENDBRANCH  17  19
ENDBRANCH   4  17
TORSDOF 4
ENDMDL
MODEL 9
REMARK VINA RESULT:     -11.4      2.806     10.559
REMARK  Name = 46926973
REMARK  4 active torsions:
REMARK  status: ('A' for Active; 'I' for Inactive)
REMARK    1  A    between atoms: C_4  and  C_17
REMARK    2  A    between atoms: C_6  and  C_13
REMARK    3  A    between atoms: C_17  and  C_19
REMARK    4  A    between atoms: C_21  and  C_26
REMARK                            x       y       z     vdW  Elec       q    Type
REMARK                         _______ _______ _______ _____ _____    ______ ____
ROOT
ATOM      1  O   UNL     1      33.704 -12.845 -26.245  0.00  0.00    -0.274 OA
ATOM      2  N   UNL     1      32.621 -13.533 -24.274  0.00  0.00    -0.269 N 
ATOM      3  N   UNL     1      31.805 -12.381 -22.377  0.00  0.00    -0.229 NA
ATOM      4  C   UNL     1      33.230 -13.717 -25.523  0.00  0.00    +0.232 C 
ATOM      5  C   UNL     1      32.420 -12.334 -23.580  0.00  0.00    +0.134 C 
ATOM      6  C   UNL     1      32.041  -9.977 -22.257  0.00  0.00    +0.038 C 
ATOM      7  C   UNL     1      32.867 -11.167 -24.178  0.00  0.00    +0.035 C 
ATOM      8  C   UNL     1      32.671  -9.970 -23.497  0.00  0.00    +0.006 C 
ATOM      9  C   UNL     1      31.631 -11.198 -21.745  0.00  0.00    +0.102 C 
ATOM     10  H   UNL     1      32.294 -14.349 -23.830  0.00  0.00    +0.156 HD
ENDROOT
BRANCH   6  13
ATOM     11  N   UNL     1      31.209  -7.762 -22.204  0.00  0.00    -0.241 NA
ATOM     12  N   UNL     1      32.014  -7.456 -19.535  0.00  0.00    -0.239 NA
ATOM     13  C   UNL     1      31.823  -8.752 -21.526  0.00  0.00    +0.102 C 
ATOM     14  C   UNL     1      32.218  -8.602 -20.215  0.00  0.00    +0.118 C 
ATOM     15  C   UNL     1      31.004  -6.617 -21.523  0.00  0.00    +0.119 C 
ATOM     16  C   UNL     1      31.400  -6.466 -20.213  0.00  0.00    +0.120 C 
ENDBRANCH   6  13
BRANCH   4  17
ATOM     17  C   UNL     1      33.240 -15.187 -25.911  0.00  0.00    +0.113 C 
BRANCH  17  19
ATOM     18  N   UNL     1      34.009 -18.352 -23.981  0.00  0.00    -0.244 NA
ATOM     19  C   UNL     1      33.652 -16.101 -24.787  0.00  0.00    +0.006 C 
ATOM     20  C   UNL     1      34.419 -16.458 -22.535  0.00  0.00    -0.004 C 
ATOM     21  C   UNL     1      34.385 -17.818 -22.797  0.00  0.00    +0.077 C 
ATOM     22  C   UNL     1      34.045 -15.590 -23.555  0.00  0.00    -0.005 C 
ATOM     23  C   UNL     1      33.652 -17.478 -24.947  0.00  0.00    +0.095 C 
ATOM     24  C   UNL     1      34.838 -15.908 -21.215  0.00  0.00    +0.033 C 
BRANCH  21  26
ATOM     25  N   UNL     1      35.472 -20.691 -19.872  0.00  0.00    -0.248 NA
ATOM     26  C   UNL     1      34.755 -18.797 -21.800  0.00  0.00    +0.020 C 
ATOM     27  C   UNL     1      33.783 -19.604 -21.218  0.00  0.00    +0.016 C 
ATOM     28  C   UNL     1      36.085 -18.936 -21.419  0.00  0.00    +0.022 C 
ATOM     29  C   UNL     1      34.190 -20.527 -20.268  0.00  0.00    +0.059 C 
ATOM     30  C   UNL     1      36.389 -19.889 -20.459  0.00  0.00    +0.098 C 
ATOM     31  C   UNL     1      33.174 -21.409 -19.622  0.00  0.00    +0.052 C 
ENDBRANCH  21  26
ENDBRANCH  17  19
ENDBRANCH   4  17
TORSDOF 4
ENDMDL
