MODEL 1
REMARK VINA RESULT:     -12.6      0.000      0.000
REMARK  Name = 447656
REMARK  5 active torsions:
REMARK  status: ('A' for Active; 'I' for Inactive)
REMARK    1  A    between atoms: N_5  and  C_14
REMARK    2  A    between atoms: C_6  and  O_25
REMARK    3  A    between atoms: C_17  and  C_22
REMARK    4  A    between atoms: O_25  and  C_26
REMARK    5  A    between atoms: C_26  and  C_27
REMARK                            x       y       z     vdW  Elec       q    Type
REMARK                         _______ _______ _______ _____ _____    ______ ____
ROOT
ATOM      1  N   UNL     1      33.505 -23.851 -15.855  0.00  0.00    -0.293 NA
ATOM      2  N   UNL     1      30.112 -22.867 -16.874  0.00  0.00    -0.266 NA
ATOM      3  N   UNL     1      31.873 -23.878 -14.042  0.00  0.00    -0.316 NA
ATOM      4  N   UNL     1      29.634 -23.225 -14.727  0.00  0.00    -0.296 N 
ATOM      5  N   UNL     1      34.109 -24.461 -13.676  0.00  0.00    -0.238 N 
ATOM      6  C   UNL     1      32.574 -23.449 -16.746  0.00  0.00    +0.288 C 
ATOM      7  C   UNL     1      31.285 -23.257 -16.293  0.00  0.00    +0.215 C 
ATOM      8  C   UNL     1      30.962 -23.474 -14.960  0.00  0.00    +0.196 C 
ATOM      9  C   UNL     1      33.103 -24.039 -14.576  0.00  0.00    +0.207 C 
ATOM     10  C   UNL     1      29.153 -22.863 -15.897  0.00  0.00    +0.164 C 
ATOM     11  H   UNL     1      29.981 -22.632 -17.821  0.00  0.00    +0.126 HD
ATOM     12  H   UNL     1      29.148 -23.301 -13.874  0.00  0.00    +0.150 HD
ATOM     13  H   UNL     1      33.788 -24.589 -12.754  0.00  0.00    +0.166 HD
ENDROOT
BRANCH   5  14
ATOM     14  C   UNL     1      35.479 -24.732 -13.841  0.00  0.00    +0.058 C 
ATOM     15  C   UNL     1      35.897 -25.701 -14.756  0.00  0.00    +0.015 C 
ATOM     16  C   UNL     1      36.428 -24.035 -13.089  0.00  0.00    +0.015 C 
ATOM     17  C   UNL     1      38.201 -25.273 -14.169  0.00  0.00    +0.053 C 
ATOM     18  C   UNL     1      37.255 -25.971 -14.921  0.00  0.00    +0.006 C 
ATOM     19  C   UNL     1      37.787 -24.305 -13.254  0.00  0.00    +0.006 C 
BRANCH  17  22
ATOM     20  O   UNL     1      40.469 -24.649 -14.279  0.00  0.00    -0.270 OA
ATOM     21  N   UNL     1      39.994 -26.876 -14.555  0.00  0.00    -0.325 N 
ATOM     22  C   UNL     1      39.616 -25.553 -14.340  0.00  0.00    +0.243 C 
ATOM     23  H   UNL     1      40.944 -27.103 -14.676  0.00  0.00    +0.145 HD
ATOM     24  H   UNL     1      39.310 -27.584 -14.589  0.00  0.00    +0.145 HD
ENDBRANCH  17  22
ENDBRANCH   5  14
BRANCH   6  25
ATOM     25  O   UNL     1      32.948 -23.249 -18.052  0.00  0.00    -0.453 OA
BRANCH  25  26
ATOM     26  C   UNL     1      34.150 -22.533 -18.274  0.00  0.00    +0.208 C 
BRANCH  26  27
ATOM     27  C   UNL     1      34.029 -21.785 -19.601  0.00  0.00    +0.044 C 
ATOM     28  C   UNL     1      32.747 -20.944 -19.634  0.00  0.00    +0.004 C 
ATOM     29  C   UNL     1      35.264 -20.908 -19.842  0.00  0.00    +0.004 C 
ATOM     30  C   UNL     1      32.630 -20.144 -20.931  0.00  0.00    +0.000 C 
ATOM     31  C   UNL     1      35.144 -20.108 -21.137  0.00  0.00    +0.000 C 
ATOM     32  C   UNL     1      33.863 -19.281 -21.171  0.00  0.00    +0.000 C 
ENDBRANCH  26  27
ENDBRANCH  25  26
ENDBRANCH   6  25
TORSDOF 5
ENDMDL
MODEL 2
REMARK VINA RESULT:     -12.5      2.104      6.783
REMARK  Name = 447656
REMARK  5 active torsions:
REMARK  status: ('A' for Active; 'I' for Inactive)
REMARK    1  A    between atoms: N_5  and  C_14
REMARK    2  A    between atoms: C_6  and  O_25
REMARK    3  A    between atoms: C_17  and  C_22
REMARK    4  A    between atoms: O_25  and  C_26
REMARK    5  A    between atoms: C_26  and  C_27
REMARK                            x       y       z     vdW  Elec       q    Type
REMARK                         _______ _______ _______ _____ _____    ______ ____
ROOT
ATOM      1  N   UNL     1      33.262 -23.529 -15.777  0.00  0.00    -0.293 NA
ATOM      2  N   UNL     1      36.913 -23.948 -15.638  0.00  0.00    -0.266 NA
ATOM      3  N   UNL     1      34.058 -24.684 -13.781  0.00  0.00    -0.316 NA
ATOM      4  N   UNL     1      36.472 -24.956 -13.700  0.00  0.00    -0.296 N 
ATOM      5  N   UNL     1      31.779 -24.282 -14.128  0.00  0.00    -0.238 N 
ATOM      6  C   UNL     1      34.519 -23.390 -16.250  0.00  0.00    +0.288 C 
ATOM      7  C   UNL     1      35.555 -23.897 -15.494  0.00  0.00    +0.215 C 
ATOM      8  C   UNL     1      35.307 -24.529 -14.283  0.00  0.00    +0.196 C 
ATOM      9  C   UNL     1      33.110 -24.158 -14.587  0.00  0.00    +0.207 C 
ATOM     10  C   UNL     1      37.417 -24.590 -14.540  0.00  0.00    +0.164 C 
ATOM     11  H   UNL     1      37.432 -23.588 -16.394  0.00  0.00    +0.126 HD
ATOM     12  H   UNL     1      36.578 -25.429 -12.843  0.00  0.00    +0.150 HD
ATOM     13  H   UNL     1      31.700 -24.742 -13.262  0.00  0.00    +0.166 HD
ENDROOT
BRANCH   5  14
ATOM     14  C   UNL     1      30.546 -23.874 -14.666  0.00  0.00    +0.058 C 
ATOM     15  C   UNL     1      30.156 -22.534 -14.593  0.00  0.00    +0.015 C 
ATOM     16  C   UNL     1      29.704 -24.807 -15.277  0.00  0.00    +0.015 C 
ATOM     17  C   UNL     1      28.095 -23.064 -15.737  0.00  0.00    +0.053 C 
ATOM     18  C   UNL     1      28.933 -22.130 -15.128  0.00  0.00    +0.006 C 
ATOM     19  C   UNL     1      28.481 -24.403 -15.812  0.00  0.00    +0.006 C 
BRANCH  17  22
ATOM     20  O   UNL     1      25.843 -22.396 -15.566  0.00  0.00    -0.270 OA
ATOM     21  N   UNL     1      26.733 -22.504 -17.677  0.00  0.00    -0.325 N 
ATOM     22  C   UNL     1      26.821 -22.643 -16.295  0.00  0.00    +0.243 C 
ATOM     23  H   UNL     1      25.885 -22.221 -18.090  0.00  0.00    +0.145 HD
ATOM     24  H   UNL     1      27.517 -22.690 -18.242  0.00  0.00    +0.145 HD
ENDBRANCH  17  22
ENDBRANCH   5  14
BRANCH   6  25
ATOM     25  O   UNL     1      34.708 -22.757 -17.455  0.00  0.00    -0.453 OA
BRANCH  25  26
ATOM     26  C   UNL     1      33.608 -22.731 -18.347  0.00  0.00    +0.208 C 
BRANCH  26  27
ATOM     27  C   UNL     1      34.001 -21.912 -19.575  0.00  0.00    +0.044 C 
ATOM     28  C   UNL     1      32.948 -20.835 -19.868  0.00  0.00    +0.004 C 
ATOM     29  C   UNL     1      35.388 -21.283 -19.387  0.00  0.00    +0.004 C 
ATOM     30  C   UNL     1      33.345 -19.968 -21.061  0.00  0.00    +0.000 C 
ATOM     31  C   UNL     1      35.780 -20.415 -20.580  0.00  0.00    +0.000 C 
ATOM     32  C   UNL     1      34.727 -19.352 -20.874  0.00  0.00    +0.000 C 
ENDBRANCH  26  27
ENDBRANCH  25  26
ENDBRANCH   6  25
TORSDOF 5
ENDMDL
MODEL 3
REMARK VINA RESULT:     -12.4      2.148      6.597
REMARK  Name = 447656
REMARK  5 active torsions:
REMARK  status: ('A' for Active; 'I' for Inactive)
REMARK    1  A    between atoms: N_5  and  C_14
REMARK    2  A    between atoms: C_6  and  O_25
REMARK    3  A    between atoms: C_17  and  C_22
REMARK    4  A    between atoms: O_25  and  C_26
REMARK    5  A    between atoms: C_26  and  C_27
REMARK                            x       y       z     vdW  Elec       q    Type
REMARK                         _______ _______ _______ _____ _____    ______ ____
ROOT
ATOM      1  N   UNL     1      34.078 -23.947 -14.588  0.00  0.00    -0.293 NA
ATOM      2  N   UNL     1      37.598 -24.055 -13.531  0.00  0.00    -0.266 NA
ATOM      3  N   UNL     1      34.389 -24.235 -12.185  0.00  0.00    -0.316 NA
ATOM      4  N   UNL     1      36.720 -24.306 -11.498  0.00  0.00    -0.296 N 
ATOM      5  N   UNL     1      32.252 -24.132 -13.132  0.00  0.00    -0.238 N 
ATOM      6  C   UNL     1      35.410 -23.913 -14.800  0.00  0.00    +0.288 C 
ATOM      7  C   UNL     1      36.244 -24.041 -13.708  0.00  0.00    +0.215 C 
ATOM      8  C   UNL     1      35.721 -24.198 -12.432  0.00  0.00    +0.196 C 
ATOM      9  C   UNL     1      33.654 -24.103 -13.311  0.00  0.00    +0.207 C 
ATOM     10  C   UNL     1      37.835 -24.216 -12.192  0.00  0.00    +0.164 C 
ATOM     11  H   UNL     1      38.279 -23.967 -14.237  0.00  0.00    +0.126 HD
ATOM     12  H   UNL     1      36.625 -24.424 -10.525  0.00  0.00    +0.150 HD
ATOM     13  H   UNL     1      31.974 -24.246 -12.195  0.00  0.00    +0.166 HD
ENDROOT
BRANCH   5  14
ATOM     14  C   UNL     1      31.177 -24.029 -14.033  0.00  0.00    +0.058 C 
ATOM     15  C   UNL     1      30.368 -25.140 -14.289  0.00  0.00    +0.015 C 
ATOM     16  C   UNL     1      30.912 -22.817 -14.675  0.00  0.00    +0.015 C 
ATOM     17  C   UNL     1      29.040 -23.827 -15.821  0.00  0.00    +0.053 C 
ATOM     18  C   UNL     1      29.301 -25.039 -15.182  0.00  0.00    +0.006 C 
ATOM     19  C   UNL     1      29.845 -22.716 -15.568  0.00  0.00    +0.006 C 
BRANCH  17  22
ATOM     20  O   UNL     1      27.540 -24.700 -17.413  0.00  0.00    -0.270 OA
ATOM     21  N   UNL     1      27.292 -22.487 -16.863  0.00  0.00    -0.325 N 
ATOM     22  C   UNL     1      27.927 -23.721 -16.751  0.00  0.00    +0.243 C 
ATOM     23  H   UNL     1      26.535 -22.378 -17.484  0.00  0.00    +0.145 HD
ATOM     24  H   UNL     1      27.601 -21.723 -16.324  0.00  0.00    +0.145 HD
ENDBRANCH  17  22
ENDBRANCH   5  14
BRANCH   6  25
ATOM     25  O   UNL     1      35.874 -23.757 -16.084  0.00  0.00    -0.453 OA
BRANCH  25  26
ATOM     26  C   UNL     1      36.041 -22.430 -16.550  0.00  0.00    +0.208 C 
BRANCH  26  27
ATOM     27  C   UNL     1      35.498 -22.345 -17.975  0.00  0.00    +0.044 C 
ATOM     28  C   UNL     1      33.966 -22.264 -17.967  0.00  0.00    +0.004 C 
ATOM     29  C   UNL     1      36.105 -21.147 -18.716  0.00  0.00    +0.004 C 
ATOM     30  C   UNL     1      33.401 -22.124 -19.380  0.00  0.00    +0.000 C 
ATOM     31  C   UNL     1      35.537 -21.009 -20.126  0.00  0.00    +0.000 C 
ATOM     32  C   UNL     1      34.014 -20.938 -20.115  0.00  0.00    +0.000 C 
ENDBRANCH  26  27
ENDBRANCH  25  26
ENDBRANCH   6  25
TORSDOF 5
ENDMDL
MODEL 4
REMARK VINA RESULT:     -12.1      1.191      1.704
REMARK  Name = 447656
REMARK  5 active torsions:
REMARK  status: ('A' for Active; 'I' for Inactive)
REMARK    1  A    between atoms: N_5  and  C_14
REMARK    2  A    between atoms: C_6  and  O_25
REMARK    3  A    between atoms: C_17  and  C_22
REMARK    4  A    between atoms: O_25  and  C_26
REMARK    5  A    between atoms: C_26  and  C_27
REMARK                            x       y       z     vdW  Elec       q    Type
REMARK                         _______ _______ _______ _____ _____    ______ ____
ROOT
ATOM      1  N   UNL     1      32.170 -23.451 -16.028  0.00  0.00    -0.293 NA
ATOM      2  N   UNL     1      28.775 -22.617 -17.168  0.00  0.00    -0.266 NA
ATOM      3  N   UNL     1      30.396 -24.277 -14.570  0.00  0.00    -0.316 NA
ATOM      4  N   UNL     1      28.157 -23.720 -15.333  0.00  0.00    -0.296 N 
ATOM      5  N   UNL     1      32.652 -24.665 -14.084  0.00  0.00    -0.238 N 
ATOM      6  C   UNL     1      31.275 -22.897 -16.873  0.00  0.00    +0.288 C 
ATOM      7  C   UNL     1      29.934 -23.027 -16.575  0.00  0.00    +0.215 C 
ATOM      8  C   UNL     1      29.524 -23.710 -15.438  0.00  0.00    +0.196 C 
ATOM      9  C   UNL     1      31.682 -24.099 -14.943  0.00  0.00    +0.207 C 
ATOM     10  C   UNL     1      27.738 -23.054 -16.388  0.00  0.00    +0.164 C 
ATOM     11  H   UNL     1      28.699 -22.100 -18.003  0.00  0.00    +0.126 HD
ATOM     12  H   UNL     1      27.610 -24.133 -14.626  0.00  0.00    +0.150 HD
ATOM     13  H   UNL     1      32.269 -25.129 -13.305  0.00  0.00    +0.166 HD
ENDROOT
BRANCH   5  14
ATOM     14  C   UNL     1      34.057 -24.694 -14.125  0.00  0.00    +0.058 C 
ATOM     15  C   UNL     1      34.715 -25.483 -15.072  0.00  0.00    +0.015 C 
ATOM     16  C   UNL     1      34.802 -23.936 -13.219  0.00  0.00    +0.015 C 
ATOM     17  C   UNL     1      36.850 -24.753 -14.208  0.00  0.00    +0.053 C 
ATOM     18  C   UNL     1      36.109 -25.512 -15.114  0.00  0.00    +0.006 C 
ATOM     19  C   UNL     1      36.196 -23.965 -13.260  0.00  0.00    +0.006 C 
BRANCH  17  22
ATOM     20  O   UNL     1      38.985 -24.661 -13.218  0.00  0.00    -0.270 OA
ATOM     21  N   UNL     1      38.910 -24.974 -15.489  0.00  0.00    -0.325 N 
ATOM     22  C   UNL     1      38.302 -24.783 -14.251  0.00  0.00    +0.243 C 
ATOM     23  H   UNL     1      39.892 -24.999 -15.557  0.00  0.00    +0.145 HD
ATOM     24  H   UNL     1      38.357 -25.082 -16.297  0.00  0.00    +0.145 HD
ENDBRANCH  17  22
ENDBRANCH   5  14
BRANCH   6  25
ATOM     25  O   UNL     1      31.736 -22.232 -17.983  0.00  0.00    -0.453 OA
BRANCH  25  26
ATOM     26  C   UNL     1      32.970 -22.664 -18.525  0.00  0.00    +0.208 C 
BRANCH  26  27
ATOM     27  C   UNL     1      33.692 -21.452 -19.111  0.00  0.00    +0.044 C 
ATOM     28  C   UNL     1      35.093 -21.841 -19.604  0.00  0.00    +0.004 C 
ATOM     29  C   UNL     1      32.869 -20.826 -20.245  0.00  0.00    +0.004 C 
ATOM     30  C   UNL     1      35.815 -20.657 -20.243  0.00  0.00    +0.000 C 
ATOM     31  C   UNL     1      33.595 -19.645 -20.883  0.00  0.00    +0.000 C 
ATOM     32  C   UNL     1      34.990 -20.033 -21.363  0.00  0.00    +0.000 C 
ENDBRANCH  26  27
ENDBRANCH  25  26
ENDBRANCH   6  25
TORSDOF 5
ENDMDL
MODEL 5
REMARK VINA RESULT:     -12.0      2.501      7.033
REMARK  Name = 447656
REMARK  5 active torsions:
REMARK  status: ('A' for Active; 'I' for Inactive)
REMARK    1  A    between atoms: N_5  and  C_14
REMARK    2  A    between atoms: C_6  and  O_25
REMARK    3  A    between atoms: C_17  and  C_22
REMARK    4  A    between atoms: O_25  and  C_26
REMARK    5  A    between atoms: C_26  and  C_27
REMARK                            x       y       z     vdW  Elec       q    Type
REMARK                         _______ _______ _______ _____ _____    ______ ____
ROOT
ATOM      1  N   UNL     1      33.376 -22.793 -16.427  0.00  0.00    -0.293 NA
ATOM      2  N   UNL     1      32.202 -24.672 -13.492  0.00  0.00    -0.266 NA
ATOM      3  N   UNL     1      31.091 -23.625 -16.624  0.00  0.00    -0.316 NA
ATOM      4  N   UNL     1      30.326 -24.866 -14.679  0.00  0.00    -0.296 N 
ATOM      5  N   UNL     1      32.091 -22.395 -18.345  0.00  0.00    -0.238 N 
ATOM      6  C   UNL     1      33.510 -23.327 -15.194  0.00  0.00    +0.288 C 
ATOM      7  C   UNL     1      32.437 -24.015 -14.666  0.00  0.00    +0.215 C 
ATOM      8  C   UNL     1      31.257 -24.150 -15.385  0.00  0.00    +0.196 C 
ATOM      9  C   UNL     1      32.190 -22.971 -17.057  0.00  0.00    +0.207 C 
ATOM     10  C   UNL     1      30.926 -25.165 -13.546  0.00  0.00    +0.164 C 
ATOM     11  H   UNL     1      32.836 -24.774 -12.744  0.00  0.00    +0.126 HD
ATOM     12  H   UNL     1      29.411 -25.104 -14.956  0.00  0.00    +0.150 HD
ATOM     13  H   UNL     1      31.220 -22.541 -18.778  0.00  0.00    +0.166 HD
ENDROOT
BRANCH   5  14
ATOM     14  C   UNL     1      32.995 -21.655 -19.127  0.00  0.00    +0.058 C 
ATOM     15  C   UNL     1      32.530 -20.635 -19.961  0.00  0.00    +0.015 C 
ATOM     16  C   UNL     1      34.363 -21.936 -19.075  0.00  0.00    +0.015 C 
ATOM     17  C   UNL     1      34.791 -20.183 -20.682  0.00  0.00    +0.053 C 
ATOM     18  C   UNL     1      33.426 -19.900 -20.737  0.00  0.00    +0.006 C 
ATOM     19  C   UNL     1      35.260 -21.201 -19.850  0.00  0.00    +0.006 C 
BRANCH  17  22
ATOM     20  O   UNL     1      36.837 -19.075 -21.048  0.00  0.00    -0.270 OA
ATOM     21  N   UNL     1      35.344 -19.093 -22.789  0.00  0.00    -0.325 N 
ATOM     22  C   UNL     1      35.725 -19.417 -21.490  0.00  0.00    +0.243 C 
ATOM     23  H   UNL     1      35.951 -18.574 -23.365  0.00  0.00    +0.145 HD
ATOM     24  H   UNL     1      34.466 -19.380 -23.131  0.00  0.00    +0.145 HD
ENDBRANCH  17  22
ENDBRANCH   5  14
BRANCH   6  25
ATOM     25  O   UNL     1      34.700 -23.165 -14.527  0.00  0.00    -0.453 OA
BRANCH  25  26
ATOM     26  C   UNL     1      35.871 -23.067 -15.316  0.00  0.00    +0.208 C 
BRANCH  26  27
ATOM     27  C   UNL     1      36.981 -23.866 -14.636  0.00  0.00    +0.044 C 
ATOM     28  C   UNL     1      36.945 -23.659 -13.116  0.00  0.00    +0.004 C 
ATOM     29  C   UNL     1      36.870 -25.355 -14.988  0.00  0.00    +0.004 C 
ATOM     30  C   UNL     1      38.013 -24.490 -12.408  0.00  0.00    +0.000 C 
ATOM     31  C   UNL     1      37.938 -26.183 -14.276  0.00  0.00    +0.000 C 
ATOM     32  C   UNL     1      37.904 -25.968 -12.767  0.00  0.00    +0.000 C 
ENDBRANCH  26  27
ENDBRANCH  25  26
ENDBRANCH   6  25
TORSDOF 5
ENDMDL
MODEL 6
REMARK VINA RESULT:     -11.9      2.586      7.346
REMARK  Name = 447656
REMARK  5 active torsions:
REMARK  status: ('A' for Active; 'I' for Inactive)
REMARK    1  A    between atoms: N_5  and  C_14
REMARK    2  A    between atoms: C_6  and  O_25
REMARK    3  A    between atoms: C_17  and  C_22
REMARK    4  A    between atoms: O_25  and  C_26
REMARK    5  A    between atoms: C_26  and  C_27
REMARK                            x       y       z     vdW  Elec       q    Type
REMARK                         _______ _______ _______ _____ _____    ______ ____
ROOT
ATOM      1  N   UNL     1      35.162 -23.580 -15.839  0.00  0.00    -0.293 NA
ATOM      2  N   UNL     1      36.069 -25.535 -12.859  0.00  0.00    -0.266 NA
ATOM      3  N   UNL     1      37.548 -23.578 -15.334  0.00  0.00    -0.316 NA
ATOM      4  N   UNL     1      38.137 -24.873 -13.362  0.00  0.00    -0.296 N 
ATOM      5  N   UNL     1      36.693 -22.414 -17.174  0.00  0.00    -0.238 N 
ATOM      6  C   UNL     1      34.893 -24.366 -14.775  0.00  0.00    +0.288 C 
ATOM      7  C   UNL     1      35.949 -24.766 -13.982  0.00  0.00    +0.215 C 
ATOM      8  C   UNL     1      37.246 -24.367 -14.274  0.00  0.00    +0.196 C 
ATOM      9  C   UNL     1      36.455 -23.239 -16.050  0.00  0.00    +0.207 C 
ATOM     10  C   UNL     1      37.396 -25.570 -12.526  0.00  0.00    +0.164 C 
ATOM     11  H   UNL     1      35.335 -25.981 -12.378  0.00  0.00    +0.126 HD
ATOM     12  H   UNL     1      39.113 -24.744 -13.338  0.00  0.00    +0.150 HD
ATOM     13  H   UNL     1      37.641 -22.183 -17.303  0.00  0.00    +0.166 HD
ENDROOT
BRANCH   5  14
ATOM     14  C   UNL     1      35.839 -21.861 -18.145  0.00  0.00    +0.058 C 
ATOM     15  C   UNL     1      36.347 -20.990 -19.112  0.00  0.00    +0.015 C 
ATOM     16  C   UNL     1      34.478 -22.178 -18.146  0.00  0.00    +0.015 C 
ATOM     17  C   UNL     1      34.143 -20.760 -20.073  0.00  0.00    +0.053 C 
ATOM     18  C   UNL     1      35.501 -20.440 -20.075  0.00  0.00    +0.006 C 
ATOM     19  C   UNL     1      33.631 -21.629 -19.109  0.00  0.00    +0.006 C 
BRANCH  17  22
ATOM     20  O   UNL     1      32.025 -20.323 -21.007  0.00  0.00    -0.270 OA
ATOM     21  N   UNL     1      33.841 -19.464 -22.113  0.00  0.00    -0.325 N 
ATOM     22  C   UNL     1      33.260 -20.188 -21.077  0.00  0.00    +0.243 C 
ATOM     23  H   UNL     1      33.275 -19.063 -22.812  0.00  0.00    +0.145 HD
ATOM     24  H   UNL     1      34.819 -19.354 -22.150  0.00  0.00    +0.145 HD
ENDBRANCH  17  22
ENDBRANCH   5  14
BRANCH   6  25
ATOM     25  O   UNL     1      33.591 -24.731 -14.531  0.00  0.00    -0.453 OA
BRANCH  25  26
ATOM     26  C   UNL     1      32.864 -23.939 -13.610  0.00  0.00    +0.208 C 
BRANCH  26  27
ATOM     27  C   UNL     1      31.441 -23.765 -14.138  0.00  0.00    +0.044 C 
ATOM     28  C   UNL     1      31.459 -23.239 -15.580  0.00  0.00    +0.004 C 
ATOM     29  C   UNL     1      30.665 -25.085 -14.049  0.00  0.00    +0.004 C 
ATOM     30  C   UNL     1      30.048 -23.107 -16.150  0.00  0.00    +0.000 C 
ATOM     31  C   UNL     1      29.256 -24.951 -14.621  0.00  0.00    +0.000 C 
ATOM     32  C   UNL     1      29.277 -24.419 -16.050  0.00  0.00    +0.000 C 
ENDBRANCH  26  27
ENDBRANCH  25  26
ENDBRANCH   6  25
TORSDOF 5
ENDMDL
MODEL 7
REMARK VINA RESULT:     -10.7      2.812      7.588
REMARK  Name = 447656
REMARK  5 active torsions:
REMARK  status: ('A' for Active; 'I' for Inactive)
REMARK    1  A    between atoms: N_5  and  C_14
REMARK    2  A    between atoms: C_6  and  O_25
REMARK    3  A    between atoms: C_17  and  C_22
REMARK    4  A    between atoms: O_25  and  C_26
REMARK    5  A    between atoms: C_26  and  C_27
REMARK                            x       y       z     vdW  Elec       q    Type
REMARK                         _______ _______ _______ _____ _____    ______ ____
ROOT
ATOM      1  N   UNL     1      34.646 -22.562 -17.090  0.00  0.00    -0.293 NA
ATOM      2  N   UNL     1      34.780 -24.710 -14.108  0.00  0.00    -0.266 NA
ATOM      3  N   UNL     1      36.907 -23.062 -16.322  0.00  0.00    -0.316 NA
ATOM      4  N   UNL     1      36.984 -24.483 -14.350  0.00  0.00    -0.296 N 
ATOM      5  N   UNL     1      36.528 -21.717 -18.198  0.00  0.00    -0.238 N 
ATOM      6  C   UNL     1      34.100 -23.293 -16.095  0.00  0.00    +0.288 C 
ATOM      7  C   UNL     1      34.952 -23.915 -15.205  0.00  0.00    +0.215 C 
ATOM      8  C   UNL     1      36.328 -23.789 -15.335  0.00  0.00    +0.196 C 
ATOM      9  C   UNL     1      35.998 -22.492 -17.142  0.00  0.00    +0.207 C 
ATOM     10  C   UNL     1      36.024 -25.025 -13.631  0.00  0.00    +0.164 C 
ATOM     11  H   UNL     1      33.919 -25.003 -13.730  0.00  0.00    +0.126 HD
ATOM     12  H   UNL     1      37.956 -24.560 -14.213  0.00  0.00    +0.150 HD
ATOM     13  H   UNL     1      37.512 -21.685 -18.211  0.00  0.00    +0.166 HD
ENDROOT
BRANCH   5  14
ATOM     14  C   UNL     1      35.925 -20.983 -19.235  0.00  0.00    +0.058 C 
ATOM     15  C   UNL     1      34.580 -21.190 -19.551  0.00  0.00    +0.015 C 
ATOM     16  C   UNL     1      36.668 -20.043 -19.953  0.00  0.00    +0.015 C 
ATOM     17  C   UNL     1      34.725 -19.524 -21.294  0.00  0.00    +0.053 C 
ATOM     18  C   UNL     1      33.981 -20.462 -20.578  0.00  0.00    +0.006 C 
ATOM     19  C   UNL     1      36.069 -19.314 -20.981  0.00  0.00    +0.006 C 
BRANCH  17  22
ATOM     20  O   UNL     1      33.072 -19.171 -22.934  0.00  0.00    -0.270 OA
ATOM     21  N   UNL     1      34.682 -17.551 -22.721  0.00  0.00    -0.325 N 
ATOM     22  C   UNL     1      34.101 -18.764 -22.364  0.00  0.00    +0.243 C 
ATOM     23  H   UNL     1      34.287 -17.009 -23.443  0.00  0.00    +0.145 HD
ATOM     24  H   UNL     1      35.489 -17.234 -22.254  0.00  0.00    +0.145 HD
ENDBRANCH  17  22
ENDBRANCH   5  14
BRANCH   6  25
ATOM     25  O   UNL     1      32.732 -23.384 -16.012  0.00  0.00    -0.453 OA
BRANCH  25  26
ATOM     26  C   UNL     1      32.168 -23.438 -14.715  0.00  0.00    +0.208 C 
BRANCH  26  27
ATOM     27  C   UNL     1      30.648 -23.507 -14.850  0.00  0.00    +0.044 C 
ATOM     28  C   UNL     1      30.197 -22.938 -16.202  0.00  0.00    +0.004 C 
ATOM     29  C   UNL     1      30.154 -24.949 -14.672  0.00  0.00    +0.004 C 
ATOM     30  C   UNL     1      28.685 -23.045 -16.383  0.00  0.00    +0.000 C 
ATOM     31  C   UNL     1      28.642 -25.053 -14.857  0.00  0.00    +0.000 C 
ATOM     32  C   UNL     1      28.196 -24.477 -16.197  0.00  0.00    +0.000 C 
ENDBRANCH  26  27
ENDBRANCH  25  26
ENDBRANCH   6  25
TORSDOF 5
ENDMDL
MODEL 8
REMARK VINA RESULT:     -10.7      8.597     12.423
REMARK  Name = 447656
REMARK  5 active torsions:
REMARK  status: ('A' for Active; 'I' for Inactive)
REMARK    1  A    between atoms: N_5  and  C_14
REMARK    2  A    between atoms: C_6  and  O_25
REMARK    3  A    between atoms: C_17  and  C_22
REMARK    4  A    between atoms: O_25  and  C_26
REMARK    5  A    between atoms: C_26  and  C_27
REMARK                            x       y       z     vdW  Elec       q    Type
REMARK                         _______ _______ _______ _____ _____    ______ ____
ROOT
ATOM      1  N   UNL     1      33.447 -14.528 -24.259  0.00  0.00    -0.293 NA
ATOM      2  N   UNL     1      32.327 -11.576 -26.144  0.00  0.00    -0.266 NA
ATOM      3  N   UNL     1      33.113 -14.934 -26.641  0.00  0.00    -0.316 NA
ATOM      4  N   UNL     1      32.372 -12.977 -27.877  0.00  0.00    -0.296 N 
ATOM      5  N   UNL     1      33.824 -16.638 -25.203  0.00  0.00    -0.238 N 
ATOM      6  C   UNL     1      33.086 -13.233 -24.385  0.00  0.00    +0.288 C 
ATOM      7  C   UNL     1      32.735 -12.778 -25.639  0.00  0.00    +0.215 C 
ATOM      8  C   UNL     1      32.755 -13.630 -26.735  0.00  0.00    +0.196 C 
ATOM      9  C   UNL     1      33.439 -15.289 -25.379  0.00  0.00    +0.207 C 
ATOM     10  C   UNL     1      32.123 -11.745 -27.487  0.00  0.00    +0.164 C 
ATOM     11  H   UNL     1      32.203 -10.742 -25.635  0.00  0.00    +0.126 HD
ATOM     12  H   UNL     1      32.301 -13.346 -28.787  0.00  0.00    +0.150 HD
ATOM     13  H   UNL     1      33.809 -17.166 -26.034  0.00  0.00    +0.166 HD
ENDROOT
BRANCH   5  14
ATOM     14  C   UNL     1      34.224 -17.373 -24.073  0.00  0.00    +0.058 C 
ATOM     15  C   UNL     1      33.842 -18.710 -23.934  0.00  0.00    +0.015 C 
ATOM     16  C   UNL     1      35.005 -16.770 -23.085  0.00  0.00    +0.015 C 
ATOM     17  C   UNL     1      35.019 -18.834 -21.828  0.00  0.00    +0.053 C 
ATOM     18  C   UNL     1      34.239 -19.439 -22.813  0.00  0.00    +0.006 C 
ATOM     19  C   UNL     1      35.403 -17.500 -21.964  0.00  0.00    +0.006 C 
BRANCH  17  22
ATOM     20  O   UNL     1      36.560 -19.442 -20.154  0.00  0.00    -0.270 OA
ATOM     21  N   UNL     1      34.519 -20.488 -20.111  0.00  0.00    -0.325 N 
ATOM     22  C   UNL     1      35.434 -19.594 -20.661  0.00  0.00    +0.243 C 
ATOM     23  H   UNL     1      34.765 -21.021 -19.321  0.00  0.00    +0.145 HD
ATOM     24  H   UNL     1      33.627 -20.590 -20.515  0.00  0.00    +0.145 HD
ENDBRANCH  17  22
ENDBRANCH   5  14
BRANCH   6  25
ATOM     25  O   UNL     1      33.083 -12.434 -23.268  0.00  0.00    -0.453 OA
BRANCH  25  26
ATOM     26  C   UNL     1      32.310 -12.873 -22.166  0.00  0.00    +0.208 C 
BRANCH  26  27
ATOM     27  C   UNL     1      31.479 -11.696 -21.658  0.00  0.00    +0.044 C 
ATOM     28  C   UNL     1      31.586 -11.575 -20.132  0.00  0.00    +0.004 C 
ATOM     29  C   UNL     1      31.911 -10.392 -22.341  0.00  0.00    +0.004 C 
ATOM     30  C   UNL     1      30.806 -10.372 -19.605  0.00  0.00    +0.000 C 
ATOM     31  C   UNL     1      31.131  -9.192 -21.810  0.00  0.00    +0.000 C 
ATOM     32  C   UNL     1      31.232  -9.080 -20.293  0.00  0.00    +0.000 C 
ENDBRANCH  26  27
ENDBRANCH  25  26
ENDBRANCH   6  25
TORSDOF 5
ENDMDL
MODEL 9
REMARK VINA RESULT:     -10.5      2.480      5.169
REMARK  Name = 447656
REMARK  5 active torsions:
REMARK  status: ('A' for Active; 'I' for Inactive)
REMARK    1  A    between atoms: N_5  and  C_14
REMARK    2  A    between atoms: C_6  and  O_25
REMARK    3  A    between atoms: C_17  and  C_22
REMARK    4  A    between atoms: O_25  and  C_26
REMARK    5  A    between atoms: C_26  and  C_27
REMARK                            x       y       z     vdW  Elec       q    Type
REMARK                         _______ _______ _______ _____ _____    ______ ____
ROOT
ATOM      1  N   UNL     1      34.153 -22.729 -17.344  0.00  0.00    -0.293 NA
ATOM      2  N   UNL     1      32.331 -21.323 -20.212  0.00  0.00    -0.266 NA
ATOM      3  N   UNL     1      35.499 -21.268 -18.761  0.00  0.00    -0.316 NA
ATOM      4  N   UNL     1      34.285 -20.345 -20.654  0.00  0.00    -0.296 N 
ATOM      5  N   UNL     1      36.405 -22.298 -16.866  0.00  0.00    -0.238 N 
ATOM      6  C   UNL     1      33.064 -22.550 -18.121  0.00  0.00    +0.288 C 
ATOM      7  C   UNL     1      33.182 -21.731 -19.224  0.00  0.00    +0.215 C 
ATOM      8  C   UNL     1      34.387 -21.110 -19.521  0.00  0.00    +0.196 C 
ATOM      9  C   UNL     1      35.288 -22.085 -17.706  0.00  0.00    +0.207 C 
ATOM     10  C   UNL     1      33.036 -20.495 -21.044  0.00  0.00    +0.164 C 
ATOM     11  H   UNL     1      31.385 -21.578 -20.308  0.00  0.00    +0.126 HD
ATOM     12  H   UNL     1      34.987 -19.803 -21.081  0.00  0.00    +0.150 HD
ATOM     13  H   UNL     1      37.215 -21.818 -17.154  0.00  0.00    +0.166 HD
ENDROOT
BRANCH   5  14
ATOM     14  C   UNL     1      36.585 -23.062 -15.699  0.00  0.00    +0.058 C 
ATOM     15  C   UNL     1      35.630 -23.022 -14.680  0.00  0.00    +0.015 C 
ATOM     16  C   UNL     1      37.719 -23.865 -15.554  0.00  0.00    +0.015 C 
ATOM     17  C   UNL     1      36.941 -24.580 -13.381  0.00  0.00    +0.053 C 
ATOM     18  C   UNL     1      35.808 -23.779 -13.522  0.00  0.00    +0.006 C 
ATOM     19  C   UNL     1      37.897 -24.623 -14.396  0.00  0.00    +0.006 C 
BRANCH  17  22
ATOM     20  O   UNL     1      37.188 -24.837 -11.052  0.00  0.00    -0.270 OA
ATOM     21  N   UNL     1      37.213 -26.753 -12.313  0.00  0.00    -0.325 N 
ATOM     22  C   UNL     1      37.126 -25.370 -12.175  0.00  0.00    +0.243 C 
ATOM     23  H   UNL     1      37.340 -27.320 -11.518  0.00  0.00    +0.145 HD
ATOM     24  H   UNL     1      37.151 -27.163 -13.206  0.00  0.00    +0.145 HD
ENDBRANCH  17  22
ENDBRANCH   5  14
BRANCH   6  25
ATOM     25  O   UNL     1      31.896 -23.189 -17.782  0.00  0.00    -0.453 OA
BRANCH  25  26
ATOM     26  C   UNL     1      30.890 -22.406 -17.167  0.00  0.00    +0.208 C 
BRANCH  26  27
ATOM     27  C   UNL     1      30.536 -23.041 -15.823  0.00  0.00    +0.044 C 
ATOM     28  C   UNL     1      30.078 -24.493 -16.014  0.00  0.00    +0.004 C 
ATOM     29  C   UNL     1      31.726 -22.966 -14.858  0.00  0.00    +0.004 C 
ATOM     30  C   UNL     1      29.769 -25.167 -14.679  0.00  0.00    +0.000 C 
ATOM     31  C   UNL     1      31.414 -23.643 -13.525  0.00  0.00    +0.000 C 
ATOM     32  C   UNL     1      30.950 -25.083 -13.719  0.00  0.00    +0.000 C 
ENDBRANCH  26  27
ENDBRANCH  25  26
ENDBRANCH   6  25
TORSDOF 5
ENDMDL
