MODEL 1
REMARK VINA RESULT:     -12.1      0.000      0.000
REMARK  Name = 6323454
REMARK  1 active torsions:
REMARK  status: ('A' for Active; 'I' for Inactive)
REMARK    1  A    between atoms: C_18  and  O_22
REMARK                            x       y       z     vdW  Elec       q    Type
REMARK                         _______ _______ _______ _____ _____    ______ ____
ROOT
ATOM      1  O   UNL     1      34.004 -24.667 -13.470  0.00  0.00    -0.350 OA
ATOM      2  O   UNL     1      37.101 -22.989 -13.652  0.00  0.00    -0.445 OA
ATOM      3  O   UNL     1      37.475 -22.481 -16.371  0.00  0.00    -0.287 OA
ATOM      4  O   UNL     1      38.012 -22.962 -11.534  0.00  0.00    -0.250 OA
ATOM      5  O   UNL     1      32.306 -23.483 -17.206  0.00  0.00    -0.287 OA
ATOM      6  C   UNL     1      35.013 -23.741 -13.127  0.00  0.00    +0.171 C 
ATOM      7  C   UNL     1      36.048 -23.756 -14.223  0.00  0.00    +0.221 C 
ATOM      8  C   UNL     1      35.419 -23.260 -15.489  0.00  0.00    +0.060 C 
ATOM      9  C   UNL     1      33.248 -24.208 -14.623  0.00  0.00    +0.141 C 
ATOM     10  C   UNL     1      34.106 -23.499 -15.679  0.00  0.00    +0.046 C 
ATOM     11  C   UNL     1      35.882 -24.073 -11.939  0.00  0.00    +0.143 C 
ATOM     12  C   UNL     1      37.121 -23.286 -12.304  0.00  0.00    +0.320 C 
ATOM     13  C   UNL     1      36.265 -22.607 -16.517  0.00  0.00    +0.195 C 
ATOM     14  C   UNL     1      33.456 -23.133 -16.969  0.00  0.00    +0.197 C 
ATOM     15  C   UNL     1      32.099 -23.337 -14.104  0.00  0.00    +0.037 C 
ATOM     16  C   UNL     1      35.598 -22.113 -17.735  0.00  0.00    +0.045 C 
ATOM     17  C   UNL     1      34.244 -22.367 -17.951  0.00  0.00    +0.075 C 
ATOM     18  C   UNL     1      33.627 -21.900 -19.118  0.00  0.00    +0.137 C 
ATOM     19  C   UNL     1      36.337 -21.395 -18.682  0.00  0.00    +0.003 C 
ATOM     20  C   UNL     1      34.364 -21.181 -20.060  0.00  0.00    +0.037 C 
ATOM     21  C   UNL     1      35.717 -20.930 -19.843  0.00  0.00    +0.003 C 
ENDROOT
BRANCH  18  22
ATOM     22  O   UNL     1      32.307 -22.106 -19.389  0.00  0.00    -0.505 OA
ATOM     23  H   UNL     1      31.872 -22.863 -19.048  0.00  0.00    +0.292 HD
ENDBRANCH  18  22
TORSDOF 1
ENDMDL
MODEL 2
REMARK VINA RESULT:     -11.2      1.989      5.725
REMARK  Name = 6323454
REMARK  1 active torsions:
REMARK  status: ('A' for Active; 'I' for Inactive)
REMARK    1  A    between atoms: C_18  and  O_22
REMARK                            x       y       z     vdW  Elec       q    Type
REMARK                         _______ _______ _______ _____ _____    ______ ____
ROOT
ATOM      1  O   UNL     1      31.679 -22.975 -15.021  0.00  0.00    -0.350 OA
ATOM      2  O   UNL     1      33.927 -22.844 -17.736  0.00  0.00    -0.445 OA
ATOM      3  O   UNL     1      36.454 -23.099 -16.579  0.00  0.00    -0.287 OA
ATOM      4  O   UNL     1      32.704 -22.398 -19.639  0.00  0.00    -0.250 OA
ATOM      5  O   UNL     1      34.159 -24.868 -12.104  0.00  0.00    -0.287 OA
ATOM      6  C   UNL     1      32.202 -23.258 -16.301  0.00  0.00    +0.171 C 
ATOM      7  C   UNL     1      33.611 -22.722 -16.355  0.00  0.00    +0.221 C 
ATOM      8  C   UNL     1      34.452 -23.471 -15.368  0.00  0.00    +0.060 C 
ATOM      9  C   UNL     1      32.353 -23.758 -13.999  0.00  0.00    +0.141 C 
ATOM     10  C   UNL     1      33.857 -23.934 -14.251  0.00  0.00    +0.046 C 
ATOM     11  C   UNL     1      31.597 -22.527 -17.473  0.00  0.00    +0.143 C 
ATOM     12  C   UNL     1      32.765 -22.575 -18.433  0.00  0.00    +0.320 C 
ATOM     13  C   UNL     1      35.910 -23.605 -15.606  0.00  0.00    +0.195 C 
ATOM     14  C   UNL     1      34.667 -24.584 -13.182  0.00  0.00    +0.197 C 
ATOM     15  C   UNL     1      31.608 -25.090 -13.873  0.00  0.00    +0.037 C 
ATOM     16  C   UNL     1      36.692 -24.374 -14.621  0.00  0.00    +0.045 C 
ATOM     17  C   UNL     1      36.093 -24.844 -13.454  0.00  0.00    +0.075 C 
ATOM     18  C   UNL     1      36.852 -25.564 -12.522  0.00  0.00    +0.137 C 
ATOM     19  C   UNL     1      38.050 -24.618 -14.859  0.00  0.00    +0.003 C 
ATOM     20  C   UNL     1      38.204 -25.810 -12.763  0.00  0.00    +0.037 C 
ATOM     21  C   UNL     1      38.802 -25.337 -13.929  0.00  0.00    +0.003 C 
ENDROOT
BRANCH  18  22
ATOM     22  O   UNL     1      36.327 -26.059 -11.365  0.00  0.00    -0.505 OA
ATOM     23  H   UNL     1      35.443 -26.368 -11.347  0.00  0.00    +0.292 HD
ENDBRANCH  18  22
TORSDOF 1
ENDMDL
MODEL 3
REMARK VINA RESULT:     -11.0      8.236     11.811
REMARK  Name = 6323454
REMARK  1 active torsions:
REMARK  status: ('A' for Active; 'I' for Inactive)
REMARK    1  A    between atoms: C_18  and  O_22
REMARK                            x       y       z     vdW  Elec       q    Type
REMARK                         _______ _______ _______ _____ _____    ______ ____
ROOT
ATOM      1  O   UNL     1      34.082 -18.907 -25.296  0.00  0.00    -0.350 OA
ATOM      2  O   UNL     1      34.512 -17.198 -22.240  0.00  0.00    -0.445 OA
ATOM      3  O   UNL     1      34.733 -14.509 -22.955  0.00  0.00    -0.287 OA
ATOM      4  O   UNL     1      34.681 -18.778 -20.570  0.00  0.00    -0.250 OA
ATOM      5  O   UNL     1      32.737 -15.684 -27.757  0.00  0.00    -0.287 OA
ATOM      6  C   UNL     1      33.853 -18.561 -23.947  0.00  0.00    +0.171 C 
ATOM      7  C   UNL     1      34.622 -17.297 -23.655  0.00  0.00    +0.221 C 
ATOM      8  C   UNL     1      34.060 -16.185 -24.487  0.00  0.00    +0.060 C 
ATOM      9  C   UNL     1      33.460 -17.946 -26.191  0.00  0.00    +0.141 C 
ATOM     10  C   UNL     1      33.537 -16.497 -25.689  0.00  0.00    +0.046 C 
ATOM     11  C   UNL     1      34.432 -19.470 -22.892  0.00  0.00    +0.143 C 
ATOM     12  C   UNL     1      34.556 -18.488 -21.749  0.00  0.00    +0.320 C 
ATOM     13  C   UNL     1      34.172 -14.787 -24.007  0.00  0.00    +0.195 C 
ATOM     14  C   UNL     1      33.071 -15.420 -26.608  0.00  0.00    +0.197 C 
ATOM     15  C   UNL     1      32.023 -18.415 -26.444  0.00  0.00    +0.037 C 
ATOM     16  C   UNL     1      33.581 -13.730 -24.847  0.00  0.00    +0.045 C 
ATOM     17  C   UNL     1      33.051 -14.036 -26.100  0.00  0.00    +0.075 C 
ATOM     18  C   UNL     1      32.502 -13.019 -26.891  0.00  0.00    +0.137 C 
ATOM     19  C   UNL     1      33.566 -12.409 -24.384  0.00  0.00    +0.003 C 
ATOM     20  C   UNL     1      32.486 -11.703 -26.426  0.00  0.00    +0.037 C 
ATOM     21  C   UNL     1      33.017 -11.399 -25.175  0.00  0.00    +0.003 C 
ENDROOT
BRANCH  18  22
ATOM     22  O   UNL     1      31.961 -13.250 -28.121  0.00  0.00    -0.505 OA
ATOM     23  H   UNL     1      32.358 -13.874 -28.697  0.00  0.00    +0.292 HD
ENDBRANCH  18  22
TORSDOF 1
ENDMDL
MODEL 4
REMARK VINA RESULT:     -10.4      1.855      6.115
REMARK  Name = 6323454
REMARK  1 active torsions:
REMARK  status: ('A' for Active; 'I' for Inactive)
REMARK    1  A    between atoms: C_18  and  O_22
REMARK                            x       y       z     vdW  Elec       q    Type
REMARK                         _______ _______ _______ _____ _____    ______ ____
ROOT
ATOM      1  O   UNL     1      36.689 -22.446 -17.972  0.00  0.00    -0.350 OA
ATOM      2  O   UNL     1      33.731 -21.242 -19.471  0.00  0.00    -0.445 OA
ATOM      3  O   UNL     1      31.678 -22.689 -18.254  0.00  0.00    -0.287 OA
ATOM      4  O   UNL     1      34.338 -19.769 -21.137  0.00  0.00    -0.250 OA
ATOM      5  O   UNL     1      35.066 -24.139 -14.401  0.00  0.00    -0.287 OA
ATOM      6  C   UNL     1      35.767 -21.503 -18.475  0.00  0.00    +0.171 C 
ATOM      7  C   UNL     1      34.473 -22.223 -18.755  0.00  0.00    +0.221 C 
ATOM      8  C   UNL     1      33.910 -22.728 -17.462  0.00  0.00    +0.060 C 
ATOM      9  C   UNL     1      36.293 -22.906 -16.651  0.00  0.00    +0.141 C 
ATOM     10  C   UNL     1      34.775 -23.070 -16.487  0.00  0.00    +0.046 C 
ATOM     11  C   UNL     1      36.046 -20.922 -19.839  0.00  0.00    +0.143 C 
ATOM     12  C   UNL     1      34.639 -20.552 -20.250  0.00  0.00    +0.320 C 
ATOM     13  C   UNL     1      32.446 -22.915 -17.327  0.00  0.00    +0.195 C 
ATOM     14  C   UNL     1      34.278 -23.688 -15.225  0.00  0.00    +0.197 C 
ATOM     15  C   UNL     1      36.904 -21.946 -15.626  0.00  0.00    +0.037 C 
ATOM     16  C   UNL     1      31.937 -23.390 -16.027  0.00  0.00    +0.045 C 
ATOM     17  C   UNL     1      32.821 -23.762 -15.015  0.00  0.00    +0.075 C 
ATOM     18  C   UNL     1      32.322 -24.221 -13.790  0.00  0.00    +0.137 C 
ATOM     19  C   UNL     1      30.555 -23.478 -15.818  0.00  0.00    +0.003 C 
ATOM     20  C   UNL     1      30.945 -24.305 -13.582  0.00  0.00    +0.037 C 
ATOM     21  C   UNL     1      30.063 -23.934 -14.595  0.00  0.00    +0.003 C 
ENDROOT
BRANCH  18  22
ATOM     22  O   UNL     1      33.130 -24.594 -12.756  0.00  0.00    -0.505 OA
ATOM     23  H   UNL     1      33.472 -25.466 -12.721  0.00  0.00    +0.292 HD
ENDBRANCH  18  22
TORSDOF 1
ENDMDL
MODEL 5
REMARK VINA RESULT:     -10.2      2.076      5.168
REMARK  Name = 6323454
REMARK  1 active torsions:
REMARK  status: ('A' for Active; 'I' for Inactive)
REMARK    1  A    between atoms: C_18  and  O_22
REMARK                            x       y       z     vdW  Elec       q    Type
REMARK                         _______ _______ _______ _____ _____    ______ ____
ROOT
ATOM      1  O   UNL     1      36.298 -23.906 -14.958  0.00  0.00    -0.350 OA
ATOM      2  O   UNL     1      35.033 -21.968 -17.620  0.00  0.00    -0.445 OA
ATOM      3  O   UNL     1      32.391 -22.815 -17.922  0.00  0.00    -0.287 OA
ATOM      4  O   UNL     1      36.773 -20.714 -18.465  0.00  0.00    -0.250 OA
ATOM      5  O   UNL     1      32.635 -25.095 -13.109  0.00  0.00    -0.287 OA
ATOM      6  C   UNL     1      36.050 -22.754 -15.735  0.00  0.00    +0.171 C 
ATOM      7  C   UNL     1      35.010 -23.107 -16.768  0.00  0.00    +0.221 C 
ATOM      8  C   UNL     1      33.727 -23.441 -16.069  0.00  0.00    +0.060 C 
ATOM      9  C   UNL     1      35.144 -24.239 -14.140  0.00  0.00    +0.141 C 
ATOM     10  C   UNL     1      33.801 -23.996 -14.843  0.00  0.00    +0.046 C 
ATOM     11  C   UNL     1      37.161 -22.274 -16.634  0.00  0.00    +0.143 C 
ATOM     12  C   UNL     1      36.346 -21.546 -17.680  0.00  0.00    +0.320 C 
ATOM     13  C   UNL     1      32.438 -23.233 -16.771  0.00  0.00    +0.195 C 
ATOM     14  C   UNL     1      32.563 -24.455 -14.151  0.00  0.00    +0.197 C 
ATOM     15  C   UNL     1      35.276 -23.471 -12.821  0.00  0.00    +0.037 C 
ATOM     16  C   UNL     1      31.202 -23.551 -16.034  0.00  0.00    +0.045 C 
ATOM     17  C   UNL     1      31.264 -24.139 -14.772  0.00  0.00    +0.075 C 
ATOM     18  C   UNL     1      30.080 -24.446 -14.088  0.00  0.00    +0.137 C 
ATOM     19  C   UNL     1      29.961 -23.269 -16.616  0.00  0.00    +0.003 C 
ATOM     20  C   UNL     1      28.844 -24.161 -14.669  0.00  0.00    +0.037 C 
ATOM     21  C   UNL     1      28.784 -23.574 -15.931  0.00  0.00    +0.003 C 
ENDROOT
BRANCH  18  22
ATOM     22  O   UNL     1      30.069 -25.015 -12.849  0.00  0.00    -0.505 OA
ATOM     23  H   UNL     1      30.244 -25.930 -12.753  0.00  0.00    +0.292 HD
ENDBRANCH  18  22
TORSDOF 1
ENDMDL
MODEL 6
REMARK VINA RESULT:     -10.2      9.260     13.057
REMARK  Name = 6323454
REMARK  1 active torsions:
REMARK  status: ('A' for Active; 'I' for Inactive)
REMARK    1  A    between atoms: C_18  and  O_22
REMARK                            x       y       z     vdW  Elec       q    Type
REMARK                         _______ _______ _______ _____ _____    ______ ____
ROOT
ATOM      1  O   UNL     1      32.226 -12.838 -26.633  0.00  0.00    -0.350 OA
ATOM      2  O   UNL     1      34.065 -11.877 -23.780  0.00  0.00    -0.445 OA
ATOM      3  O   UNL     1      34.293 -14.209 -22.263  0.00  0.00    -0.287 OA
ATOM      4  O   UNL     1      34.381  -9.596 -23.884  0.00  0.00    -0.250 OA
ATOM      5  O   UNL     1      32.883 -17.058 -26.543  0.00  0.00    -0.287 OA
ATOM      6  C   UNL     1      33.246 -12.214 -25.882  0.00  0.00    +0.171 C 
ATOM      7  C   UNL     1      33.175 -12.744 -24.473  0.00  0.00    +0.221 C 
ATOM      8  C   UNL     1      33.488 -14.209 -24.491  0.00  0.00    +0.060 C 
ATOM      9  C   UNL     1      32.507 -14.252 -26.815  0.00  0.00    +0.141 C 
ATOM     10  C   UNL     1      33.148 -14.915 -25.587  0.00  0.00    +0.046 C 
ATOM     11  C   UNL     1      33.102 -10.736 -25.615  0.00  0.00    +0.143 C 
ATOM     12  C   UNL     1      33.919 -10.626 -24.348  0.00  0.00    +0.320 C 
ATOM     13  C   UNL     1      34.075 -14.845 -23.287  0.00  0.00    +0.195 C 
ATOM     14  C   UNL     1      33.329 -16.394 -25.614  0.00  0.00    +0.197 C 
ATOM     15  C   UNL     1      33.357 -14.394 -28.082  0.00  0.00    +0.037 C 
ATOM     16  C   UNL     1      34.390 -16.283 -23.361  0.00  0.00    +0.045 C 
ATOM     17  C   UNL     1      34.030 -17.028 -24.482  0.00  0.00    +0.075 C 
ATOM     18  C   UNL     1      34.326 -18.396 -24.534  0.00  0.00    +0.137 C 
ATOM     19  C   UNL     1      35.044 -16.901 -22.289  0.00  0.00    +0.003 C 
ATOM     20  C   UNL     1      34.981 -19.010 -23.465  0.00  0.00    +0.037 C 
ATOM     21  C   UNL     1      35.339 -18.264 -22.345  0.00  0.00    +0.003 C 
ENDROOT
BRANCH  18  22
ATOM     22  O   UNL     1      34.009 -19.182 -25.602  0.00  0.00    -0.505 OA
ATOM     23  H   UNL     1      34.293 -20.074 -25.627  0.00  0.00    +0.292 HD
ENDBRANCH  18  22
TORSDOF 1
ENDMDL
MODEL 7
REMARK VINA RESULT:     -10.1      1.783      4.480
REMARK  Name = 6323454
REMARK  1 active torsions:
REMARK  status: ('A' for Active; 'I' for Inactive)
REMARK    1  A    between atoms: C_18  and  O_22
REMARK                            x       y       z     vdW  Elec       q    Type
REMARK                         _______ _______ _______ _____ _____    ______ ____
ROOT
ATOM      1  O   UNL     1      32.824 -24.149 -13.238  0.00  0.00    -0.350 OA
ATOM      2  O   UNL     1      30.295 -24.321 -15.691  0.00  0.00    -0.445 OA
ATOM      3  O   UNL     1      31.137 -22.580 -17.703  0.00  0.00    -0.287 OA
ATOM      4  O   UNL     1      28.602 -25.650 -14.863  0.00  0.00    -0.250 OA
ATOM      5  O   UNL     1      36.036 -22.618 -15.601  0.00  0.00    -0.287 OA
ATOM      6  C   UNL     1      31.878 -24.741 -14.103  0.00  0.00    +0.171 C 
ATOM      7  C   UNL     1      31.393 -23.678 -15.056  0.00  0.00    +0.221 C 
ATOM      8  C   UNL     1      32.540 -23.232 -15.910  0.00  0.00    +0.060 C 
ATOM      9  C   UNL     1      34.035 -23.794 -13.957  0.00  0.00    +0.141 C 
ATOM     10  C   UNL     1      33.777 -23.268 -15.376  0.00  0.00    +0.046 C 
ATOM     11  C   UNL     1      30.565 -25.174 -13.501  0.00  0.00    +0.143 C 
ATOM     12  C   UNL     1      29.686 -25.105 -14.730  0.00  0.00    +0.320 C 
ATOM     13  C   UNL     1      32.275 -22.694 -17.265  0.00  0.00    +0.195 C 
ATOM     14  C   UNL     1      34.939 -22.728 -16.137  0.00  0.00    +0.197 C 
ATOM     15  C   UNL     1      34.960 -25.015 -13.932  0.00  0.00    +0.037 C 
ATOM     16  C   UNL     1      33.437 -22.292 -18.078  0.00  0.00    +0.045 C 
ATOM     17  C   UNL     1      34.720 -22.309 -17.533  0.00  0.00    +0.075 C 
ATOM     18  C   UNL     1      35.814 -21.915 -18.315  0.00  0.00    +0.137 C 
ATOM     19  C   UNL     1      33.243 -21.880 -19.402  0.00  0.00    +0.003 C 
ATOM     20  C   UNL     1      35.619 -21.507 -19.635  0.00  0.00    +0.037 C 
ATOM     21  C   UNL     1      34.336 -21.490 -20.177  0.00  0.00    +0.003 C 
ENDROOT
BRANCH  18  22
ATOM     22  O   UNL     1      37.094 -21.914 -17.847  0.00  0.00    -0.505 OA
ATOM     23  H   UNL     1      37.634 -21.157 -17.962  0.00  0.00    +0.292 HD
ENDBRANCH  18  22
TORSDOF 1
ENDMDL
MODEL 8
REMARK VINA RESULT:      -9.8      7.865     12.491
REMARK  Name = 6323454
REMARK  1 active torsions:
REMARK  status: ('A' for Active; 'I' for Inactive)
REMARK    1  A    between atoms: C_18  and  O_22
REMARK                            x       y       z     vdW  Elec       q    Type
REMARK                         _______ _______ _______ _____ _____    ______ ____
ROOT
ATOM      1  O   UNL     1      33.388 -12.653 -24.699  0.00  0.00    -0.350 OA
ATOM      2  O   UNL     1      32.401 -15.252 -26.871  0.00  0.00    -0.445 OA
ATOM      3  O   UNL     1      33.826 -17.487 -25.997  0.00  0.00    -0.287 OA
ATOM      4  O   UNL     1      31.034 -14.337 -28.486  0.00  0.00    -0.250 OA
ATOM      5  O   UNL     1      34.870 -14.958 -21.422  0.00  0.00    -0.287 OA
ATOM      6  C   UNL     1      32.517 -13.466 -25.456  0.00  0.00    +0.171 C 
ATOM      7  C   UNL     1      33.300 -14.660 -25.941  0.00  0.00    +0.221 C 
ATOM      8  C   UNL     1      33.729 -15.471 -24.758  0.00  0.00    +0.060 C 
ATOM      9  C   UNL     1      33.764 -13.310 -23.458  0.00  0.00    +0.141 C 
ATOM     10  C   UNL     1      33.968 -14.824 -23.600  0.00  0.00    +0.046 C 
ATOM     11  C   UNL     1      32.029 -12.918 -26.774  0.00  0.00    +0.143 C 
ATOM     12  C   UNL     1      31.739 -14.214 -27.497  0.00  0.00    +0.320 C 
ATOM     13  C   UNL     1      33.956 -16.928 -24.916  0.00  0.00    +0.195 C 
ATOM     14  C   UNL     1      34.509 -15.563 -22.424  0.00  0.00    +0.197 C 
ATOM     15  C   UNL     1      32.710 -12.945 -22.407  0.00  0.00    +0.037 C 
ATOM     16  C   UNL     1      34.352 -17.689 -23.717  0.00  0.00    +0.045 C 
ATOM     17  C   UNL     1      34.618 -17.031 -22.517  0.00  0.00    +0.075 C 
ATOM     18  C   UNL     1      35.003 -17.767 -21.390  0.00  0.00    +0.137 C 
ATOM     19  C   UNL     1      34.473 -19.082 -23.794  0.00  0.00    +0.003 C 
ATOM     20  C   UNL     1      35.119 -19.155 -21.467  0.00  0.00    +0.037 C 
ATOM     21  C   UNL     1      34.855 -19.812 -22.667  0.00  0.00    +0.003 C 
ENDROOT
BRANCH  18  22
ATOM     22  O   UNL     1      35.270 -17.188 -20.185  0.00  0.00    -0.505 OA
ATOM     23  H   UNL     1      35.739 -17.666 -19.529  0.00  0.00    +0.292 HD
ENDBRANCH  18  22
TORSDOF 1
ENDMDL
MODEL 9
REMARK VINA RESULT:      -9.6      2.141      4.817
REMARK  Name = 6323454
REMARK  1 active torsions:
REMARK  status: ('A' for Active; 'I' for Inactive)
REMARK    1  A    between atoms: C_18  and  O_22
REMARK                            x       y       z     vdW  Elec       q    Type
REMARK                         _______ _______ _______ _____ _____    ______ ____
ROOT
ATOM      1  O   UNL     1      35.416 -22.342 -16.726  0.00  0.00    -0.350 OA
ATOM      2  O   UNL     1      35.400 -24.653 -14.061  0.00  0.00    -0.445 OA
ATOM      3  O   UNL     1      32.749 -24.715 -13.191  0.00  0.00    -0.287 OA
ATOM      4  O   UNL     1      37.580 -25.296 -13.675  0.00  0.00    -0.250 OA
ATOM      5  O   UNL     1      31.266 -22.358 -17.737  0.00  0.00    -0.287 OA
ATOM      6  C   UNL     1      35.707 -23.532 -16.024  0.00  0.00    +0.171 C 
ATOM      7  C   UNL     1      34.847 -23.561 -14.786  0.00  0.00    +0.221 C 
ATOM      8  C   UNL     1      33.409 -23.643 -15.198  0.00  0.00    +0.060 C 
ATOM      9  C   UNL     1      34.073 -22.380 -17.278  0.00  0.00    +0.141 C 
ATOM     10  C   UNL     1      33.049 -23.064 -16.360  0.00  0.00    +0.046 C 
ATOM     11  C   UNL     1      37.074 -23.649 -15.397  0.00  0.00    +0.143 C 
ATOM     12  C   UNL     1      36.762 -24.628 -14.287  0.00  0.00    +0.320 C 
ATOM     13  C   UNL     1      32.424 -24.275 -14.287  0.00  0.00    +0.195 C 
ATOM     14  C   UNL     1      31.615 -23.013 -16.762  0.00  0.00    +0.197 C 
ATOM     15  C   UNL     1      34.161 -23.030 -18.662  0.00  0.00    +0.037 C 
ATOM     16  C   UNL     1      31.026 -24.356 -14.747  0.00  0.00    +0.045 C 
ATOM     17  C   UNL     1      30.638 -23.747 -15.939  0.00  0.00    +0.075 C 
ATOM     18  C   UNL     1      29.303 -23.824 -16.357  0.00  0.00    +0.137 C 
ATOM     19  C   UNL     1      30.083 -25.040 -13.969  0.00  0.00    +0.003 C 
ATOM     20  C   UNL     1      28.365 -24.508 -15.583  0.00  0.00    +0.037 C 
ATOM     21  C   UNL     1      28.755 -25.115 -14.391  0.00  0.00    +0.003 C 
ENDROOT
BRANCH  18  22
ATOM     22  O   UNL     1      28.858 -23.258 -17.515  0.00  0.00    -0.505 OA
ATOM     23  H   UNL     1      29.406 -23.254 -18.275  0.00  0.00    +0.292 HD
ENDBRANCH  18  22
TORSDOF 1
ENDMDL
