MODEL 1
REMARK VINA RESULT:     -11.9      0.000      0.000
REMARK  Name = 42628060
REMARK  6 active torsions:
REMARK  status: ('A' for Active; 'I' for Inactive)
REMARK    1  A    between atoms: N_2  and  C_6
REMARK    2  A    between atoms: C_3  and  C_19
REMARK    3  A    between atoms: C_9  and  N_13
REMARK    4  A    between atoms: C_19  and  N_20
REMARK    5  A    between atoms: C_21  and  N_27
REMARK    6  A    between atoms: C_28  and  C_32
REMARK                            x       y       z     vdW  Elec       q    Type
REMARK                         _______ _______ _______ _____ _____    ______ ____
ROOT
ATOM      1  O   UNL     1      36.414 -20.085 -19.879  0.00  0.00    -0.277 OA
ATOM      2  N   UNL     1      34.622 -21.462 -19.239  0.00  0.00    -0.284 N 
ATOM      3  C   UNL     1      35.291 -20.549 -20.052  0.00  0.00    +0.205 C 
ATOM      4  H   UNL     1      33.719 -21.723 -19.530  0.00  0.00    +0.155 HD
ENDROOT
BRANCH   2   6
ATOM      5  F   UNL     1      32.955 -23.014 -17.635  0.00  0.00    -0.203 F 
ATOM      6  C   UNL     1      35.091 -22.059 -18.046  0.00  0.00    +0.078 C 
ATOM      7  C   UNL     1      34.230 -22.830 -17.264  0.00  0.00    +0.155 C 
ATOM      8  C   UNL     1      36.415 -21.874 -17.649  0.00  0.00    +0.018 C 
ATOM      9  C   UNL     1      36.019 -23.231 -15.690  0.00  0.00    +0.061 C 
ATOM     10  C   UNL     1      34.695 -23.417 -16.086  0.00  0.00    +0.046 C 
ATOM     11  C   UNL     1      36.880 -22.460 -16.471  0.00  0.00    +0.017 C 
BRANCH   9  13
ATOM     12  O   UNL     1      36.845 -25.989 -15.408  0.00  0.00    -0.269 OA
ATOM     13  N   UNL     1      36.502 -23.840 -14.466  0.00  0.00    -0.233 N 
ATOM     14  C   UNL     1      36.839 -25.218 -14.447  0.00  0.00    +0.257 C 
ATOM     15  C   UNL     1      36.658 -23.075 -13.308  0.00  0.00    +0.072 C 
ATOM     16  C   UNL     1      37.285 -25.777 -13.133  0.00  0.00    +0.059 C 
ATOM     17  C   UNL     1      37.090 -23.592 -12.153  0.00  0.00    +0.017 C 
ATOM     18  C   UNL     1      37.406 -24.986 -12.064  0.00  0.00    +0.006 C 
ENDBRANCH   9  13
ENDBRANCH   2   6
BRANCH   3  19
ATOM     19  C   UNL     1      34.421 -20.165 -21.237  0.00  0.00    +0.010 C 
BRANCH  19  20
ATOM     20  N   UNL     1      35.036 -19.054 -21.949  0.00  0.00    +0.394 N 
ATOM     21  C   UNL     1      35.061 -16.800 -22.541  0.00  0.00    +0.049 C 
ATOM     22  C   UNL     1      35.083 -17.643 -23.818  0.00  0.00    -0.005 C 
ATOM     23  C   UNL     1      34.584 -17.754 -21.450  0.00  0.00    -0.057 C 
ATOM     24  C   UNL     1      34.698 -19.048 -23.372  0.00  0.00    -0.075 C 
ATOM     25  H   UNL     1      36.036 -19.188 -21.800  0.00  0.00    -0.079 HD
BRANCH  21  27
ATOM     26  O   UNL     1      34.839 -14.656 -20.644  0.00  0.00    -0.270 OA
ATOM     27  N   UNL     1      34.223 -15.638 -22.653  0.00  0.00    -0.304 N 
ATOM     28  C   UNL     1      34.179 -14.646 -21.681  0.00  0.00    +0.252 C 
ATOM     29  H   UNL     1      33.655 -15.541 -23.452  0.00  0.00    +0.150 HD
BRANCH  28  32
ATOM     30 CL   UNL     1      30.228 -10.822 -21.078  0.00  0.00    -0.075 Cl
ATOM     31  S   UNL     1      32.147 -13.056 -20.701  0.00  0.00    -0.071 S 
ATOM     32  C   UNL     1      33.241 -13.522 -21.933  0.00  0.00    +0.084 C 
ATOM     33  C   UNL     1      33.104 -12.749 -23.066  0.00  0.00    +0.012 C 
ATOM     34  C   UNL     1      32.088 -11.762 -22.919  0.00  0.00    +0.019 C 
ATOM     35  C   UNL     1      31.487 -11.817 -21.681  0.00  0.00    +0.087 C 
ENDBRANCH  28  32
ENDBRANCH  21  27
ENDBRANCH  19  20
ENDBRANCH   3  19
TORSDOF 6
ENDMDL
MODEL 2
REMARK VINA RESULT:     -11.7      5.029      8.404
REMARK  Name = 42628060
REMARK  6 active torsions:
REMARK  status: ('A' for Active; 'I' for Inactive)
REMARK    1  A    between atoms: N_2  and  C_6
REMARK    2  A    between atoms: C_3  and  C_19
REMARK    3  A    between atoms: C_9  and  N_13
REMARK    4  A    between atoms: C_19  and  N_20
REMARK    5  A    between atoms: C_21  and  N_27
REMARK    6  A    between atoms: C_28  and  C_32
REMARK                            x       y       z     vdW  Elec       q    Type
REMARK                         _______ _______ _______ _____ _____    ______ ____
ROOT
ATOM      1  O   UNL     1      32.380 -13.330 -23.172  0.00  0.00    -0.277 OA
ATOM      2  N   UNL     1      34.333 -14.318 -24.024  0.00  0.00    -0.284 N 
ATOM      3  C   UNL     1      33.351 -13.334 -23.922  0.00  0.00    +0.205 C 
ATOM      4  H   UNL     1      35.042 -14.157 -24.687  0.00  0.00    +0.155 HD
ENDROOT
BRANCH   2   6
ATOM      5  F   UNL     1      34.703 -14.305 -21.262  0.00  0.00    -0.203 F 
ATOM      6  C   UNL     1      34.429 -15.520 -23.285  0.00  0.00    +0.078 C 
ATOM      7  C   UNL     1      34.614 -15.479 -21.903  0.00  0.00    +0.155 C 
ATOM      8  C   UNL     1      34.339 -16.748 -23.940  0.00  0.00    +0.018 C 
ATOM      9  C   UNL     1      34.620 -17.894 -21.832  0.00  0.00    +0.061 C 
ATOM     10  C   UNL     1      34.710 -16.667 -21.176  0.00  0.00    +0.046 C 
ATOM     11  C   UNL     1      34.434 -17.936 -23.214  0.00  0.00    +0.017 C 
BRANCH   9  13
ATOM     12  O   UNL     1      37.084 -19.093 -20.906  0.00  0.00    -0.269 OA
ATOM     13  N   UNL     1      34.720 -19.129 -21.078  0.00  0.00    -0.233 N 
ATOM     14  C   UNL     1      35.995 -19.634 -20.716  0.00  0.00    +0.257 C 
ATOM     15  C   UNL     1      33.568 -19.815 -20.685  0.00  0.00    +0.072 C 
ATOM     16  C   UNL     1      36.010 -20.937 -19.978  0.00  0.00    +0.059 C 
ATOM     17  C   UNL     1      33.608 -20.960 -19.998  0.00  0.00    +0.017 C 
ATOM     18  C   UNL     1      34.868 -21.539 -19.641  0.00  0.00    +0.006 C 
ENDBRANCH   9  13
ENDBRANCH   2   6
BRANCH   3  19
ATOM     19  C   UNL     1      33.632 -12.208 -24.903  0.00  0.00    +0.010 C 
BRANCH  19  20
ATOM     20  N   UNL     1      34.178 -11.066 -24.186  0.00  0.00    +0.394 N 
ATOM     21  C   UNL     1      33.890  -8.970 -23.207  0.00  0.00    +0.049 C 
ATOM     22  C   UNL     1      35.027  -8.883 -24.229  0.00  0.00    -0.005 C 
ATOM     23  C   UNL     1      33.134 -10.244 -23.570  0.00  0.00    -0.057 C 
ATOM     24  C   UNL     1      34.906 -10.151 -25.065  0.00  0.00    -0.075 C 
ATOM     25  H   UNL     1      34.790 -11.483 -23.485  0.00  0.00    -0.079 HD
BRANCH  21  27
ATOM     26  O   UNL     1      32.998  -7.481 -20.920  0.00  0.00    -0.270 OA
ATOM     27  N   UNL     1      33.041  -7.811 -23.216  0.00  0.00    -0.304 N 
ATOM     28  C   UNL     1      32.658  -7.151 -22.054  0.00  0.00    +0.252 C 
ATOM     29  H   UNL     1      32.717  -7.470 -24.081  0.00  0.00    +0.150 HD
BRANCH  28  32
ATOM     30 CL   UNL     1      30.226  -2.607 -24.060  0.00  0.00    -0.075 Cl
ATOM     31  S   UNL     1      31.967  -4.965 -23.590  0.00  0.00    -0.071 S 
ATOM     32  C   UNL     1      31.755  -5.984 -22.231  0.00  0.00    +0.084 C 
ATOM     33  C   UNL     1      30.714  -5.569 -21.429  0.00  0.00    +0.012 C 
ATOM     34  C   UNL     1      30.083  -4.398 -21.939  0.00  0.00    +0.019 C 
ATOM     35  C   UNL     1      30.664  -3.963 -23.109  0.00  0.00    +0.087 C 
ENDBRANCH  28  32
ENDBRANCH  21  27
ENDBRANCH  19  20
ENDBRANCH   3  19
TORSDOF 6
ENDMDL
MODEL 3
REMARK VINA RESULT:     -11.7      4.645      7.291
REMARK  Name = 42628060
REMARK  6 active torsions:
REMARK  status: ('A' for Active; 'I' for Inactive)
REMARK    1  A    between atoms: N_2  and  C_6
REMARK    2  A    between atoms: C_3  and  C_19
REMARK    3  A    between atoms: C_9  and  N_13
REMARK    4  A    between atoms: C_19  and  N_20
REMARK    5  A    between atoms: C_21  and  N_27
REMARK    6  A    between atoms: C_28  and  C_32
REMARK                            x       y       z     vdW  Elec       q    Type
REMARK                         _______ _______ _______ _____ _____    ______ ____
ROOT
ATOM      1  O   UNL     1      31.653 -16.771 -26.136  0.00  0.00    -0.277 OA
ATOM      2  N   UNL     1      33.879 -16.241 -25.609  0.00  0.00    -0.284 N 
ATOM      3  C   UNL     1      32.684 -16.131 -26.317  0.00  0.00    +0.205 C 
ATOM      4  H   UNL     1      34.610 -15.648 -25.896  0.00  0.00    +0.155 HD
ENDROOT
BRANCH   2   6
ATOM      5  F   UNL     1      33.981 -19.005 -25.942  0.00  0.00    -0.203 F 
ATOM      6  C   UNL     1      34.164 -17.106 -24.527  0.00  0.00    +0.078 C 
ATOM      7  C   UNL     1      34.207 -18.486 -24.727  0.00  0.00    +0.155 C 
ATOM      8  C   UNL     1      34.399 -16.578 -23.257  0.00  0.00    +0.018 C 
ATOM      9  C   UNL     1      34.723 -18.809 -22.388  0.00  0.00    +0.061 C 
ATOM     10  C   UNL     1      34.487 -19.337 -23.657  0.00  0.00    +0.046 C 
ATOM     11  C   UNL     1      34.679 -17.429 -22.188  0.00  0.00    +0.017 C 
BRANCH   9  13
ATOM     12  O   UNL     1      37.310 -19.123 -21.134  0.00  0.00    -0.269 OA
ATOM     13  N   UNL     1      35.013 -19.693 -21.276  0.00  0.00    -0.233 N 
ATOM     14  C   UNL     1      36.337 -19.787 -20.775  0.00  0.00    +0.257 C 
ATOM     15  C   UNL     1      33.994 -20.439 -20.679  0.00  0.00    +0.072 C 
ATOM     16  C   UNL     1      36.558 -20.757 -19.657  0.00  0.00    +0.059 C 
ATOM     17  C   UNL     1      34.213 -21.275 -19.659  0.00  0.00    +0.017 C 
ATOM     18  C   UNL     1      35.536 -21.441 -19.139  0.00  0.00    +0.006 C 
ENDBRANCH   9  13
ENDBRANCH   2   6
BRANCH   3  19
ATOM     19  C   UNL     1      32.812 -15.076 -27.403  0.00  0.00    +0.010 C 
BRANCH  19  20
ATOM     20  N   UNL     1      33.552 -13.935 -26.884  0.00  0.00    +0.394 N 
ATOM     21  C   UNL     1      33.706 -12.116 -25.435  0.00  0.00    +0.049 C 
ATOM     22  C   UNL     1      33.933 -11.624 -26.867  0.00  0.00    -0.005 C 
ATOM     23  C   UNL     1      33.040 -13.479 -25.590  0.00  0.00    -0.057 C 
ATOM     24  C   UNL     1      33.459 -12.766 -27.758  0.00  0.00    -0.075 C 
ATOM     25  H   UNL     1      34.511 -14.275 -26.810  0.00  0.00    -0.079 HD
BRANCH  21  27
ATOM     26  O   UNL     1      34.648  -9.805 -24.015  0.00  0.00    -0.270 OA
ATOM     27  N   UNL     1      32.914 -11.208 -24.651  0.00  0.00    -0.304 N 
ATOM     28  C   UNL     1      33.458 -10.111 -23.995  0.00  0.00    +0.252 C 
ATOM     29  H   UNL     1      31.946 -11.372 -24.575  0.00  0.00    +0.150 HD
BRANCH  28  32
ATOM     30 CL   UNL     1      30.118  -6.025 -22.340  0.00  0.00    -0.075 Cl
ATOM     31  S   UNL     1      32.013  -7.766 -23.820  0.00  0.00    -0.071 S 
ATOM     32  C   UNL     1      32.510  -9.285 -23.204  0.00  0.00    +0.084 C 
ATOM     33  C   UNL     1      31.932  -9.563 -21.984  0.00  0.00    +0.012 C 
ATOM     34  C   UNL     1      31.070  -8.514 -21.550  0.00  0.00    +0.019 C 
ATOM     35  C   UNL     1      31.022  -7.476 -22.454  0.00  0.00    +0.087 C 
ENDBRANCH  28  32
ENDBRANCH  21  27
ENDBRANCH  19  20
ENDBRANCH   3  19
TORSDOF 6
ENDMDL
MODEL 4
REMARK VINA RESULT:     -11.7      4.841      8.234
REMARK  Name = 42628060
REMARK  6 active torsions:
REMARK  status: ('A' for Active; 'I' for Inactive)
REMARK    1  A    between atoms: N_2  and  C_6
REMARK    2  A    between atoms: C_3  and  C_19
REMARK    3  A    between atoms: C_9  and  N_13
REMARK    4  A    between atoms: C_19  and  N_20
REMARK    5  A    between atoms: C_21  and  N_27
REMARK    6  A    between atoms: C_28  and  C_32
REMARK                            x       y       z     vdW  Elec       q    Type
REMARK                         _______ _______ _______ _____ _____    ______ ____
ROOT
ATOM      1  O   UNL     1      32.758 -13.398 -22.712  0.00  0.00    -0.277 OA
ATOM      2  N   UNL     1      34.290 -14.654 -23.974  0.00  0.00    -0.284 N 
ATOM      3  C   UNL     1      33.493 -13.548 -23.683  0.00  0.00    +0.205 C 
ATOM      4  H   UNL     1      34.815 -14.605 -24.804  0.00  0.00    +0.155 HD
ENDROOT
BRANCH   2   6
ATOM      5  F   UNL     1      34.105 -17.172 -25.151  0.00  0.00    -0.203 F 
ATOM      6  C   UNL     1      34.431 -15.838 -23.213  0.00  0.00    +0.078 C 
ATOM      7  C   UNL     1      34.333 -17.084 -23.833  0.00  0.00    +0.155 C 
ATOM      8  C   UNL     1      34.668 -15.760 -21.841  0.00  0.00    +0.018 C 
ATOM      9  C   UNL     1      34.708 -18.171 -21.708  0.00  0.00    +0.061 C 
ATOM     10  C   UNL     1      34.472 -18.251 -23.081  0.00  0.00    +0.046 C 
ATOM     11  C   UNL     1      34.807 -16.926 -21.088  0.00  0.00    +0.017 C 
BRANCH   9  13
ATOM     12  O   UNL     1      37.211 -19.244 -20.733  0.00  0.00    -0.269 OA
ATOM     13  N   UNL     1      34.852 -19.384 -20.926  0.00  0.00    -0.233 N 
ATOM     14  C   UNL     1      36.143 -19.827 -20.541  0.00  0.00    +0.257 C 
ATOM     15  C   UNL     1      33.726 -20.108 -20.529  0.00  0.00    +0.072 C 
ATOM     16  C   UNL     1      36.205 -21.111 -19.774  0.00  0.00    +0.059 C 
ATOM     17  C   UNL     1      33.807 -21.236 -19.815  0.00  0.00    +0.017 C 
ATOM     18  C   UNL     1      35.086 -21.754 -19.434  0.00  0.00    +0.006 C 
ENDBRANCH   9  13
ENDBRANCH   2   6
BRANCH   3  19
ATOM     19  C   UNL     1      33.640 -12.496 -24.769  0.00  0.00    +0.010 C 
BRANCH  19  20
ATOM     20  N   UNL     1      34.167 -11.270 -24.187  0.00  0.00    +0.394 N 
ATOM     21  C   UNL     1      33.869  -9.053 -23.533  0.00  0.00    +0.049 C 
ATOM     22  C   UNL     1      35.067  -9.128 -24.483  0.00  0.00    -0.005 C 
ATOM     23  C   UNL     1      33.107 -10.355 -23.760  0.00  0.00    -0.057 C 
ATOM     24  C   UNL     1      34.967 -10.500 -25.139  0.00  0.00    -0.075 C 
ATOM     25  H   UNL     1      34.727 -11.592 -23.398  0.00  0.00    -0.079 HD
BRANCH  21  27
ATOM     26  O   UNL     1      33.048  -7.125 -21.570  0.00  0.00    -0.270 OA
ATOM     27  N   UNL     1      33.048  -7.895 -23.758  0.00  0.00    -0.304 N 
ATOM     28  C   UNL     1      32.699  -7.013 -22.743  0.00  0.00    +0.252 C 
ATOM     29  H   UNL     1      32.719  -7.720 -24.670  0.00  0.00    +0.150 HD
BRANCH  28  32
ATOM     30 CL   UNL     1      29.363  -3.653 -25.602  0.00  0.00    -0.075 Cl
ATOM     31  S   UNL     1      31.135  -5.858 -24.702  0.00  0.00    -0.071 S 
ATOM     32  C   UNL     1      31.823  -5.878 -23.134  0.00  0.00    +0.084 C 
ATOM     33  C   UNL     1      31.453  -4.778 -22.393  0.00  0.00    +0.012 C 
ATOM     34  C   UNL     1      30.594  -3.906 -23.122  0.00  0.00    +0.019 C 
ATOM     35  C   UNL     1      30.339  -4.374 -24.393  0.00  0.00    +0.087 C 
ENDBRANCH  28  32
ENDBRANCH  21  27
ENDBRANCH  19  20
ENDBRANCH   3  19
TORSDOF 6
ENDMDL
MODEL 5
REMARK VINA RESULT:     -11.6      5.150     12.346
REMARK  Name = 42628060
REMARK  6 active torsions:
REMARK  status: ('A' for Active; 'I' for Inactive)
REMARK    1  A    between atoms: N_2  and  C_6
REMARK    2  A    between atoms: C_3  and  C_19
REMARK    3  A    between atoms: C_9  and  N_13
REMARK    4  A    between atoms: C_19  and  N_20
REMARK    5  A    between atoms: C_21  and  N_27
REMARK    6  A    between atoms: C_28  and  C_32
REMARK                            x       y       z     vdW  Elec       q    Type
REMARK                         _______ _______ _______ _____ _____    ______ ____
ROOT
ATOM      1  O   UNL     1      33.489 -19.613 -20.960  0.00  0.00    -0.277 OA
ATOM      2  N   UNL     1      35.342 -19.025 -22.277  0.00  0.00    -0.284 N 
ATOM      3  C   UNL     1      34.658 -19.753 -21.305  0.00  0.00    +0.205 C 
ATOM      4  H   UNL     1      36.284 -19.271 -22.420  0.00  0.00    +0.155 HD
ENDROOT
BRANCH   2   6
ATOM      5  F   UNL     1      34.097 -19.525 -24.718  0.00  0.00    -0.203 F 
ATOM      6  C   UNL     1      34.841 -17.974 -23.080  0.00  0.00    +0.078 C 
ATOM      7  C   UNL     1      34.223 -18.259 -24.298  0.00  0.00    +0.155 C 
ATOM      8  C   UNL     1      34.967 -16.652 -22.654  0.00  0.00    +0.018 C 
ATOM      9  C   UNL     1      33.856 -15.898 -24.662  0.00  0.00    +0.061 C 
ATOM     10  C   UNL     1      33.730 -17.220 -25.089  0.00  0.00    +0.046 C 
ATOM     11  C   UNL     1      34.474 -15.614 -23.445  0.00  0.00    +0.017 C 
BRANCH   9  13
ATOM     12  O   UNL     1      33.016 -16.151 -27.418  0.00  0.00    -0.269 OA
ATOM     13  N   UNL     1      33.344 -14.819 -25.484  0.00  0.00    -0.233 N 
ATOM     14  C   UNL     1      33.003 -15.064 -26.839  0.00  0.00    +0.257 C 
ATOM     15  C   UNL     1      33.165 -13.542 -24.947  0.00  0.00    +0.072 C 
ATOM     16  C   UNL     1      32.526 -13.886 -27.630  0.00  0.00    +0.059 C 
ATOM     17  C   UNL     1      32.706 -12.513 -25.666  0.00  0.00    +0.017 C 
ATOM     18  C   UNL     1      32.384 -12.692 -27.050  0.00  0.00    +0.006 C 
ENDBRANCH   9  13
ENDBRANCH   2   6
BRANCH   3  19
ATOM     19  C   UNL     1      35.576 -20.790 -20.682  0.00  0.00    +0.010 C 
BRANCH  19  20
ATOM     20  N   UNL     1      35.113 -21.102 -19.338  0.00  0.00    +0.394 N 
ATOM     21  C   UNL     1      35.499 -22.017 -17.229  0.00  0.00    +0.049 C 
ATOM     22  C   UNL     1      34.244 -22.662 -17.822  0.00  0.00    -0.005 C 
ATOM     23  C   UNL     1      36.217 -21.390 -18.420  0.00  0.00    -0.057 C 
ATOM     24  C   UNL     1      34.273 -22.299 -19.302  0.00  0.00    -0.075 C 
ATOM     25  H   UNL     1      34.596 -20.270 -19.055  0.00  0.00    -0.079 HD
BRANCH  21  27
ATOM     26  O   UNL     1      35.162 -22.906 -14.520  0.00  0.00    -0.270 OA
ATOM     27  N   UNL     1      36.330 -22.954 -16.524  0.00  0.00    -0.304 N 
ATOM     28  C   UNL     1      36.090 -23.327 -15.207  0.00  0.00    +0.252 C 
ATOM     29  H   UNL     1      37.101 -23.347 -16.993  0.00  0.00    +0.150 HD
BRANCH  28  32
ATOM     30 CL   UNL     1      40.507 -26.553 -14.382  0.00  0.00    -0.075 Cl
ATOM     31  S   UNL     1      38.493 -24.659 -15.465  0.00  0.00    -0.071 S 
ATOM     32  C   UNL     1      37.056 -24.287 -14.612  0.00  0.00    +0.084 C 
ATOM     33  C   UNL     1      36.976 -24.962 -13.414  0.00  0.00    +0.012 C 
ATOM     34  C   UNL     1      38.110 -25.796 -13.194  0.00  0.00    +0.019 C 
ATOM     35  C   UNL     1      39.013 -25.727 -14.232  0.00  0.00    +0.087 C 
ENDBRANCH  28  32
ENDBRANCH  21  27
ENDBRANCH  19  20
ENDBRANCH   3  19
TORSDOF 6
ENDMDL
MODEL 6
REMARK VINA RESULT:     -11.2      4.354      7.014
REMARK  Name = 42628060
REMARK  6 active torsions:
REMARK  status: ('A' for Active; 'I' for Inactive)
REMARK    1  A    between atoms: N_2  and  C_6
REMARK    2  A    between atoms: C_3  and  C_19
REMARK    3  A    between atoms: C_9  and  N_13
REMARK    4  A    between atoms: C_19  and  N_20
REMARK    5  A    between atoms: C_21  and  N_27
REMARK    6  A    between atoms: C_28  and  C_32
REMARK                            x       y       z     vdW  Elec       q    Type
REMARK                         _______ _______ _______ _____ _____    ______ ____
ROOT
ATOM      1  O   UNL     1      31.570 -16.832 -26.238  0.00  0.00    -0.277 OA
ATOM      2  N   UNL     1      33.890 -16.589 -25.970  0.00  0.00    -0.284 N 
ATOM      3  C   UNL     1      32.655 -16.373 -26.580  0.00  0.00    +0.205 C 
ATOM      4  H   UNL     1      34.663 -16.142 -26.384  0.00  0.00    +0.155 HD
ENDROOT
BRANCH   2   6
ATOM      5  F   UNL     1      33.895 -19.373 -26.083  0.00  0.00    -0.203 F 
ATOM      6  C   UNL     1      34.162 -17.375 -24.826  0.00  0.00    +0.078 C 
ATOM      7  C   UNL     1      34.156 -18.767 -24.916  0.00  0.00    +0.155 C 
ATOM      8  C   UNL     1      34.434 -16.756 -23.606  0.00  0.00    +0.018 C 
ATOM      9  C   UNL     1      34.695 -18.920 -22.566  0.00  0.00    +0.061 C 
ATOM     10  C   UNL     1      34.423 -19.540 -23.785  0.00  0.00    +0.046 C 
ATOM     11  C   UNL     1      34.701 -17.529 -22.475  0.00  0.00    +0.017 C 
BRANCH   9  13
ATOM     12  O   UNL     1      37.263 -19.129 -21.251  0.00  0.00    -0.269 OA
ATOM     13  N   UNL     1      34.972 -19.724 -21.390  0.00  0.00    -0.233 N 
ATOM     14  C   UNL     1      36.288 -19.773 -20.863  0.00  0.00    +0.257 C 
ATOM     15  C   UNL     1      33.948 -20.433 -20.759  0.00  0.00    +0.072 C 
ATOM     16  C   UNL     1      36.497 -20.661 -19.677  0.00  0.00    +0.059 C 
ATOM     17  C   UNL     1      34.154 -21.195 -19.680  0.00  0.00    +0.017 C 
ATOM     18  C   UNL     1      35.470 -21.315 -19.129  0.00  0.00    +0.006 C 
ENDBRANCH   9  13
ENDBRANCH   2   6
BRANCH   3  19
ATOM     19  C   UNL     1      32.816 -15.462 -27.784  0.00  0.00    +0.010 C 
BRANCH  19  20
ATOM     20  N   UNL     1      33.120 -14.112 -27.333  0.00  0.00    +0.394 N 
ATOM     21  C   UNL     1      33.197 -12.520 -25.632  0.00  0.00    +0.049 C 
ATOM     22  C   UNL     1      32.378 -11.956 -26.797  0.00  0.00    -0.005 C 
ATOM     23  C   UNL     1      33.239 -14.025 -25.876  0.00  0.00    -0.057 C 
ATOM     24  C   UNL     1      32.068 -13.158 -27.682  0.00  0.00    -0.075 C 
ATOM     25  H   UNL     1      34.001 -13.889 -27.796  0.00  0.00    -0.079 HD
BRANCH  21  27
ATOM     26  O   UNL     1      33.950 -13.644 -23.101  0.00  0.00    -0.270 OA
ATOM     27  N   UNL     1      32.642 -12.191 -24.348  0.00  0.00    -0.304 N 
ATOM     28  C   UNL     1      33.070 -12.789 -23.170  0.00  0.00    +0.252 C 
ATOM     29  H   UNL     1      31.928 -11.514 -24.302  0.00  0.00    +0.150 HD
BRANCH  28  32
ATOM     30 CL   UNL     1      30.222  -9.839 -19.457  0.00  0.00    -0.075 Cl
ATOM     31  S   UNL     1      31.642 -10.813 -21.876  0.00  0.00    -0.071 S 
ATOM     32  C   UNL     1      32.377 -12.359 -21.928  0.00  0.00    +0.084 C 
ATOM     33  C   UNL     1      32.222 -13.045 -20.743  0.00  0.00    +0.012 C 
ATOM     34  C   UNL     1      31.490 -12.292 -19.781  0.00  0.00    +0.019 C 
ATOM     35  C   UNL     1      31.114 -11.059 -20.266  0.00  0.00    +0.087 C 
ENDBRANCH  28  32
ENDBRANCH  21  27
ENDBRANCH  19  20
ENDBRANCH   3  19
TORSDOF 6
ENDMDL
MODEL 7
REMARK VINA RESULT:     -11.2      5.024     13.007
REMARK  Name = 42628060
REMARK  6 active torsions:
REMARK  status: ('A' for Active; 'I' for Inactive)
REMARK    1  A    between atoms: N_2  and  C_6
REMARK    2  A    between atoms: C_3  and  C_19
REMARK    3  A    between atoms: C_9  and  N_13
REMARK    4  A    between atoms: C_19  and  N_20
REMARK    5  A    between atoms: C_21  and  N_27
REMARK    6  A    between atoms: C_28  and  C_32
REMARK                            x       y       z     vdW  Elec       q    Type
REMARK                         _______ _______ _______ _____ _____    ______ ____
ROOT
ATOM      1  O   UNL     1      34.625 -16.004 -26.278  0.00  0.00    -0.277 OA
ATOM      2  N   UNL     1      33.126 -15.050 -24.741  0.00  0.00    -0.284 N 
ATOM      3  C   UNL     1      33.790 -16.094 -25.383  0.00  0.00    +0.205 C 
ATOM      4  H   UNL     1      32.481 -15.309 -24.045  0.00  0.00    +0.155 HD
ENDROOT
BRANCH   2   6
ATOM      5  F   UNL     1      34.324 -13.376 -22.864  0.00  0.00    -0.203 F 
ATOM      6  C   UNL     1      33.272 -13.663 -24.974  0.00  0.00    +0.078 C 
ATOM      7  C   UNL     1      33.876 -12.851 -24.014  0.00  0.00    +0.155 C 
ATOM      8  C   UNL     1      32.810 -13.105 -26.166  0.00  0.00    +0.018 C 
ATOM      9  C   UNL     1      33.555 -10.926 -25.438  0.00  0.00    +0.061 C 
ATOM     10  C   UNL     1      34.018 -11.483 -24.246  0.00  0.00    +0.046 C 
ATOM     11  C   UNL     1      32.952 -11.737 -26.398  0.00  0.00    +0.017 C 
BRANCH   9  13
ATOM     12  O   UNL     1      31.980  -8.848 -24.187  0.00  0.00    -0.269 OA
ATOM     13  N   UNL     1      33.702  -9.504 -25.679  0.00  0.00    -0.233 N 
ATOM     14  C   UNL     1      32.837  -8.585 -25.030  0.00  0.00    +0.257 C 
ATOM     15  C   UNL     1      34.703  -9.028 -26.530  0.00  0.00    +0.072 C 
ATOM     16  C   UNL     1      33.026  -7.140 -25.370  0.00  0.00    +0.059 C 
ATOM     17  C   UNL     1      34.872  -7.728 -26.791  0.00  0.00    +0.017 C 
ATOM     18  C   UNL     1      34.002  -6.758 -26.197  0.00  0.00    +0.006 C 
ENDBRANCH   9  13
ENDBRANCH   2   6
BRANCH   3  19
ATOM     19  C   UNL     1      33.333 -17.430 -24.823  0.00  0.00    +0.010 C 
BRANCH  19  20
ATOM     20  N   UNL     1      34.342 -17.943 -23.909  0.00  0.00    +0.394 N 
ATOM     21  C   UNL     1      34.963 -19.390 -22.190  0.00  0.00    +0.049 C 
ATOM     22  C   UNL     1      35.298 -17.956 -21.771  0.00  0.00    -0.005 C 
ATOM     23  C   UNL     1      33.971 -19.240 -23.339  0.00  0.00    -0.057 C 
ATOM     24  C   UNL     1      34.544 -17.069 -22.754  0.00  0.00    -0.075 C 
ATOM     25  H   UNL     1      35.183 -18.011 -24.482  0.00  0.00    -0.079 HD
BRANCH  21  27
ATOM     26  O   UNL     1      36.471 -20.841 -20.225  0.00  0.00    -0.270 OA
ATOM     27  N   UNL     1      34.432 -20.178 -21.111  0.00  0.00    -0.304 N 
ATOM     28  C   UNL     1      35.242 -20.849 -20.204  0.00  0.00    +0.252 C 
ATOM     29  H   UNL     1      33.455 -20.245 -21.012  0.00  0.00    +0.150 HD
BRANCH  28  32
ATOM     30 CL   UNL     1      34.104 -23.700 -15.601  0.00  0.00    -0.075 Cl
ATOM     31  S   UNL     1      35.395 -22.119 -17.758  0.00  0.00    -0.071 S 
ATOM     32  C   UNL     1      34.539 -21.643 -19.162  0.00  0.00    +0.084 C 
ATOM     33  C   UNL     1      33.233 -22.080 -19.144  0.00  0.00    +0.012 C 
ATOM     34  C   UNL     1      32.931 -22.816 -17.962  0.00  0.00    +0.019 C 
ATOM     35  C   UNL     1      34.018 -22.913 -17.122  0.00  0.00    +0.087 C 
ENDBRANCH  28  32
ENDBRANCH  21  27
ENDBRANCH  19  20
ENDBRANCH   3  19
TORSDOF 6
ENDMDL
MODEL 8
REMARK VINA RESULT:     -11.1      4.859     12.064
REMARK  Name = 42628060
REMARK  6 active torsions:
REMARK  status: ('A' for Active; 'I' for Inactive)
REMARK    1  A    between atoms: N_2  and  C_6
REMARK    2  A    between atoms: C_3  and  C_19
REMARK    3  A    between atoms: C_9  and  N_13
REMARK    4  A    between atoms: C_19  and  N_20
REMARK    5  A    between atoms: C_21  and  N_27
REMARK    6  A    between atoms: C_28  and  C_32
REMARK                            x       y       z     vdW  Elec       q    Type
REMARK                         _______ _______ _______ _____ _____    ______ ____
ROOT
ATOM      1  O   UNL     1      33.452 -19.579 -21.436  0.00  0.00    -0.277 OA
ATOM      2  N   UNL     1      35.337 -18.213 -21.127  0.00  0.00    -0.284 N 
ATOM      3  C   UNL     1      34.620 -19.408 -21.102  0.00  0.00    +0.205 C 
ATOM      4  H   UNL     1      36.269 -18.259 -20.817  0.00  0.00    +0.155 HD
ENDROOT
BRANCH   2   6
ATOM      5  F   UNL     1      34.950 -17.622 -23.823  0.00  0.00    -0.203 F 
ATOM      6  C   UNL     1      34.880 -16.942 -21.548  0.00  0.00    +0.078 C 
ATOM      7  C   UNL     1      34.696 -16.678 -22.905  0.00  0.00    +0.155 C 
ATOM      8  C   UNL     1      34.615 -15.950 -20.603  0.00  0.00    +0.018 C 
ATOM      9  C   UNL     1      33.981 -14.433 -22.372  0.00  0.00    +0.061 C 
ATOM     10  C   UNL     1      34.246 -15.423 -23.317  0.00  0.00    +0.046 C 
ATOM     11  C   UNL     1      34.165 -14.695 -21.015  0.00  0.00    +0.017 C 
BRANCH   9  13
ATOM     12  O   UNL     1      31.921 -12.882 -21.062  0.00  0.00    -0.269 OA
ATOM     13  N   UNL     1      33.515 -13.128 -22.800  0.00  0.00    -0.233 N 
ATOM     14  C   UNL     1      32.466 -12.486 -22.093  0.00  0.00    +0.257 C 
ATOM     15  C   UNL     1      34.105 -12.487 -23.892  0.00  0.00    +0.072 C 
ATOM     16  C   UNL     1      32.014 -11.163 -22.628  0.00  0.00    +0.059 C 
ATOM     17  C   UNL     1      33.704 -11.290 -24.331  0.00  0.00    +0.017 C 
ATOM     18  C   UNL     1      32.622 -10.613 -23.681  0.00  0.00    +0.006 C 
ENDBRANCH   9  13
ENDBRANCH   2   6
BRANCH   3  19
ATOM     19  C   UNL     1      35.495 -20.534 -20.578  0.00  0.00    +0.010 C 
BRANCH  19  20
ATOM     20  N   UNL     1      34.993 -20.975 -19.285  0.00  0.00    +0.394 N 
ATOM     21  C   UNL     1      35.322 -22.085 -17.262  0.00  0.00    +0.049 C 
ATOM     22  C   UNL     1      34.091 -22.677 -17.952  0.00  0.00    -0.005 C 
ATOM     23  C   UNL     1      36.071 -21.344 -18.365  0.00  0.00    -0.057 C 
ATOM     24  C   UNL     1      34.162 -22.174 -19.389  0.00  0.00    -0.075 C 
ATOM     25  H   UNL     1      34.461 -20.176 -18.940  0.00  0.00    -0.079 HD
BRANCH  21  27
ATOM     26  O   UNL     1      35.317 -22.778 -14.476  0.00  0.00    -0.270 OA
ATOM     27  N   UNL     1      36.138 -23.081 -16.624  0.00  0.00    -0.304 N 
ATOM     28  C   UNL     1      36.068 -23.350 -15.262  0.00  0.00    +0.252 C 
ATOM     29  H   UNL     1      36.774 -23.593 -17.174  0.00  0.00    +0.150 HD
BRANCH  28  32
ATOM     30 CL   UNL     1      40.524 -26.533 -14.479  0.00  0.00    -0.075 Cl
ATOM     31  S   UNL     1      38.571 -24.502 -15.417  0.00  0.00    -0.071 S 
ATOM     32  C   UNL     1      36.997 -24.391 -14.752  0.00  0.00    +0.084 C 
ATOM     33  C   UNL     1      36.782 -25.335 -13.771  0.00  0.00    +0.012 C 
ATOM     34  C   UNL     1      37.925 -26.159 -13.564  0.00  0.00    +0.019 C 
ATOM     35  C   UNL     1      38.970 -25.815 -14.393  0.00  0.00    +0.087 C 
ENDBRANCH  28  32
ENDBRANCH  21  27
ENDBRANCH  19  20
ENDBRANCH   3  19
TORSDOF 6
ENDMDL
MODEL 9
REMARK VINA RESULT:     -11.0      4.795      7.651
REMARK  Name = 42628060
REMARK  6 active torsions:
REMARK  status: ('A' for Active; 'I' for Inactive)
REMARK    1  A    between atoms: N_2  and  C_6
REMARK    2  A    between atoms: C_3  and  C_19
REMARK    3  A    between atoms: C_9  and  N_13
REMARK    4  A    between atoms: C_19  and  N_20
REMARK    5  A    between atoms: C_21  and  N_27
REMARK    6  A    between atoms: C_28  and  C_32
REMARK                            x       y       z     vdW  Elec       q    Type
REMARK                         _______ _______ _______ _____ _____    ______ ____
ROOT
ATOM      1  O   UNL     1      32.069 -16.671 -25.503  0.00  0.00    -0.277 OA
ATOM      2  N   UNL     1      34.236 -16.298 -24.678  0.00  0.00    -0.284 N 
ATOM      3  C   UNL     1      33.136 -16.064 -25.501  0.00  0.00    +0.205 C 
ATOM      4  H   UNL     1      35.015 -15.713 -24.818  0.00  0.00    +0.155 HD
ENDROOT
BRANCH   2   6
ATOM      5  F   UNL     1      34.131 -19.020 -25.262  0.00  0.00    -0.203 F 
ATOM      6  C   UNL     1      34.363 -17.277 -23.665  0.00  0.00    +0.078 C 
ATOM      7  C   UNL     1      34.306 -18.632 -23.991  0.00  0.00    +0.155 C 
ATOM      8  C   UNL     1      34.544 -16.886 -22.338  0.00  0.00    +0.018 C 
ATOM      9  C   UNL     1      34.612 -19.204 -21.663  0.00  0.00    +0.061 C 
ATOM     10  C   UNL     1      34.431 -19.596 -22.990  0.00  0.00    +0.046 C 
ATOM     11  C   UNL     1      34.669 -17.850 -21.337  0.00  0.00    +0.017 C 
BRANCH   9  13
ATOM     12  O   UNL     1      32.425 -20.701 -20.504  0.00  0.00    -0.269 OA
ATOM     13  N   UNL     1      34.741 -20.206 -20.623  0.00  0.00    -0.233 N 
ATOM     14  C   UNL     1      33.582 -20.843 -20.108  0.00  0.00    +0.257 C 
ATOM     15  C   UNL     1      36.000 -20.565 -20.136  0.00  0.00    +0.072 C 
ATOM     16  C   UNL     1      33.800 -21.830 -19.004  0.00  0.00    +0.059 C 
ATOM     17  C   UNL     1      36.170 -21.475 -19.171  0.00  0.00    +0.017 C 
ATOM     18  C   UNL     1      35.033 -22.120 -18.586  0.00  0.00    +0.006 C 
ENDBRANCH   9  13
ENDBRANCH   2   6
BRANCH   3  19
ATOM     19  C   UNL     1      33.425 -14.915 -26.451  0.00  0.00    +0.010 C 
BRANCH  19  20
ATOM     20  N   UNL     1      32.895 -13.680 -25.892  0.00  0.00    +0.394 N 
ATOM     21  C   UNL     1      32.761 -11.352 -25.899  0.00  0.00    +0.049 C 
ATOM     22  C   UNL     1      33.180 -11.816 -24.501  0.00  0.00    -0.005 C 
ATOM     23  C   UNL     1      33.040 -12.546 -26.807  0.00  0.00    -0.057 C 
ATOM     24  C   UNL     1      33.597 -13.272 -24.675  0.00  0.00    -0.075 C 
ATOM     25  H   UNL     1      31.915 -13.892 -25.708  0.00  0.00    -0.079 HD
BRANCH  21  27
ATOM     26  O   UNL     1      32.081  -8.639 -25.253  0.00  0.00    -0.270 OA
ATOM     27  N   UNL     1      33.455 -10.169 -26.326  0.00  0.00    -0.304 N 
ATOM     28  C   UNL     1      33.052  -8.890 -25.963  0.00  0.00    +0.252 C 
ATOM     29  H   UNL     1      34.248 -10.269 -26.901  0.00  0.00    +0.150 HD
BRANCH  28  32
ATOM     30 CL   UNL     1      34.832  -3.836 -27.336  0.00  0.00    -0.075 Cl
ATOM     31  S   UNL     1      33.307  -6.162 -26.298  0.00  0.00    -0.071 S 
ATOM     32  C   UNL     1      33.860  -7.769 -26.510  0.00  0.00    +0.084 C 
ATOM     33  C   UNL     1      35.052  -7.819 -27.198  0.00  0.00    +0.012 C 
ATOM     34  C   UNL     1      35.518  -6.521 -27.556  0.00  0.00    +0.019 C 
ATOM     35  C   UNL     1      34.664  -5.529 -27.128  0.00  0.00    +0.087 C 
ENDBRANCH  28  32
ENDBRANCH  21  27
ENDBRANCH  19  20
ENDBRANCH   3  19
TORSDOF 6
ENDMDL
