MODEL 1
REMARK VINA RESULT:     -11.8      0.000      0.000
REMARK  Name = 25195365
REMARK  5 active torsions:
REMARK  status: ('A' for Active; 'I' for Inactive)
REMARK    1  A    between atoms: C_1  and  C_3
REMARK    2  A    between atoms: C_1  and  C_17
REMARK    3  A    between atoms: C_4  and  C_9
REMARK    4  A    between atoms: C_6  and  O_15
REMARK    5  A    between atoms: C_18  and  C_23
REMARK                            x       y       z     vdW  Elec       q    Type
REMARK                         _______ _______ _______ _____ _____    ______ ____
ROOT
ATOM      1  C   UNL     1      32.597 -23.066 -17.769  0.00  0.00    +0.086 C 
ATOM      2  C   UNL     1      31.216 -22.754 -17.162  0.00  0.00    +0.019 C 
ENDROOT
BRANCH   1   3
ATOM      3  C   UNL     1      33.035 -22.045 -18.764  0.00  0.00    -0.007 C 
ATOM      4  C   UNL     1      33.854 -20.135 -20.625  0.00  0.00    +0.034 C 
ATOM      5  C   UNL     1      34.385 -21.928 -19.095  0.00  0.00    +0.034 C 
ATOM      6  C   UNL     1      34.795 -20.972 -20.026  0.00  0.00    +0.138 C 
ATOM      7  C   UNL     1      32.095 -21.207 -19.364  0.00  0.00    -0.003 C 
ATOM      8  C   UNL     1      32.504 -20.253 -20.294  0.00  0.00    +0.003 C 
BRANCH   4   9
ATOM      9  C   UNL     1      34.258 -19.137 -21.592  0.00  0.00    +0.003 C 
ATOM     10  C   UNL     1      34.242 -19.439 -22.955  0.00  0.00    +0.000 C 
ATOM     11  C   UNL     1      34.662 -17.873 -21.163  0.00  0.00    +0.000 C 
ATOM     12  C   UNL     1      34.630 -18.477 -23.887  0.00  0.00    +0.000 C 
ATOM     13  C   UNL     1      35.051 -16.911 -22.096  0.00  0.00    +0.000 C 
ATOM     14  C   UNL     1      35.035 -17.214 -23.457  0.00  0.00    +0.000 C 
ENDBRANCH   4   9
BRANCH   6  15
ATOM     15  O   UNL     1      36.120 -20.880 -20.332  0.00  0.00    -0.471 OA
ATOM     16  C   UNL     1      37.004 -20.508 -19.276  0.00  0.00    +0.252 C 
ENDBRANCH   6  15
ENDBRANCH   1   3
BRANCH   1  17
ATOM     17  C   UNL     1      33.588 -23.251 -16.678  0.00  0.00    -0.087 C 
ATOM     18  C   UNL     1      34.373 -23.397 -15.780  0.00  0.00    -0.076 C 
BRANCH  18  23
ATOM     19  N   UNL     1      37.534 -23.337 -13.836  0.00  0.00    -0.336 NA
ATOM     20  N   UNL     1      35.803 -24.313 -12.473  0.00  0.00    -0.317 NA
ATOM     21  N   UNL     1      33.604 -24.556 -13.311  0.00  0.00    -0.334 N 
ATOM     22  N   UNL     1      37.988 -24.066 -11.652  0.00  0.00    -0.283 N 
ATOM     23  C   UNL     1      35.303 -23.574 -14.708  0.00  0.00    +0.179 C 
ATOM     24  C   UNL     1      36.623 -23.189 -14.820  0.00  0.00    +0.120 C 
ATOM     25  C   UNL     1      34.946 -24.136 -13.499  0.00  0.00    +0.186 C 
ATOM     26  C   UNL     1      37.138 -22.568 -16.079  0.00  0.00    +0.064 C 
ATOM     27  C   UNL     1      37.062 -23.897 -12.706  0.00  0.00    +0.196 C 
ATOM     28  H   UNL     1      33.331 -24.959 -12.455  0.00  0.00    +0.144 HD
ATOM     29  H   UNL     1      32.948 -24.444 -14.036  0.00  0.00    +0.144 HD
ATOM     30  H   UNL     1      38.922 -23.780 -11.768  0.00  0.00    +0.156 HD
ATOM     31  H   UNL     1      37.698 -24.470 -10.803  0.00  0.00    +0.156 HD
ENDBRANCH  18  23
ENDBRANCH   1  17
TORSDOF 5
ENDMDL
MODEL 2
REMARK VINA RESULT:     -11.4      0.590      1.872
REMARK  Name = 25195365
REMARK  5 active torsions:
REMARK  status: ('A' for Active; 'I' for Inactive)
REMARK    1  A    between atoms: C_1  and  C_3
REMARK    2  A    between atoms: C_1  and  C_17
REMARK    3  A    between atoms: C_4  and  C_9
REMARK    4  A    between atoms: C_6  and  O_15
REMARK    5  A    between atoms: C_18  and  C_23
REMARK                            x       y       z     vdW  Elec       q    Type
REMARK                         _______ _______ _______ _____ _____    ______ ____
ROOT
ATOM      1  C   UNL     1      32.586 -23.044 -17.802  0.00  0.00    +0.086 C 
ATOM      2  C   UNL     1      31.205 -22.742 -17.190  0.00  0.00    +0.019 C 
ENDROOT
BRANCH   1   3
ATOM      3  C   UNL     1      33.019 -22.013 -18.788  0.00  0.00    -0.007 C 
ATOM      4  C   UNL     1      33.828 -20.084 -20.634  0.00  0.00    +0.034 C 
ATOM      5  C   UNL     1      34.370 -21.879 -19.110  0.00  0.00    +0.034 C 
ATOM      6  C   UNL     1      34.775 -20.914 -20.033  0.00  0.00    +0.138 C 
ATOM      7  C   UNL     1      32.074 -21.182 -19.389  0.00  0.00    -0.003 C 
ATOM      8  C   UNL     1      32.478 -20.218 -20.312  0.00  0.00    +0.003 C 
BRANCH   4   9
ATOM      9  C   UNL     1      34.227 -19.076 -21.593  0.00  0.00    +0.003 C 
ATOM     10  C   UNL     1      34.665 -17.828 -21.151  0.00  0.00    +0.000 C 
ATOM     11  C   UNL     1      34.174 -19.353 -22.959  0.00  0.00    +0.000 C 
ATOM     12  C   UNL     1      35.050 -16.857 -22.075  0.00  0.00    +0.000 C 
ATOM     13  C   UNL     1      34.558 -18.381 -23.883  0.00  0.00    +0.000 C 
ATOM     14  C   UNL     1      34.996 -17.134 -23.441  0.00  0.00    +0.000 C 
ENDBRANCH   4   9
BRANCH   6  15
ATOM     15  O   UNL     1      36.101 -20.806 -20.330  0.00  0.00    -0.471 OA
ATOM     16  C   UNL     1      37.018 -21.434 -19.437  0.00  0.00    +0.252 C 
ENDBRANCH   6  15
ENDBRANCH   1   3
BRANCH   1  17
ATOM     17  C   UNL     1      33.580 -23.236 -16.714  0.00  0.00    -0.087 C 
ATOM     18  C   UNL     1      34.382 -23.368 -15.829  0.00  0.00    -0.076 C 
BRANCH  18  23
ATOM     19  N   UNL     1      35.812 -24.057 -12.474  0.00  0.00    -0.336 NA
ATOM     20  N   UNL     1      37.599 -23.441 -13.968  0.00  0.00    -0.317 NA
ATOM     21  N   UNL     1      37.150 -22.911 -16.229  0.00  0.00    -0.334 N 
ATOM     22  N   UNL     1      38.033 -23.970 -11.723  0.00  0.00    -0.283 N 
ATOM     23  C   UNL     1      35.332 -23.521 -14.771  0.00  0.00    +0.179 C 
ATOM     24  C   UNL     1      34.951 -23.900 -13.501  0.00  0.00    +0.120 C 
ATOM     25  C   UNL     1      36.683 -23.303 -14.948  0.00  0.00    +0.186 C 
ATOM     26  C   UNL     1      33.515 -24.167 -13.176  0.00  0.00    +0.064 C 
ATOM     27  C   UNL     1      37.102 -23.815 -12.774  0.00  0.00    +0.196 C 
ATOM     28  H   UNL     1      38.110 -22.750 -16.374  0.00  0.00    +0.144 HD
ATOM     29  H   UNL     1      36.513 -22.799 -16.971  0.00  0.00    +0.144 HD
ATOM     30  H   UNL     1      37.725 -24.242 -10.829  0.00  0.00    +0.156 HD
ATOM     31  H   UNL     1      38.990 -23.807 -11.886  0.00  0.00    +0.156 HD
ENDBRANCH  18  23
ENDBRANCH   1  17
TORSDOF 5
ENDMDL
MODEL 3
REMARK VINA RESULT:     -11.1      4.484      7.444
REMARK  Name = 25195365
REMARK  5 active torsions:
REMARK  status: ('A' for Active; 'I' for Inactive)
REMARK    1  A    between atoms: C_1  and  C_3
REMARK    2  A    between atoms: C_1  and  C_17
REMARK    3  A    between atoms: C_4  and  C_9
REMARK    4  A    between atoms: C_6  and  O_15
REMARK    5  A    between atoms: C_18  and  C_23
REMARK                            x       y       z     vdW  Elec       q    Type
REMARK                         _______ _______ _______ _____ _____    ______ ____
ROOT
ATOM      1  C   UNL     1      35.058 -18.219 -23.808  0.00  0.00    +0.086 C 
ATOM      2  C   UNL     1      34.565 -18.896 -25.101  0.00  0.00    +0.019 C 
ENDROOT
BRANCH   1   3
ATOM      3  C   UNL     1      34.565 -16.820 -23.663  0.00  0.00    -0.007 C 
ATOM      4  C   UNL     1      33.641 -14.202 -23.391  0.00  0.00    +0.034 C 
ATOM      5  C   UNL     1      33.913 -16.196 -24.727  0.00  0.00    +0.034 C 
ATOM      6  C   UNL     1      33.451 -14.886 -24.591  0.00  0.00    +0.138 C 
ATOM      7  C   UNL     1      34.755 -16.134 -22.463  0.00  0.00    -0.003 C 
ATOM      8  C   UNL     1      34.293 -14.825 -22.327  0.00  0.00    +0.003 C 
BRANCH   4   9
ATOM      9  C   UNL     1      33.171 -12.843 -23.229  0.00  0.00    +0.003 C 
ATOM     10  C   UNL     1      33.715 -11.819 -24.006  0.00  0.00    +0.000 C 
ATOM     11  C   UNL     1      32.174 -12.555 -22.296  0.00  0.00    +0.000 C 
ATOM     12  C   UNL     1      33.261 -10.510 -23.851  0.00  0.00    +0.000 C 
ATOM     13  C   UNL     1      31.721 -11.245 -22.141  0.00  0.00    +0.000 C 
ATOM     14  C   UNL     1      32.265 -10.223 -22.918  0.00  0.00    +0.000 C 
ENDBRANCH   4   9
BRANCH   6  15
ATOM     15  O   UNL     1      32.817 -14.301 -25.646  0.00  0.00    -0.471 OA
ATOM     16  C   UNL     1      33.038 -14.874 -26.933  0.00  0.00    +0.252 C 
ENDBRANCH   6  15
ENDBRANCH   1   3
BRANCH   1  17
ATOM     17  C   UNL     1      34.703 -19.065 -22.639  0.00  0.00    -0.087 C 
ATOM     18  C   UNL     1      34.405 -19.764 -21.708  0.00  0.00    -0.076 C 
BRANCH  18  23
ATOM     19  N   UNL     1      34.717 -22.063 -18.811  0.00  0.00    -0.336 NA
ATOM     20  N   UNL     1      32.383 -21.582 -19.173  0.00  0.00    -0.317 NA
ATOM     21  N   UNL     1      31.708 -20.148 -20.928  0.00  0.00    -0.334 N 
ATOM     22  N   UNL     1      33.066 -23.003 -17.434  0.00  0.00    -0.283 N 
ATOM     23  C   UNL     1      34.051 -20.601 -20.603  0.00  0.00    +0.179 C 
ATOM     24  C   UNL     1      35.005 -21.264 -19.860  0.00  0.00    +0.120 C 
ATOM     25  C   UNL     1      32.743 -20.799 -20.210  0.00  0.00    +0.186 C 
ATOM     26  C   UNL     1      36.459 -21.135 -20.183  0.00  0.00    +0.064 C 
ATOM     27  C   UNL     1      33.405 -22.175 -18.526  0.00  0.00    +0.196 C 
ATOM     28  H   UNL     1      30.769 -20.277 -20.662  0.00  0.00    +0.144 HD
ATOM     29  H   UNL     1      31.929 -19.568 -21.692  0.00  0.00    +0.144 HD
ATOM     30  H   UNL     1      33.773 -23.461 -16.926  0.00  0.00    +0.156 HD
ATOM     31  H   UNL     1      32.121 -23.121 -17.180  0.00  0.00    +0.156 HD
ENDBRANCH  18  23
ENDBRANCH   1  17
TORSDOF 5
ENDMDL
MODEL 4
REMARK VINA RESULT:     -10.8      3.755      6.323
REMARK  Name = 25195365
REMARK  5 active torsions:
REMARK  status: ('A' for Active; 'I' for Inactive)
REMARK    1  A    between atoms: C_1  and  C_3
REMARK    2  A    between atoms: C_1  and  C_17
REMARK    3  A    between atoms: C_4  and  C_9
REMARK    4  A    between atoms: C_6  and  O_15
REMARK    5  A    between atoms: C_18  and  C_23
REMARK                            x       y       z     vdW  Elec       q    Type
REMARK                         _______ _______ _______ _____ _____    ______ ____
ROOT
ATOM      1  C   UNL     1      36.247 -18.424 -21.777  0.00  0.00    +0.086 C 
ATOM      2  C   UNL     1      37.556 -19.024 -22.324  0.00  0.00    +0.019 C 
ENDROOT
BRANCH   1   3
ATOM      3  C   UNL     1      35.367 -17.880 -22.851  0.00  0.00    -0.007 C 
ATOM      4  C   UNL     1      33.720 -16.864 -24.861  0.00  0.00    +0.034 C 
ATOM      5  C   UNL     1      34.972 -16.542 -22.820  0.00  0.00    +0.034 C 
ATOM      6  C   UNL     1      34.149 -16.034 -23.825  0.00  0.00    +0.138 C 
ATOM      7  C   UNL     1      34.937 -18.709 -23.887  0.00  0.00    -0.003 C 
ATOM      8  C   UNL     1      34.115 -18.202 -24.892  0.00  0.00    +0.003 C 
BRANCH   4   9
ATOM      9  C   UNL     1      32.865 -16.358 -25.913  0.00  0.00    +0.003 C 
ATOM     10  C   UNL     1      31.746 -17.087 -26.314  0.00  0.00    +0.000 C 
ATOM     11  C   UNL     1      33.160 -15.140 -26.526  0.00  0.00    +0.000 C 
ATOM     12  C   UNL     1      30.921 -16.599 -27.327  0.00  0.00    +0.000 C 
ATOM     13  C   UNL     1      32.335 -14.652 -27.540  0.00  0.00    +0.000 C 
ATOM     14  C   UNL     1      31.216 -15.382 -27.940  0.00  0.00    +0.000 C 
ENDBRANCH   4   9
BRANCH   6  15
ATOM     15  O   UNL     1      33.780 -14.723 -23.771  0.00  0.00    -0.471 OA
ATOM     16  C   UNL     1      34.176 -13.986 -22.616  0.00  0.00    +0.252 C 
ENDBRANCH   6  15
ENDBRANCH   1   3
BRANCH   1  17
ATOM     17  C   UNL     1      35.552 -19.433 -20.936  0.00  0.00    -0.087 C 
ATOM     18  C   UNL     1      34.986 -20.232 -20.241  0.00  0.00    -0.076 C 
BRANCH  18  23
ATOM     19  N   UNL     1      34.381 -22.825 -17.654  0.00  0.00    -0.336 NA
ATOM     20  N   UNL     1      32.289 -22.299 -18.731  0.00  0.00    -0.317 NA
ATOM     21  N   UNL     1      32.196 -20.686 -20.458  0.00  0.00    -0.334 N 
ATOM     22  N   UNL     1      32.395 -23.898 -17.015  0.00  0.00    -0.283 N 
ATOM     23  C   UNL     1      34.308 -21.179 -19.410  0.00  0.00    +0.179 C 
ATOM     24  C   UNL     1      34.978 -21.921 -18.459  0.00  0.00    +0.120 C 
ATOM     25  C   UNL     1      32.952 -21.412 -19.502  0.00  0.00    +0.186 C 
ATOM     26  C   UNL     1      36.452 -21.764 -18.259  0.00  0.00    +0.064 C 
ATOM     27  C   UNL     1      33.054 -22.961 -17.841  0.00  0.00    +0.196 C 
ATOM     28  H   UNL     1      31.227 -20.839 -20.538  0.00  0.00    +0.144 HD
ATOM     29  H   UNL     1      32.642 -20.029 -21.040  0.00  0.00    +0.144 HD
ATOM     30  H   UNL     1      32.904 -24.409 -16.347  0.00  0.00    +0.156 HD
ATOM     31  H   UNL     1      31.424 -24.038 -17.108  0.00  0.00    +0.156 HD
ENDBRANCH  18  23
ENDBRANCH   1  17
TORSDOF 5
ENDMDL
MODEL 5
REMARK VINA RESULT:     -10.7      5.429      8.804
REMARK  Name = 25195365
REMARK  5 active torsions:
REMARK  status: ('A' for Active; 'I' for Inactive)
REMARK    1  A    between atoms: C_1  and  C_3
REMARK    2  A    between atoms: C_1  and  C_17
REMARK    3  A    between atoms: C_4  and  C_9
REMARK    4  A    between atoms: C_6  and  O_15
REMARK    5  A    between atoms: C_18  and  C_23
REMARK                            x       y       z     vdW  Elec       q    Type
REMARK                         _______ _______ _______ _____ _____    ______ ____
ROOT
ATOM      1  C   UNL     1      33.738 -17.170 -25.023  0.00  0.00    +0.086 C 
ATOM      2  C   UNL     1      32.406 -17.745 -25.542  0.00  0.00    +0.019 C 
ENDROOT
BRANCH   1   3
ATOM      3  C   UNL     1      33.669 -15.705 -24.752  0.00  0.00    -0.007 C 
ATOM      4  C   UNL     1      33.540 -12.966 -24.242  0.00  0.00    +0.034 C 
ATOM      5  C   UNL     1      33.107 -14.846 -25.696  0.00  0.00    +0.034 C 
ATOM      6  C   UNL     1      33.043 -13.476 -25.442  0.00  0.00    +0.138 C 
ATOM      7  C   UNL     1      34.166 -15.194 -23.553  0.00  0.00    -0.003 C 
ATOM      8  C   UNL     1      34.101 -13.825 -23.298  0.00  0.00    +0.003 C 
BRANCH   4   9
ATOM      9  C   UNL     1      33.483 -11.548 -23.959  0.00  0.00    +0.003 C 
ATOM     10  C   UNL     1      32.424 -11.027 -23.215  0.00  0.00    +0.000 C 
ATOM     11  C   UNL     1      34.489 -10.702 -24.428  0.00  0.00    +0.000 C 
ATOM     12  C   UNL     1      32.370  -9.660 -22.941  0.00  0.00    +0.000 C 
ATOM     13  C   UNL     1      34.434  -9.335 -24.154  0.00  0.00    +0.000 C 
ATOM     14  C   UNL     1      33.375  -8.815 -23.410  0.00  0.00    +0.000 C 
ENDBRANCH   4   9
BRANCH   6  15
ATOM     15  O   UNL     1      32.488 -12.659 -26.382  0.00  0.00    -0.471 OA
ATOM     16  C   UNL     1      33.119 -12.620 -27.660  0.00  0.00    +0.252 C 
ENDBRANCH   6  15
ENDBRANCH   1   3
BRANCH   1  17
ATOM     17  C   UNL     1      34.184 -17.943 -23.835  0.00  0.00    -0.087 C 
ATOM     18  C   UNL     1      34.552 -18.548 -22.865  0.00  0.00    -0.076 C 
BRANCH  18  23
ATOM     19  N   UNL     1      34.475 -20.644 -19.803  0.00  0.00    -0.336 NA
ATOM     20  N   UNL     1      36.751 -19.976 -20.229  0.00  0.00    -0.317 NA
ATOM     21  N   UNL     1      37.278 -18.619 -22.093  0.00  0.00    -0.334 N 
ATOM     22  N   UNL     1      36.215 -21.322 -18.382  0.00  0.00    -0.283 N 
ATOM     23  C   UNL     1      34.990 -19.263 -21.706  0.00  0.00    +0.179 C 
ATOM     24  C   UNL     1      34.107 -19.956 -20.904  0.00  0.00    +0.120 C 
ATOM     25  C   UNL     1      36.312 -19.309 -21.316  0.00  0.00    +0.186 C 
ATOM     26  C   UNL     1      32.645 -19.986 -21.216  0.00  0.00    +0.064 C 
ATOM     27  C   UNL     1      35.793 -20.612 -19.528  0.00  0.00    +0.196 C 
ATOM     28  H   UNL     1      38.227 -18.640 -21.830  0.00  0.00    +0.144 HD
ATOM     29  H   UNL     1      36.999 -18.120 -22.894  0.00  0.00    +0.144 HD
ATOM     30  H   UNL     1      35.557 -21.806 -17.833  0.00  0.00    +0.156 HD
ATOM     31  H   UNL     1      37.168 -21.334 -18.134  0.00  0.00    +0.156 HD
ENDBRANCH  18  23
ENDBRANCH   1  17
TORSDOF 5
ENDMDL
MODEL 6
REMARK VINA RESULT:     -10.6      4.751      8.722
REMARK  Name = 25195365
REMARK  5 active torsions:
REMARK  status: ('A' for Active; 'I' for Inactive)
REMARK    1  A    between atoms: C_1  and  C_3
REMARK    2  A    between atoms: C_1  and  C_17
REMARK    3  A    between atoms: C_4  and  C_9
REMARK    4  A    between atoms: C_6  and  O_15
REMARK    5  A    between atoms: C_18  and  C_23
REMARK                            x       y       z     vdW  Elec       q    Type
REMARK                         _______ _______ _______ _____ _____    ______ ____
ROOT
ATOM      1  C   UNL     1      35.916 -22.042 -18.126  0.00  0.00    +0.086 C 
ATOM      2  C   UNL     1      36.839 -21.332 -17.118  0.00  0.00    +0.019 C 
ENDROOT
BRANCH   1   3
ATOM      3  C   UNL     1      34.645 -22.520 -17.511  0.00  0.00    -0.007 C 
ATOM      4  C   UNL     1      32.265 -23.412 -16.361  0.00  0.00    +0.034 C 
ATOM      5  C   UNL     1      34.620 -22.907 -16.171  0.00  0.00    +0.034 C 
ATOM      6  C   UNL     1      33.430 -23.354 -15.596  0.00  0.00    +0.138 C 
ATOM      7  C   UNL     1      33.480 -22.579 -18.275  0.00  0.00    -0.003 C 
ATOM      8  C   UNL     1      32.290 -23.025 -17.701  0.00  0.00    +0.003 C 
BRANCH   4   9
ATOM      9  C   UNL     1      31.021 -23.873 -15.784  0.00  0.00    +0.003 C 
ATOM     10  C   UNL     1      29.817 -23.266 -16.146  0.00  0.00    +0.000 C 
ATOM     11  C   UNL     1      31.023 -24.924 -14.867  0.00  0.00    +0.000 C 
ATOM     12  C   UNL     1      28.618 -23.711 -15.591  0.00  0.00    +0.000 C 
ATOM     13  C   UNL     1      29.823 -25.368 -14.312  0.00  0.00    +0.000 C 
ATOM     14  C   UNL     1      28.621 -24.762 -14.674  0.00  0.00    +0.000 C 
ENDBRANCH   4   9
BRANCH   6  15
ATOM     15  O   UNL     1      33.434 -23.725 -14.284  0.00  0.00    -0.471 OA
ATOM     16  C   UNL     1      34.621 -24.343 -13.790  0.00  0.00    +0.252 C 
ENDBRANCH   6  15
ENDBRANCH   1   3
BRANCH   1  17
ATOM     17  C   UNL     1      35.678 -21.153 -19.293  0.00  0.00    -0.087 C 
ATOM     18  C   UNL     1      35.463 -20.433 -20.231  0.00  0.00    -0.076 C 
BRANCH  18  23
ATOM     19  N   UNL     1      33.628 -18.557 -22.855  0.00  0.00    -0.336 NA
ATOM     20  N   UNL     1      35.984 -18.094 -23.073  0.00  0.00    -0.317 NA
ATOM     21  N   UNL     1      37.546 -19.083 -21.599  0.00  0.00    -0.334 N 
ATOM     22  N   UNL     1      34.423 -17.118 -24.530  0.00  0.00    -0.283 N 
ATOM     23  C   UNL     1      35.202 -19.574 -21.344  0.00  0.00    +0.179 C 
ATOM     24  C   UNL     1      33.922 -19.358 -21.810  0.00  0.00    +0.120 C 
ATOM     25  C   UNL     1      36.203 -18.909 -22.021  0.00  0.00    +0.186 C 
ATOM     26  C   UNL     1      32.747 -20.021 -21.164  0.00  0.00    +0.064 C 
ATOM     27  C   UNL     1      34.692 -17.965 -23.431  0.00  0.00    +0.196 C 
ATOM     28  H   UNL     1      38.274 -18.617 -22.069  0.00  0.00    +0.144 HD
ATOM     29  H   UNL     1      37.749 -19.670 -20.835  0.00  0.00    +0.144 HD
ATOM     30  H   UNL     1      33.497 -16.987 -24.834  0.00  0.00    +0.156 HD
ATOM     31  H   UNL     1      35.163 -16.658 -24.989  0.00  0.00    +0.156 HD
ENDBRANCH  18  23
ENDBRANCH   1  17
TORSDOF 5
ENDMDL
MODEL 7
REMARK VINA RESULT:     -10.4      4.527      7.530
REMARK  Name = 25195365
REMARK  5 active torsions:
REMARK  status: ('A' for Active; 'I' for Inactive)
REMARK    1  A    between atoms: C_1  and  C_3
REMARK    2  A    between atoms: C_1  and  C_17
REMARK    3  A    between atoms: C_4  and  C_9
REMARK    4  A    between atoms: C_6  and  O_15
REMARK    5  A    between atoms: C_18  and  C_23
REMARK                            x       y       z     vdW  Elec       q    Type
REMARK                         _______ _______ _______ _____ _____    ______ ____
ROOT
ATOM      1  C   UNL     1      34.562 -17.982 -24.453  0.00  0.00    +0.086 C 
ATOM      2  C   UNL     1      33.763 -18.611 -25.610  0.00  0.00    +0.019 C 
ENDROOT
BRANCH   1   3
ATOM      3  C   UNL     1      34.198 -16.557 -24.207  0.00  0.00    -0.007 C 
ATOM      4  C   UNL     1      33.517 -13.891 -23.748  0.00  0.00    +0.034 C 
ATOM      5  C   UNL     1      34.511 -15.958 -22.987  0.00  0.00    +0.034 C 
ATOM      6  C   UNL     1      34.170 -14.624 -22.757  0.00  0.00    +0.138 C 
ATOM      7  C   UNL     1      33.545 -15.823 -25.197  0.00  0.00    -0.003 C 
ATOM      8  C   UNL     1      33.205 -14.490 -24.968  0.00  0.00    +0.003 C 
BRANCH   4   9
ATOM      9  C   UNL     1      33.154 -12.507 -23.530  0.00  0.00    +0.003 C 
ATOM     10  C   UNL     1      32.220 -12.178 -22.547  0.00  0.00    +0.000 C 
ATOM     11  C   UNL     1      33.739 -11.502 -24.301  0.00  0.00    +0.000 C 
ATOM     12  C   UNL     1      31.871 -10.844 -22.337  0.00  0.00    +0.000 C 
ATOM     13  C   UNL     1      33.388 -10.169 -24.090  0.00  0.00    +0.000 C 
ATOM     14  C   UNL     1      32.455  -9.840 -23.108  0.00  0.00    +0.000 C 
ENDBRANCH   4   9
BRANCH   6  15
ATOM     15  O   UNL     1      34.488 -14.063 -21.556  0.00  0.00    -0.471 OA
ATOM     16  C   UNL     1      34.460 -14.918 -20.414  0.00  0.00    +0.252 C 
ENDBRANCH   6  15
ENDBRANCH   1   3
BRANCH   1  17
ATOM     17  C   UNL     1      34.414 -18.820 -23.235  0.00  0.00    -0.087 C 
ATOM     18  C   UNL     1      34.289 -19.478 -22.238  0.00  0.00    -0.076 C 
BRANCH  18  23
ATOM     19  N   UNL     1      35.126 -21.418 -19.186  0.00  0.00    -0.336 NA
ATOM     20  N   UNL     1      32.730 -21.368 -19.441  0.00  0.00    -0.317 NA
ATOM     21  N   UNL     1      31.737 -20.233 -21.263  0.00  0.00    -0.334 N 
ATOM     22  N   UNL     1      33.727 -22.490 -17.637  0.00  0.00    -0.283 N 
ATOM     23  C   UNL     1      34.135 -20.257 -21.048  0.00  0.00    +0.179 C 
ATOM     24  C   UNL     1      35.223 -20.682 -20.313  0.00  0.00    +0.120 C 
ATOM     25  C   UNL     1      32.902 -20.634 -20.560  0.00  0.00    +0.186 C 
ATOM     26  C   UNL     1      36.617 -20.342 -20.735  0.00  0.00    +0.064 C 
ATOM     27  C   UNL     1      33.868 -21.720 -18.813  0.00  0.00    +0.196 C 
ATOM     28  H   UNL     1      30.848 -20.492 -20.930  0.00  0.00    +0.144 HD
ATOM     29  H   UNL     1      31.819 -19.697 -22.085  0.00  0.00    +0.144 HD
ATOM     30  H   UNL     1      34.525 -22.775 -17.138  0.00  0.00    +0.156 HD
ATOM     31  H   UNL     1      32.830 -22.740 -17.317  0.00  0.00    +0.156 HD
ENDBRANCH  18  23
ENDBRANCH   1  17
TORSDOF 5
ENDMDL
MODEL 8
REMARK VINA RESULT:     -10.3      7.961     11.638
REMARK  Name = 25195365
REMARK  5 active torsions:
REMARK  status: ('A' for Active; 'I' for Inactive)
REMARK    1  A    between atoms: C_1  and  C_3
REMARK    2  A    between atoms: C_1  and  C_17
REMARK    3  A    between atoms: C_4  and  C_9
REMARK    4  A    between atoms: C_6  and  O_15
REMARK    5  A    between atoms: C_18  and  C_23
REMARK                            x       y       z     vdW  Elec       q    Type
REMARK                         _______ _______ _______ _____ _____    ______ ____
ROOT
ATOM      1  C   UNL     1      33.608 -12.472 -24.946  0.00  0.00    +0.086 C 
ATOM      2  C   UNL     1      32.527 -12.840 -25.980  0.00  0.00    +0.019 C 
ENDROOT
BRANCH   1   3
ATOM      3  C   UNL     1      33.227 -11.303 -24.102  0.00  0.00    -0.007 C 
ATOM      4  C   UNL     1      32.516  -9.115 -22.525  0.00  0.00    +0.034 C 
ATOM      5  C   UNL     1      32.336 -11.468 -23.042  0.00  0.00    +0.034 C 
ATOM      6  C   UNL     1      31.980 -10.374 -22.253  0.00  0.00    +0.138 C 
ATOM      7  C   UNL     1      33.761 -10.044 -24.374  0.00  0.00    -0.003 C 
ATOM      8  C   UNL     1      33.406  -8.950 -23.585  0.00  0.00    +0.003 C 
BRANCH   4   9
ATOM      9  C   UNL     1      32.159  -7.967 -21.719  0.00  0.00    +0.003 C 
ATOM     10  C   UNL     1      32.858  -7.696 -20.542  0.00  0.00    +0.000 C 
ATOM     11  C   UNL     1      31.117  -7.130 -22.120  0.00  0.00    +0.000 C 
ATOM     12  C   UNL     1      32.514  -6.589 -19.767  0.00  0.00    +0.000 C 
ATOM     13  C   UNL     1      30.773  -6.023 -21.343  0.00  0.00    +0.000 C 
ATOM     14  C   UNL     1      31.472  -5.753 -20.167  0.00  0.00    +0.000 C 
ENDBRANCH   4   9
BRANCH   6  15
ATOM     15  O   UNL     1      31.108 -10.564 -21.221  0.00  0.00    -0.471 OA
ATOM     16  C   UNL     1      31.415 -11.608 -20.299  0.00  0.00    +0.252 C 
ENDBRANCH   6  15
ENDBRANCH   1   3
BRANCH   1  17
ATOM     17  C   UNL     1      33.943 -13.669 -24.131  0.00  0.00    -0.087 C 
ATOM     18  C   UNL     1      34.233 -14.640 -23.486  0.00  0.00    -0.076 C 
BRANCH  18  23
ATOM     19  N   UNL     1      34.930 -16.837 -20.577  0.00  0.00    -0.336 NA
ATOM     20  N   UNL     1      35.256 -18.103 -22.601  0.00  0.00    -0.317 NA
ATOM     21  N   UNL     1      34.923 -17.098 -24.716  0.00  0.00    -0.334 N 
ATOM     22  N   UNL     1      35.584 -19.089 -20.497  0.00  0.00    -0.283 N 
ATOM     23  C   UNL     1      34.584 -15.795 -22.720  0.00  0.00    +0.179 C 
ATOM     24  C   UNL     1      34.605 -15.773 -21.340  0.00  0.00    +0.120 C 
ATOM     25  C   UNL     1      34.922 -17.000 -23.301  0.00  0.00    +0.186 C 
ATOM     26  C   UNL     1      34.260 -14.528 -20.586  0.00  0.00    +0.064 C 
ATOM     27  C   UNL     1      35.240 -17.953 -21.263  0.00  0.00    +0.196 C 
ATOM     28  H   UNL     1      35.161 -17.949 -25.150  0.00  0.00    +0.144 HD
ATOM     29  H   UNL     1      34.684 -16.316 -25.264  0.00  0.00    +0.144 HD
ATOM     30  H   UNL     1      35.588 -19.036 -19.514  0.00  0.00    +0.156 HD
ATOM     31  H   UNL     1      35.819 -19.933 -20.946  0.00  0.00    +0.156 HD
ENDBRANCH  18  23
ENDBRANCH   1  17
TORSDOF 5
ENDMDL
MODEL 9
REMARK VINA RESULT:     -10.3      6.893     10.684
REMARK  Name = 25195365
REMARK  5 active torsions:
REMARK  status: ('A' for Active; 'I' for Inactive)
REMARK    1  A    between atoms: C_1  and  C_3
REMARK    2  A    between atoms: C_1  and  C_17
REMARK    3  A    between atoms: C_4  and  C_9
REMARK    4  A    between atoms: C_6  and  O_15
REMARK    5  A    between atoms: C_18  and  C_23
REMARK                            x       y       z     vdW  Elec       q    Type
REMARK                         _______ _______ _______ _____ _____    ______ ____
ROOT
ATOM      1  C   UNL     1      33.135 -15.594 -26.812  0.00  0.00    +0.086 C 
ATOM      2  C   UNL     1      31.700 -16.028 -27.169  0.00  0.00    +0.019 C 
ENDROOT
BRANCH   1   3
ATOM      3  C   UNL     1      33.262 -14.122 -26.615  0.00  0.00    -0.007 C 
ATOM      4  C   UNL     1      33.501 -11.367 -26.248  0.00  0.00    +0.034 C 
ATOM      5  C   UNL     1      33.097 -13.571 -25.344  0.00  0.00    +0.034 C 
ATOM      6  C   UNL     1      33.216 -12.193 -25.161  0.00  0.00    +0.138 C 
ATOM      7  C   UNL     1      33.546 -13.295 -27.702  0.00  0.00    -0.003 C 
ATOM      8  C   UNL     1      33.666 -11.918 -27.519  0.00  0.00    +0.003 C 
BRANCH   4   9
ATOM      9  C   UNL     1      33.628  -9.935 -26.080  0.00  0.00    +0.003 C 
ATOM     10  C   UNL     1      32.502  -9.118 -26.185  0.00  0.00    +0.000 C 
ATOM     11  C   UNL     1      34.876  -9.372 -25.812  0.00  0.00    +0.000 C 
ATOM     12  C   UNL     1      32.624  -7.738 -26.022  0.00  0.00    +0.000 C 
ATOM     13  C   UNL     1      34.998  -7.992 -25.649  0.00  0.00    +0.000 C 
ATOM     14  C   UNL     1      33.872  -7.176 -25.755  0.00  0.00    +0.000 C 
ENDBRANCH   4   9
BRANCH   6  15
ATOM     15  O   UNL     1      33.052 -11.681 -23.908  0.00  0.00    -0.471 OA
ATOM     16  C   UNL     1      32.410 -12.517 -22.946  0.00  0.00    +0.252 C 
ENDBRANCH   6  15
ENDBRANCH   1   3
BRANCH   1  17
ATOM     17  C   UNL     1      33.606 -16.363 -25.631  0.00  0.00    -0.087 C 
ATOM     18  C   UNL     1      33.997 -16.966 -24.668  0.00  0.00    -0.076 C 
BRANCH  18  23
ATOM     19  N   UNL     1      35.190 -17.662 -21.223  0.00  0.00    -0.336 NA
ATOM     20  N   UNL     1      35.083 -19.738 -22.442  0.00  0.00    -0.317 NA
ATOM     21  N   UNL     1      34.370 -19.775 -24.697  0.00  0.00    -0.334 N 
ATOM     22  N   UNL     1      35.790 -19.689 -20.204  0.00  0.00    -0.283 N 
ATOM     23  C   UNL     1      34.461 -17.677 -23.517  0.00  0.00    +0.179 C 
ATOM     24  C   UNL     1      34.751 -17.032 -22.332  0.00  0.00    +0.120 C 
ATOM     25  C   UNL     1      34.647 -19.044 -23.513  0.00  0.00    +0.186 C 
ATOM     26  C   UNL     1      34.591 -15.551 -22.204  0.00  0.00    +0.064 C 
ATOM     27  C   UNL     1      35.332 -18.995 -21.346  0.00  0.00    +0.196 C 
ATOM     28  H   UNL     1      34.497 -20.751 -24.713  0.00  0.00    +0.144 HD
ATOM     29  H   UNL     1      34.049 -19.306 -25.500  0.00  0.00    +0.144 HD
ATOM     30  H   UNL     1      35.987 -19.196 -19.376  0.00  0.00    +0.156 HD
ATOM     31  H   UNL     1      35.911 -20.666 -20.237  0.00  0.00    +0.156 HD
ENDBRANCH  18  23
ENDBRANCH   1  17
TORSDOF 5
ENDMDL
