MODEL 1
REMARK VINA RESULT:     -12.6      0.000      0.000
REMARK  Name = 11224409
REMARK  8 active torsions:
REMARK  status: ('A' for Active; 'I' for Inactive)
REMARK    1  A    between atoms: C_2  and  N_10
REMARK    2  A    between atoms: C_5  and  C_20
REMARK    3  A    between atoms: C_11  and  C_14
REMARK    4  A    between atoms: C_14  and  N_16
REMARK    5  A    between atoms: C_21  and  C_26
REMARK    6  A    between atoms: C_26  and  N_27
REMARK    7  A    between atoms: N_27  and  C_30
REMARK    8  A    between atoms: C_30  and  C_34
REMARK                            x       y       z     vdW  Elec       q    Type
REMARK                         _______ _______ _______ _____ _____    ______ ____
ROOT
ATOM      1  F   UNL     1      32.621 -22.811 -18.364  0.00  0.00    -0.204 F 
ATOM      2  C   UNL     1      35.341 -23.426 -16.034  0.00  0.00    +0.059 C 
ATOM      3  C   UNL     1      34.090 -23.494 -16.647  0.00  0.00    +0.045 C 
ATOM      4  C   UNL     1      36.332 -22.598 -16.562  0.00  0.00    +0.015 C 
ATOM      5  C   UNL     1      34.820 -21.906 -18.314  0.00  0.00    +0.028 C 
ATOM      6  C   UNL     1      33.829 -22.734 -17.787  0.00  0.00    +0.141 C 
ATOM      7  C   UNL     1      36.072 -21.838 -17.703  0.00  0.00    +0.004 C 
ENDROOT
BRANCH   2  10
ATOM      8  O   UNL     1      36.052 -25.929 -13.486  0.00  0.00    -0.434 OA
ATOM      9  O   UNL     1      35.856 -26.405 -15.695  0.00  0.00    -0.226 OA
ATOM     10  N   UNL     1      35.607 -24.201 -14.870  0.00  0.00    -0.221 N 
ATOM     11  C   UNL     1      36.185 -24.741 -12.694  0.00  0.00    +0.210 C 
ATOM     12  C   UNL     1      35.558 -23.654 -13.541  0.00  0.00    +0.147 C 
ATOM     13  C   UNL     1      35.844 -25.572 -14.800  0.00  0.00    +0.409 C 
BRANCH  11  14
ATOM     14  C   UNL     1      37.662 -24.503 -12.409  0.00  0.00    +0.135 C 
BRANCH  14  16
ATOM     15  O   UNL     1      39.041 -24.273 -14.954  0.00  0.00    -0.275 OA
ATOM     16  N   UNL     1      38.479 -25.492 -13.050  0.00  0.00    -0.301 N 
ATOM     17  C   UNL     1      39.105 -25.295 -14.276  0.00  0.00    +0.223 C 
ATOM     18  C   UNL     1      39.921 -26.485 -14.706  0.00  0.00    +0.095 C 
ATOM     19  H   UNL     1      38.602 -26.357 -12.597  0.00  0.00    +0.150 HD
ENDBRANCH  14  16
ENDBRANCH  11  14
ENDBRANCH   2  10
BRANCH   5  20
ATOM     20  C   UNL     1      34.554 -21.116 -19.497  0.00  0.00    +0.002 C 
ATOM     21  C   UNL     1      34.041 -19.595 -21.778  0.00  0.00    -0.044 C 
ATOM     22  C   UNL     1      35.612 -20.618 -20.256  0.00  0.00    -0.000 C 
ATOM     23  C   UNL     1      33.238 -20.853 -19.879  0.00  0.00    -0.000 C 
ATOM     24  C   UNL     1      35.356 -19.858 -21.397  0.00  0.00    -0.006 C 
ATOM     25  C   UNL     1      32.981 -20.092 -21.019  0.00  0.00    -0.006 C 
BRANCH  21  26
ATOM     26  C   UNL     1      33.767 -18.782 -22.998  0.00  0.00    -0.054 C 
BRANCH  26  27
ATOM     27  N   UNL     1      34.970 -18.123 -23.512  0.00  0.00    +0.390 N 
ATOM     28  H   UNL     1      35.182 -18.489 -24.440  0.00  0.00    -0.083 HD
ATOM     29  H   UNL     1      35.743 -18.309 -22.874  0.00  0.00    -0.083 HD
BRANCH  27  30
ATOM     30  C   UNL     1      34.771 -16.686 -23.599  0.00  0.00    -0.031 C 
BRANCH  30  34
ATOM     31  N   UNL     1      33.216 -15.227 -24.856  0.00  0.00    -0.170 NA
ATOM     32  N   UNL     1      32.763 -15.263 -26.119  0.00  0.00    -0.157 N 
ATOM     33  N   UNL     1      33.186 -16.252 -26.924  0.00  0.00    -0.162 NA
ATOM     34  C   UNL     1      34.013 -16.299 -24.842  0.00  0.00    +0.077 C 
ATOM     35  C   UNL     1      33.995 -16.922 -26.098  0.00  0.00    +0.133 C 
ATOM     36  H   UNL     1      32.134 -14.581 -26.449  0.00  0.00    +0.197 HD
ENDBRANCH  30  34
ENDBRANCH  27  30
ENDBRANCH  26  27
ENDBRANCH  21  26
ENDBRANCH   5  20
TORSDOF 8
ENDMDL
MODEL 2
REMARK VINA RESULT:     -12.4      4.505     11.653
REMARK  Name = 11224409
REMARK  8 active torsions:
REMARK  status: ('A' for Active; 'I' for Inactive)
REMARK    1  A    between atoms: C_2  and  N_10
REMARK    2  A    between atoms: C_5  and  C_20
REMARK    3  A    between atoms: C_11  and  C_14
REMARK    4  A    between atoms: C_14  and  N_16
REMARK    5  A    between atoms: C_21  and  C_26
REMARK    6  A    between atoms: C_26  and  N_27
REMARK    7  A    between atoms: N_27  and  C_30
REMARK    8  A    between atoms: C_30  and  C_34
REMARK                            x       y       z     vdW  Elec       q    Type
REMARK                         _______ _______ _______ _____ _____    ______ ____
ROOT
ATOM      1  F   UNL     1      36.671 -21.021 -19.952  0.00  0.00    -0.204 F 
ATOM      2  C   UNL     1      34.400 -19.329 -22.229  0.00  0.00    +0.059 C 
ATOM      3  C   UNL     1      35.580 -19.788 -21.644  0.00  0.00    +0.045 C 
ATOM      4  C   UNL     1      33.167 -19.669 -21.672  0.00  0.00    +0.015 C 
ATOM      5  C   UNL     1      34.295 -20.927 -19.945  0.00  0.00    +0.028 C 
ATOM      6  C   UNL     1      35.528 -20.587 -20.502  0.00  0.00    +0.141 C 
ATOM      7  C   UNL     1      33.114 -20.469 -20.530  0.00  0.00    +0.004 C 
ENDROOT
BRANCH   2  10
ATOM      8  O   UNL     1      34.461 -17.824 -25.544  0.00  0.00    -0.434 OA
ATOM      9  O   UNL     1      34.228 -20.051 -25.179  0.00  0.00    -0.226 OA
ATOM     10  N   UNL     1      34.453 -18.513 -23.395  0.00  0.00    -0.221 N 
ATOM     11  C   UNL     1      34.396 -16.635 -24.747  0.00  0.00    +0.210 C 
ATOM     12  C   UNL     1      34.734 -17.103 -23.347  0.00  0.00    +0.147 C 
ATOM     13  C   UNL     1      34.356 -18.924 -24.722  0.00  0.00    +0.409 C 
BRANCH  11  14
ATOM     14  C   UNL     1      32.998 -16.043 -24.860  0.00  0.00    +0.135 C 
BRANCH  14  16
ATOM     15  O   UNL     1      32.842 -15.876 -27.755  0.00  0.00    -0.275 OA
ATOM     16  N   UNL     1      33.001 -14.858 -25.665  0.00  0.00    -0.301 N 
ATOM     17  C   UNL     1      32.922 -14.870 -27.054  0.00  0.00    +0.223 C 
ATOM     18  C   UNL     1      32.920 -13.486 -27.646  0.00  0.00    +0.095 C 
ATOM     19  H   UNL     1      33.062 -13.986 -25.210  0.00  0.00    +0.150 HD
ENDBRANCH  14  16
ENDBRANCH  11  14
ENDBRANCH   2  10
BRANCH   5  20
ATOM     20  C   UNL     1      34.236 -21.755 -18.760  0.00  0.00    +0.002 C 
ATOM     21  C   UNL     1      34.121 -23.350 -16.474  0.00  0.00    -0.044 C 
ATOM     22  C   UNL     1      35.352 -21.868 -17.932  0.00  0.00    -0.000 C 
ATOM     23  C   UNL     1      33.062 -22.440 -18.444  0.00  0.00    -0.000 C 
ATOM     24  C   UNL     1      35.295 -22.665 -16.788  0.00  0.00    -0.006 C 
ATOM     25  C   UNL     1      33.004 -23.237 -17.302  0.00  0.00    -0.006 C 
BRANCH  21  26
ATOM     26  C   UNL     1      34.060 -24.202 -15.251  0.00  0.00    -0.054 C 
BRANCH  26  27
ATOM     27  N   UNL     1      34.742 -23.589 -14.110  0.00  0.00    +0.390 N 
ATOM     28  H   UNL     1      34.059 -23.092 -13.538  0.00  0.00    -0.083 HD
ATOM     29  H   UNL     1      35.449 -22.942 -14.458  0.00  0.00    -0.083 HD
BRANCH  27  30
ATOM     30  C   UNL     1      35.396 -24.603 -13.298  0.00  0.00    -0.031 C 
BRANCH  30  34
ATOM     31  N   UNL     1      37.492 -24.577 -14.614  0.00  0.00    -0.170 NA
ATOM     32  N   UNL     1      38.237 -25.557 -15.147  0.00  0.00    -0.157 N 
ATOM     33  N   UNL     1      37.838 -26.829 -14.982  0.00  0.00    -0.162 NA
ATOM     34  C   UNL     1      36.512 -25.285 -14.045  0.00  0.00    +0.077 C 
ATOM     35  C   UNL     1      36.722 -26.653 -14.268  0.00  0.00    +0.133 C 
ATOM     36  H   UNL     1      39.058 -25.349 -15.650  0.00  0.00    +0.197 HD
ENDBRANCH  30  34
ENDBRANCH  27  30
ENDBRANCH  26  27
ENDBRANCH  21  26
ENDBRANCH   5  20
TORSDOF 8
ENDMDL
MODEL 3
REMARK VINA RESULT:     -12.4      4.477     11.893
REMARK  Name = 11224409
REMARK  8 active torsions:
REMARK  status: ('A' for Active; 'I' for Inactive)
REMARK    1  A    between atoms: C_2  and  N_10
REMARK    2  A    between atoms: C_5  and  C_20
REMARK    3  A    between atoms: C_11  and  C_14
REMARK    4  A    between atoms: C_14  and  N_16
REMARK    5  A    between atoms: C_21  and  C_26
REMARK    6  A    between atoms: C_26  and  N_27
REMARK    7  A    between atoms: N_27  and  C_30
REMARK    8  A    between atoms: C_30  and  C_34
REMARK                            x       y       z     vdW  Elec       q    Type
REMARK                         _______ _______ _______ _____ _____    ______ ____
ROOT
ATOM      1  F   UNL     1      32.382 -20.915 -19.883  0.00  0.00    -0.204 F 
ATOM      2  C   UNL     1      34.693 -19.285 -22.166  0.00  0.00    +0.059 C 
ATOM      3  C   UNL     1      33.502 -19.719 -21.583  0.00  0.00    +0.045 C 
ATOM      4  C   UNL     1      35.917 -19.638 -21.597  0.00  0.00    +0.015 C 
ATOM      5  C   UNL     1      34.759 -20.859 -19.863  0.00  0.00    +0.028 C 
ATOM      6  C   UNL     1      33.536 -20.506 -20.432  0.00  0.00    +0.141 C 
ATOM      7  C   UNL     1      35.951 -20.425 -20.445  0.00  0.00    +0.004 C 
ENDROOT
BRANCH   2  10
ATOM      8  O   UNL     1      34.500 -17.817 -25.492  0.00  0.00    -0.434 OA
ATOM      9  O   UNL     1      34.284 -20.038 -25.085  0.00  0.00    -0.226 OA
ATOM     10  N   UNL     1      34.659 -18.483 -23.341  0.00  0.00    -0.221 N 
ATOM     11  C   UNL     1      34.505 -16.618 -24.705  0.00  0.00    +0.210 C 
ATOM     12  C   UNL     1      34.951 -17.074 -23.332  0.00  0.00    +0.147 C 
ATOM     13  C   UNL     1      34.455 -18.907 -24.652  0.00  0.00    +0.409 C 
BRANCH  11  14
ATOM     14  C   UNL     1      33.106 -16.019 -24.714  0.00  0.00    +0.135 C 
BRANCH  14  16
ATOM     15  O   UNL     1      32.834 -15.941 -27.604  0.00  0.00    -0.275 OA
ATOM     16  N   UNL     1      33.045 -14.858 -25.552  0.00  0.00    -0.301 N 
ATOM     17  C   UNL     1      32.913 -14.913 -26.935  0.00  0.00    +0.223 C 
ATOM     18  C   UNL     1      32.849 -13.548 -27.566  0.00  0.00    +0.095 C 
ATOM     19  H   UNL     1      33.100 -13.972 -25.124  0.00  0.00    +0.150 HD
ENDBRANCH  14  16
ENDBRANCH  11  14
ENDBRANCH   2  10
BRANCH   5  20
ATOM     20  C   UNL     1      34.799 -21.675 -18.669  0.00  0.00    +0.002 C 
ATOM     21  C   UNL     1      34.875 -23.250 -16.368  0.00  0.00    -0.044 C 
ATOM     22  C   UNL     1      33.690 -22.441 -18.311  0.00  0.00    -0.000 C 
ATOM     23  C   UNL     1      35.946 -21.696 -17.876  0.00  0.00    -0.000 C 
ATOM     24  C   UNL     1      33.728 -23.230 -17.161  0.00  0.00    -0.006 C 
ATOM     25  C   UNL     1      35.985 -22.483 -16.725  0.00  0.00    -0.006 C 
BRANCH  21  26
ATOM     26  C   UNL     1      34.916 -24.093 -15.138  0.00  0.00    -0.054 C 
BRANCH  26  27
ATOM     27  N   UNL     1      36.234 -24.692 -14.915  0.00  0.00    +0.390 N 
ATOM     28  H   UNL     1      36.927 -23.950 -14.819  0.00  0.00    -0.083 HD
ATOM     29  H   UNL     1      36.462 -25.287 -15.711  0.00  0.00    -0.083 HD
BRANCH  27  30
ATOM     30  C   UNL     1      36.231 -25.504 -13.709  0.00  0.00    -0.031 C 
BRANCH  30  34
ATOM     31  N   UNL     1      35.793 -25.038 -11.318  0.00  0.00    -0.170 NA
ATOM     32  N   UNL     1      36.156 -24.028 -10.512  0.00  0.00    -0.157 N 
ATOM     33  N   UNL     1      36.902 -23.035 -11.024  0.00  0.00    -0.162 NA
ATOM     34  C   UNL     1      36.363 -24.662 -12.467  0.00  0.00    +0.077 C 
ATOM     35  C   UNL     1      37.036 -23.446 -12.288  0.00  0.00    +0.133 C 
ATOM     36  H   UNL     1      35.881 -24.015  -9.567  0.00  0.00    +0.197 HD
ENDBRANCH  30  34
ENDBRANCH  27  30
ENDBRANCH  26  27
ENDBRANCH  21  26
ENDBRANCH   5  20
TORSDOF 8
ENDMDL
MODEL 4
REMARK VINA RESULT:     -12.1      3.122      5.022
REMARK  Name = 11224409
REMARK  8 active torsions:
REMARK  status: ('A' for Active; 'I' for Inactive)
REMARK    1  A    between atoms: C_2  and  N_10
REMARK    2  A    between atoms: C_5  and  C_20
REMARK    3  A    between atoms: C_11  and  C_14
REMARK    4  A    between atoms: C_14  and  N_16
REMARK    5  A    between atoms: C_21  and  C_26
REMARK    6  A    between atoms: C_26  and  N_27
REMARK    7  A    between atoms: N_27  and  C_30
REMARK    8  A    between atoms: C_30  and  C_34
REMARK                            x       y       z     vdW  Elec       q    Type
REMARK                         _______ _______ _______ _____ _____    ______ ____
ROOT
ATOM      1  F   UNL     1      36.632 -19.672 -21.182  0.00  0.00    -0.204 F 
ATOM      2  C   UNL     1      34.322 -21.518 -19.070  0.00  0.00    +0.059 C 
ATOM      3  C   UNL     1      35.513 -21.020 -19.600  0.00  0.00    +0.045 C 
ATOM      4  C   UNL     1      33.100 -21.139 -19.623  0.00  0.00    +0.015 C 
ATOM      5  C   UNL     1      34.257 -19.763 -21.237  0.00  0.00    +0.028 C 
ATOM      6  C   UNL     1      35.480 -20.142 -20.684  0.00  0.00    +0.141 C 
ATOM      7  C   UNL     1      33.066 -20.261 -20.707  0.00  0.00    +0.004 C 
ENDROOT
BRANCH   2  10
ATOM      8  O   UNL     1      35.005 -23.522 -16.107  0.00  0.00    -0.434 OA
ATOM      9  O   UNL     1      36.411 -21.927 -16.897  0.00  0.00    -0.226 OA
ATOM     10  N   UNL     1      34.356 -22.414 -17.964  0.00  0.00    -0.221 N 
ATOM     11  C   UNL     1      33.645 -23.910 -16.346  0.00  0.00    +0.210 C 
ATOM     12  C   UNL     1      33.362 -23.432 -17.755  0.00  0.00    +0.147 C 
ATOM     13  C   UNL     1      35.354 -22.533 -16.999  0.00  0.00    +0.409 C 
BRANCH  11  14
ATOM     14  C   UNL     1      32.755 -23.253 -15.300  0.00  0.00    +0.135 C 
BRANCH  14  16
ATOM     15  O   UNL     1      31.561 -24.984 -13.297  0.00  0.00    -0.275 OA
ATOM     16  N   UNL     1      31.438 -23.819 -15.311  0.00  0.00    -0.301 N 
ATOM     17  C   UNL     1      30.946 -24.643 -14.303  0.00  0.00    +0.223 C 
ATOM     18  C   UNL     1      29.527 -25.077 -14.553  0.00  0.00    +0.095 C 
ATOM     19  H   UNL     1      30.851 -23.614 -16.074  0.00  0.00    +0.150 HD
ENDBRANCH  14  16
ENDBRANCH  11  14
ENDBRANCH   2  10
BRANCH   5  20
ATOM     20  C   UNL     1      34.218 -18.853 -22.362  0.00  0.00    +0.002 C 
ATOM     21  C   UNL     1      34.140 -17.098 -24.528  0.00  0.00    -0.044 C 
ATOM     22  C   UNL     1      33.776 -19.301 -23.606  0.00  0.00    -0.000 C 
ATOM     23  C   UNL     1      34.621 -17.527 -22.201  0.00  0.00    -0.000 C 
ATOM     24  C   UNL     1      33.736 -18.423 -24.690  0.00  0.00    -0.006 C 
ATOM     25  C   UNL     1      34.583 -16.650 -23.284  0.00  0.00    -0.006 C 
BRANCH  21  26
ATOM     26  C   UNL     1      34.098 -16.160 -25.687  0.00  0.00    -0.054 C 
BRANCH  26  27
ATOM     27  N   UNL     1      32.729 -15.807 -26.069  0.00  0.00    +0.390 N 
ATOM     28  H   UNL     1      32.320 -15.219 -25.343  0.00  0.00    -0.083 HD
ATOM     29  H   UNL     1      32.188 -16.663 -26.178  0.00  0.00    -0.083 HD
BRANCH  27  30
ATOM     30  C   UNL     1      32.719 -15.084 -27.331  0.00  0.00    -0.031 C 
BRANCH  30  34
ATOM     31  N   UNL     1      33.971 -13.078 -28.061  0.00  0.00    -0.170 NA
ATOM     32  N   UNL     1      34.108 -11.853 -27.528  0.00  0.00    -0.157 N 
ATOM     33  N   UNL     1      33.476 -11.582 -26.375  0.00  0.00    -0.162 NA
ATOM     34  C   UNL     1      33.169 -13.656 -27.163  0.00  0.00    +0.077 C 
ATOM     35  C   UNL     1      32.869 -12.748 -26.138  0.00  0.00    +0.133 C 
ATOM     36  H   UNL     1      34.660 -11.170 -27.973  0.00  0.00    +0.197 HD
ENDBRANCH  30  34
ENDBRANCH  27  30
ENDBRANCH  26  27
ENDBRANCH  21  26
ENDBRANCH   5  20
TORSDOF 8
ENDMDL
MODEL 5
REMARK VINA RESULT:     -11.8      4.756     11.927
REMARK  Name = 11224409
REMARK  8 active torsions:
REMARK  status: ('A' for Active; 'I' for Inactive)
REMARK    1  A    between atoms: C_2  and  N_10
REMARK    2  A    between atoms: C_5  and  C_20
REMARK    3  A    between atoms: C_11  and  C_14
REMARK    4  A    between atoms: C_14  and  N_16
REMARK    5  A    between atoms: C_21  and  C_26
REMARK    6  A    between atoms: C_26  and  N_27
REMARK    7  A    between atoms: N_27  and  C_30
REMARK    8  A    between atoms: C_30  and  C_34
REMARK                            x       y       z     vdW  Elec       q    Type
REMARK                         _______ _______ _______ _____ _____    ______ ____
ROOT
ATOM      1  F   UNL     1      37.154 -19.964 -20.632  0.00  0.00    -0.204 F 
ATOM      2  C   UNL     1      34.628 -18.811 -22.977  0.00  0.00    +0.059 C 
ATOM      3  C   UNL     1      35.867 -19.015 -22.369  0.00  0.00    +0.045 C 
ATOM      4  C   UNL     1      33.478 -19.372 -22.421  0.00  0.00    +0.015 C 
ATOM      5  C   UNL     1      34.806 -20.338 -20.649  0.00  0.00    +0.028 C 
ATOM      6  C   UNL     1      35.956 -19.778 -21.205  0.00  0.00    +0.141 C 
ATOM      7  C   UNL     1      33.567 -20.136 -21.257  0.00  0.00    +0.004 C 
ENDROOT
BRANCH   2  10
ATOM      8  O   UNL     1      34.220 -17.399 -26.308  0.00  0.00    -0.434 OA
ATOM      9  O   UNL     1      33.887 -19.590 -25.823  0.00  0.00    -0.226 OA
ATOM     10  N   UNL     1      34.538 -18.032 -24.165  0.00  0.00    -0.221 N 
ATOM     11  C   UNL     1      34.386 -16.189 -25.557  0.00  0.00    +0.210 C 
ATOM     12  C   UNL     1      34.928 -16.649 -24.221  0.00  0.00    +0.147 C 
ATOM     13  C   UNL     1      34.178 -18.466 -25.438  0.00  0.00    +0.409 C 
BRANCH  11  14
ATOM     14  C   UNL     1      33.038 -15.489 -25.449  0.00  0.00    +0.135 C 
BRANCH  14  16
ATOM     15  O   UNL     1      32.990 -12.598 -25.175  0.00  0.00    -0.275 OA
ATOM     16  N   UNL     1      32.944 -14.730 -24.237  0.00  0.00    -0.301 N 
ATOM     17  C   UNL     1      32.928 -13.340 -24.198  0.00  0.00    +0.223 C 
ATOM     18  C   UNL     1      32.797 -12.801 -22.799  0.00  0.00    +0.095 C 
ATOM     19  H   UNL     1      32.888 -15.221 -23.384  0.00  0.00    +0.150 HD
ENDBRANCH  14  16
ENDBRANCH  11  14
ENDBRANCH   2  10
BRANCH   5  20
ATOM     20  C   UNL     1      34.894 -21.131 -19.441  0.00  0.00    +0.002 C 
ATOM     21  C   UNL     1      35.063 -22.661 -17.115  0.00  0.00    -0.044 C 
ATOM     22  C   UNL     1      33.786 -21.856 -19.001  0.00  0.00    -0.000 C 
ATOM     23  C   UNL     1      36.086 -21.172 -18.718  0.00  0.00    -0.000 C 
ATOM     24  C   UNL     1      33.871 -22.621 -17.838  0.00  0.00    -0.006 C 
ATOM     25  C   UNL     1      36.171 -21.936 -17.555  0.00  0.00    -0.006 C 
BRANCH  21  26
ATOM     26  C   UNL     1      35.153 -23.480 -15.872  0.00  0.00    -0.054 C 
BRANCH  26  27
ATOM     27  N   UNL     1      36.528 -23.877 -15.563  0.00  0.00    +0.390 N 
ATOM     28  H   UNL     1      36.993 -23.117 -15.068  0.00  0.00    -0.083 HD
ATOM     29  H   UNL     1      37.014 -24.080 -16.436  0.00  0.00    -0.083 HD
BRANCH  27  30
ATOM     30  C   UNL     1      36.543 -25.070 -14.732  0.00  0.00    -0.031 C 
BRANCH  30  34
ATOM     31  N   UNL     1      37.949 -23.997 -13.000  0.00  0.00    -0.170 NA
ATOM     32  N   UNL     1      37.873 -23.975 -11.660  0.00  0.00    -0.157 N 
ATOM     33  N   UNL     1      36.869 -24.640 -11.063  0.00  0.00    -0.162 NA
ATOM     34  C   UNL     1      36.887 -24.751 -13.301  0.00  0.00    +0.077 C 
ATOM     35  C   UNL     1      36.232 -25.142 -12.125  0.00  0.00    +0.133 C 
ATOM     36  H   UNL     1      38.538 -23.483 -11.126  0.00  0.00    +0.197 HD
ENDBRANCH  30  34
ENDBRANCH  27  30
ENDBRANCH  26  27
ENDBRANCH  21  26
ENDBRANCH   5  20
TORSDOF 8
ENDMDL
MODEL 6
REMARK VINA RESULT:     -11.6      5.498     12.497
REMARK  Name = 11224409
REMARK  8 active torsions:
REMARK  status: ('A' for Active; 'I' for Inactive)
REMARK    1  A    between atoms: C_2  and  N_10
REMARK    2  A    between atoms: C_5  and  C_20
REMARK    3  A    between atoms: C_11  and  C_14
REMARK    4  A    between atoms: C_14  and  N_16
REMARK    5  A    between atoms: C_21  and  C_26
REMARK    6  A    between atoms: C_26  and  N_27
REMARK    7  A    between atoms: N_27  and  C_30
REMARK    8  A    between atoms: C_30  and  C_34
REMARK                            x       y       z     vdW  Elec       q    Type
REMARK                         _______ _______ _______ _____ _____    ______ ____
ROOT
ATOM      1  F   UNL     1      34.952 -16.743 -21.630  0.00  0.00    -0.204 F 
ATOM      2  C   UNL     1      33.584 -17.010 -24.987  0.00  0.00    +0.059 C 
ATOM      3  C   UNL     1      34.137 -16.463 -23.828  0.00  0.00    +0.045 C 
ATOM      4  C   UNL     1      33.316 -18.377 -25.053  0.00  0.00    +0.015 C 
ATOM      5  C   UNL     1      34.152 -18.651 -22.804  0.00  0.00    +0.028 C 
ATOM      6  C   UNL     1      34.421 -17.284 -22.737  0.00  0.00    +0.141 C 
ATOM      7  C   UNL     1      33.600 -19.198 -23.962  0.00  0.00    +0.004 C 
ENDROOT
BRANCH   2  10
ATOM      8  O   UNL     1      32.395 -15.344 -27.999  0.00  0.00    -0.434 OA
ATOM      9  O   UNL     1      31.605 -17.343 -27.273  0.00  0.00    -0.226 OA
ATOM     10  N   UNL     1      33.295 -16.172 -26.101  0.00  0.00    -0.221 N 
ATOM     11  C   UNL     1      33.206 -14.296 -27.454  0.00  0.00    +0.210 C 
ATOM     12  C   UNL     1      34.046 -14.982 -26.397  0.00  0.00    +0.147 C 
ATOM     13  C   UNL     1      32.358 -16.394 -27.108  0.00  0.00    +0.409 C 
BRANCH  11  14
ATOM     14  C   UNL     1      32.297 -13.214 -26.888  0.00  0.00    +0.135 C 
BRANCH  14  16
ATOM     15  O   UNL     1      32.670 -12.691 -24.056  0.00  0.00    -0.275 OA
ATOM     16  N   UNL     1      33.058 -12.157 -26.290  0.00  0.00    -0.301 N 
ATOM     17  C   UNL     1      33.183 -11.981 -24.916  0.00  0.00    +0.223 C 
ATOM     18  C   UNL     1      34.058 -10.809 -24.560  0.00  0.00    +0.095 C 
ATOM     19  H   UNL     1      33.517 -11.520 -26.885  0.00  0.00    +0.150 HD
ENDBRANCH  14  16
ENDBRANCH  11  14
ENDBRANCH   2  10
BRANCH   5  20
ATOM     20  C   UNL     1      34.445 -19.506 -21.673  0.00  0.00    +0.002 C 
ATOM     21  C   UNL     1      35.009 -21.156 -19.496  0.00  0.00    -0.044 C 
ATOM     22  C   UNL     1      33.404 -20.099 -20.960  0.00  0.00    -0.000 C 
ATOM     23  C   UNL     1      35.769 -19.739 -21.298  0.00  0.00    -0.000 C 
ATOM     24  C   UNL     1      33.685 -20.925 -19.872  0.00  0.00    -0.006 C 
ATOM     25  C   UNL     1      36.051 -20.563 -20.210  0.00  0.00    -0.006 C 
BRANCH  21  26
ATOM     26  C   UNL     1      35.309 -22.039 -18.333  0.00  0.00    -0.054 C 
BRANCH  26  27
ATOM     27  N   UNL     1      36.595 -21.722 -17.709  0.00  0.00    +0.390 N 
ATOM     28  H   UNL     1      36.872 -20.777 -17.975  0.00  0.00    -0.083 HD
ATOM     29  H   UNL     1      37.290 -22.397 -18.028  0.00  0.00    -0.083 HD
BRANCH  27  30
ATOM     30  C   UNL     1      36.497 -21.801 -16.260  0.00  0.00    -0.031 C 
BRANCH  30  34
ATOM     31  N   UNL     1      38.148 -23.555 -15.692  0.00  0.00    -0.170 NA
ATOM     32  N   UNL     1      38.016 -24.793 -15.190  0.00  0.00    -0.157 N 
ATOM     33  N   UNL     1      36.781 -25.245 -14.915  0.00  0.00    -0.162 NA
ATOM     34  C   UNL     1      36.870 -23.167 -15.747  0.00  0.00    +0.077 C 
ATOM     35  C   UNL     1      36.040 -24.193 -15.276  0.00  0.00    +0.133 C 
ATOM     36  H   UNL     1      38.806 -25.357 -15.027  0.00  0.00    +0.197 HD
ENDBRANCH  30  34
ENDBRANCH  27  30
ENDBRANCH  26  27
ENDBRANCH  21  26
ENDBRANCH   5  20
TORSDOF 8
ENDMDL
MODEL 7
REMARK VINA RESULT:     -11.5      5.051     11.730
REMARK  Name = 11224409
REMARK  8 active torsions:
REMARK  status: ('A' for Active; 'I' for Inactive)
REMARK    1  A    between atoms: C_2  and  N_10
REMARK    2  A    between atoms: C_5  and  C_20
REMARK    3  A    between atoms: C_11  and  C_14
REMARK    4  A    between atoms: C_14  and  N_16
REMARK    5  A    between atoms: C_21  and  C_26
REMARK    6  A    between atoms: C_26  and  N_27
REMARK    7  A    between atoms: N_27  and  C_30
REMARK    8  A    between atoms: C_30  and  C_34
REMARK                            x       y       z     vdW  Elec       q    Type
REMARK                         _______ _______ _______ _____ _____    ______ ____
ROOT
ATOM      1  F   UNL     1      37.196 -20.105 -20.434  0.00  0.00    -0.204 F 
ATOM      2  C   UNL     1      34.630 -18.952 -22.736  0.00  0.00    +0.059 C 
ATOM      3  C   UNL     1      35.880 -19.158 -22.150  0.00  0.00    +0.045 C 
ATOM      4  C   UNL     1      33.489 -19.507 -22.156  0.00  0.00    +0.015 C 
ATOM      5  C   UNL     1      34.847 -20.471 -20.405  0.00  0.00    +0.028 C 
ATOM      6  C   UNL     1      35.988 -19.917 -20.984  0.00  0.00    +0.141 C 
ATOM      7  C   UNL     1      33.597 -20.267 -20.991  0.00  0.00    +0.004 C 
ENDROOT
BRANCH   2  10
ATOM      8  O   UNL     1      34.233 -17.563 -26.078  0.00  0.00    -0.434 OA
ATOM      9  O   UNL     1      34.069 -19.777 -25.609  0.00  0.00    -0.226 OA
ATOM     10  N   UNL     1      34.520 -18.178 -23.925  0.00  0.00    -0.221 N 
ATOM     11  C   UNL     1      34.266 -16.347 -25.319  0.00  0.00    +0.210 C 
ATOM     12  C   UNL     1      34.794 -16.766 -23.963  0.00  0.00    +0.147 C 
ATOM     13  C   UNL     1      34.248 -18.634 -25.212  0.00  0.00    +0.409 C 
BRANCH  11  14
ATOM     14  C   UNL     1      32.861 -15.765 -25.263  0.00  0.00    +0.135 C 
BRANCH  14  16
ATOM     15  O   UNL     1      33.056 -15.227 -28.110  0.00  0.00    -0.275 OA
ATOM     16  N   UNL     1      32.802 -14.489 -25.914  0.00  0.00    -0.301 N 
ATOM     17  C   UNL     1      32.905 -14.323 -27.291  0.00  0.00    +0.223 C 
ATOM     18  C   UNL     1      32.787 -12.882 -27.711  0.00  0.00    +0.095 C 
ATOM     19  H   UNL     1      32.684 -13.687 -25.356  0.00  0.00    +0.150 HD
ENDBRANCH  14  16
ENDBRANCH  11  14
ENDBRANCH   2  10
BRANCH   5  20
ATOM     20  C   UNL     1      34.954 -21.259 -19.196  0.00  0.00    +0.002 C 
ATOM     21  C   UNL     1      35.160 -22.776 -16.864  0.00  0.00    -0.044 C 
ATOM     22  C   UNL     1      36.144 -21.263 -18.470  0.00  0.00    -0.000 C 
ATOM     23  C   UNL     1      33.866 -22.014 -18.756  0.00  0.00    -0.000 C 
ATOM     24  C   UNL     1      36.247 -22.021 -17.303  0.00  0.00    -0.006 C 
ATOM     25  C   UNL     1      33.969 -22.772 -17.591  0.00  0.00    -0.006 C 
BRANCH  21  26
ATOM     26  C   UNL     1      35.270 -23.586 -15.617  0.00  0.00    -0.054 C 
BRANCH  26  27
ATOM     27  N   UNL     1      34.100 -24.439 -15.400  0.00  0.00    +0.390 N 
ATOM     28  H   UNL     1      34.391 -25.416 -15.411  0.00  0.00    -0.083 HD
ATOM     29  H   UNL     1      33.424 -24.263 -16.143  0.00  0.00    -0.083 HD
BRANCH  27  30
ATOM     30  C   UNL     1      33.478 -24.141 -14.120  0.00  0.00    -0.031 C 
BRANCH  30  34
ATOM     31  N   UNL     1      31.369 -24.987 -13.138  0.00  0.00    -0.170 NA
ATOM     32  N   UNL     1      30.101 -24.982 -13.578  0.00  0.00    -0.157 N 
ATOM     33  N   UNL     1      29.839 -24.432 -14.775  0.00  0.00    -0.162 NA
ATOM     34  C   UNL     1      31.990 -24.376 -14.152  0.00  0.00    +0.077 C 
ATOM     35  C   UNL     1      31.061 -24.040 -15.146  0.00  0.00    +0.133 C 
ATOM     36  H   UNL     1      29.379 -25.375 -13.036  0.00  0.00    +0.197 HD
ENDBRANCH  30  34
ENDBRANCH  27  30
ENDBRANCH  26  27
ENDBRANCH  21  26
ENDBRANCH   5  20
TORSDOF 8
ENDMDL
MODEL 8
REMARK VINA RESULT:     -11.2      6.191     13.047
REMARK  Name = 11224409
REMARK  8 active torsions:
REMARK  status: ('A' for Active; 'I' for Inactive)
REMARK    1  A    between atoms: C_2  and  N_10
REMARK    2  A    between atoms: C_5  and  C_20
REMARK    3  A    between atoms: C_11  and  C_14
REMARK    4  A    between atoms: C_14  and  N_16
REMARK    5  A    between atoms: C_21  and  C_26
REMARK    6  A    between atoms: C_26  and  N_27
REMARK    7  A    between atoms: N_27  and  C_30
REMARK    8  A    between atoms: C_30  and  C_34
REMARK                            x       y       z     vdW  Elec       q    Type
REMARK                         _______ _______ _______ _____ _____    ______ ____
ROOT
ATOM      1  F   UNL     1      34.967 -15.607 -20.821  0.00  0.00    -0.204 F 
ATOM      2  C   UNL     1      33.712 -14.817 -24.139  0.00  0.00    +0.059 C 
ATOM      3  C   UNL     1      34.151 -14.660 -22.823  0.00  0.00    +0.045 C 
ATOM      4  C   UNL     1      33.672 -16.088 -24.713  0.00  0.00    +0.015 C 
ATOM      5  C   UNL     1      34.508 -17.044 -22.659  0.00  0.00    +0.028 C 
ATOM      6  C   UNL     1      34.548 -15.774 -22.084  0.00  0.00    +0.141 C 
ATOM      7  C   UNL     1      34.070 -17.201 -23.974  0.00  0.00    +0.004 C 
ENDROOT
BRANCH   2  10
ATOM      8  O   UNL     1      32.555 -11.630 -25.467  0.00  0.00    -0.434 OA
ATOM      9  O   UNL     1      32.674 -12.099 -23.250  0.00  0.00    -0.226 OA
ATOM     10  N   UNL     1      33.306 -13.681 -24.894  0.00  0.00    -0.221 N 
ATOM     11  C   UNL     1      33.042 -12.227 -26.676  0.00  0.00    +0.210 C 
ATOM     12  C   UNL     1      33.213 -13.691 -26.329  0.00  0.00    +0.147 C 
ATOM     13  C   UNL     1      32.848 -12.459 -24.406  0.00  0.00    +0.409 C 
BRANCH  11  14
ATOM     14  C   UNL     1      34.347 -11.547 -27.068  0.00  0.00    +0.135 C 
BRANCH  14  16
ATOM     15  O   UNL     1      36.049 -10.037 -25.264  0.00  0.00    -0.275 OA
ATOM     16  N   UNL     1      34.299 -10.140 -26.798  0.00  0.00    -0.301 N 
ATOM     17  C   UNL     1      35.158  -9.496 -25.914  0.00  0.00    +0.223 C 
ATOM     18  C   UNL     1      34.907  -8.014 -25.837  0.00  0.00    +0.095 C 
ATOM     19  H   UNL     1      33.620  -9.600 -27.264  0.00  0.00    +0.150 HD
ENDBRANCH  14  16
ENDBRANCH  11  14
ENDBRANCH   2  10
BRANCH   5  20
ATOM     20  C   UNL     1      34.920 -18.202 -21.895  0.00  0.00    +0.002 C 
ATOM     21  C   UNL     1      35.713 -20.433 -20.420  0.00  0.00    -0.044 C 
ATOM     22  C   UNL     1      36.276 -18.466 -21.705  0.00  0.00    -0.000 C 
ATOM     23  C   UNL     1      33.960 -19.054 -21.347  0.00  0.00    -0.000 C 
ATOM     24  C   UNL     1      36.673 -19.582 -20.967  0.00  0.00    -0.006 C 
ATOM     25  C   UNL     1      34.356 -20.169 -20.610  0.00  0.00    -0.006 C 
BRANCH  21  26
ATOM     26  C   UNL     1      36.138 -21.625 -19.631  0.00  0.00    -0.054 C 
BRANCH  26  27
ATOM     27  N   UNL     1      35.524 -21.663 -18.302  0.00  0.00    +0.390 N 
ATOM     28  H   UNL     1      34.956 -22.506 -18.219  0.00  0.00    -0.083 HD
ATOM     29  H   UNL     1      34.944 -20.833 -18.186  0.00  0.00    -0.083 HD
BRANCH  27  30
ATOM     30  C   UNL     1      36.544 -21.670 -17.266  0.00  0.00    -0.031 C 
BRANCH  30  34
ATOM     31  N   UNL     1      35.141 -23.384 -16.162  0.00  0.00    -0.170 NA
ATOM     32  N   UNL     1      35.401 -24.282 -15.199  0.00  0.00    -0.157 N 
ATOM     33  N   UNL     1      36.639 -24.325 -14.678  0.00  0.00    -0.162 NA
ATOM     34  C   UNL     1      36.331 -22.786 -16.277  0.00  0.00    +0.077 C 
ATOM     35  C   UNL     1      37.240 -23.357 -15.376  0.00  0.00    +0.133 C 
ATOM     36  H   UNL     1      34.700 -24.896 -14.880  0.00  0.00    +0.197 HD
ENDBRANCH  30  34
ENDBRANCH  27  30
ENDBRANCH  26  27
ENDBRANCH  21  26
ENDBRANCH   5  20
TORSDOF 8
ENDMDL
MODEL 9
REMARK VINA RESULT:     -11.2      2.725      4.826
REMARK  Name = 11224409
REMARK  8 active torsions:
REMARK  status: ('A' for Active; 'I' for Inactive)
REMARK    1  A    between atoms: C_2  and  N_10
REMARK    2  A    between atoms: C_5  and  C_20
REMARK    3  A    between atoms: C_11  and  C_14
REMARK    4  A    between atoms: C_14  and  N_16
REMARK    5  A    between atoms: C_21  and  C_26
REMARK    6  A    between atoms: C_26  and  N_27
REMARK    7  A    between atoms: N_27  and  C_30
REMARK    8  A    between atoms: C_30  and  C_34
REMARK                            x       y       z     vdW  Elec       q    Type
REMARK                         _______ _______ _______ _____ _____    ______ ____
ROOT
ATOM      1  F   UNL     1      36.645 -19.262 -21.457  0.00  0.00    -0.204 F 
ATOM      2  C   UNL     1      34.469 -21.273 -19.352  0.00  0.00    +0.059 C 
ATOM      3  C   UNL     1      35.624 -20.710 -19.897  0.00  0.00    +0.045 C 
ATOM      4  C   UNL     1      33.217 -20.918 -19.855  0.00  0.00    +0.015 C 
ATOM      5  C   UNL     1      34.274 -19.439 -21.446  0.00  0.00    +0.028 C 
ATOM      6  C   UNL     1      35.526 -19.794 -20.944  0.00  0.00    +0.141 C 
ATOM      7  C   UNL     1      33.119 -20.001 -20.901  0.00  0.00    +0.004 C 
ENDROOT
BRANCH   2  10
ATOM      8  O   UNL     1      35.354 -23.429 -16.555  0.00  0.00    -0.434 OA
ATOM      9  O   UNL     1      36.773 -21.916 -17.473  0.00  0.00    -0.226 OA
ATOM     10  N   UNL     1      34.570 -22.209 -18.284  0.00  0.00    -0.221 N 
ATOM     11  C   UNL     1      33.949 -23.705 -16.631  0.00  0.00    +0.210 C 
ATOM     12  C   UNL     1      33.531 -23.156 -17.978  0.00  0.00    +0.147 C 
ATOM     13  C   UNL     1      35.667 -22.438 -17.458  0.00  0.00    +0.409 C 
BRANCH  11  14
ATOM     14  C   UNL     1      33.251 -23.023 -15.463  0.00  0.00    +0.135 C 
BRANCH  14  16
ATOM     15  O   UNL     1      32.705 -24.737 -13.183  0.00  0.00    -0.275 OA
ATOM     16  N   UNL     1      34.019 -23.141 -14.258  0.00  0.00    -0.301 N 
ATOM     17  C   UNL     1      33.682 -23.992 -13.211  0.00  0.00    +0.223 C 
ATOM     18  C   UNL     1      34.673 -23.938 -12.079  0.00  0.00    +0.095 C 
ATOM     19  H   UNL     1      34.829 -22.589 -14.168  0.00  0.00    +0.150 HD
ENDBRANCH  14  16
ENDBRANCH  11  14
ENDBRANCH   2  10
BRANCH   5  20
ATOM     20  C   UNL     1      34.168 -18.489 -22.532  0.00  0.00    +0.002 C 
ATOM     21  C   UNL     1      33.965 -16.658 -24.626  0.00  0.00    -0.044 C 
ATOM     22  C   UNL     1      34.574 -17.168 -22.345  0.00  0.00    -0.000 C 
ATOM     23  C   UNL     1      33.661 -18.894 -23.767  0.00  0.00    -0.000 C 
ATOM     24  C   UNL     1      34.473 -16.252 -23.392  0.00  0.00    -0.006 C 
ATOM     25  C   UNL     1      33.559 -17.979 -24.814  0.00  0.00    -0.006 C 
BRANCH  21  26
ATOM     26  C   UNL     1      33.858 -15.678 -25.746  0.00  0.00    -0.054 C 
BRANCH  26  27
ATOM     27  N   UNL     1      32.821 -14.672 -25.510  0.00  0.00    +0.390 N 
ATOM     28  H   UNL     1      32.387 -14.844 -24.603  0.00  0.00    -0.083 HD
ATOM     29  H   UNL     1      32.126 -14.737 -26.253  0.00  0.00    -0.083 HD
BRANCH  27  30
ATOM     30  C   UNL     1      33.392 -13.334 -25.520  0.00  0.00    -0.031 C 
BRANCH  30  34
ATOM     31  N   UNL     1      32.510 -13.121 -23.217  0.00  0.00    -0.170 NA
ATOM     32  N   UNL     1      32.225 -12.055 -22.453  0.00  0.00    -0.157 N 
ATOM     33  N   UNL     1      32.430 -10.828 -22.961  0.00  0.00    -0.162 NA
ATOM     34  C   UNL     1      32.943 -12.524 -24.332  0.00  0.00    +0.077 C 
ATOM     35  C   UNL     1      32.894 -11.132 -24.177  0.00  0.00    +0.133 C 
ATOM     36  H   UNL     1      31.874 -12.169 -21.540  0.00  0.00    +0.197 HD
ENDBRANCH  30  34
ENDBRANCH  27  30
ENDBRANCH  26  27
ENDBRANCH  21  26
ENDBRANCH   5  20
TORSDOF 8
ENDMDL
