MODEL 1
REMARK VINA RESULT:     -12.1      0.000      0.000
REMARK  Name = 17748441
REMARK  5 active torsions:
REMARK  status: ('A' for Active; 'I' for Inactive)
REMARK    1  A    between atoms: C_2  and  N_10
REMARK    2  A    between atoms: C_3  and  O_24
REMARK    3  A    between atoms: C_12  and  C_16
REMARK    4  A    between atoms: C_16  and  C_18
REMARK    5  A    between atoms: O_24  and  C_27
REMARK                            x       y       z     vdW  Elec       q    Type
REMARK                         _______ _______ _______ _____ _____    ______ ____
ROOT
ATOM      1  F   UNL     1      37.575 -21.556 -16.531  0.00  0.00    -0.201 F 
ATOM      2  C   UNL     1      35.139 -21.721 -19.227  0.00  0.00    +0.054 C 
ATOM      3  C   UNL     1      35.453 -22.615 -16.604  0.00  0.00    +0.173 C 
ATOM      4  C   UNL     1      36.300 -21.411 -18.519  0.00  0.00    +0.047 C 
ATOM      5  C   UNL     1      34.136 -22.478 -18.624  0.00  0.00    +0.018 C 
ATOM      6  C   UNL     1      36.457 -21.858 -17.207  0.00  0.00    +0.176 C 
ATOM      7  C   UNL     1      34.293 -22.926 -17.312  0.00  0.00    +0.041 C 
ENDROOT
BRANCH   2  10
ATOM      8  O   UNL     1      34.282 -17.655 -22.739  0.00  0.00    -0.274 OA
ATOM      9  O   UNL     1      34.649 -18.957 -20.295  0.00  0.00    -0.252 OA
ATOM     10  N   UNL     1      34.979 -21.268 -20.558  0.00  0.00    -0.268 N 
ATOM     11  N   UNL     1      34.651 -19.933 -22.403  0.00  0.00    -0.239 N 
ATOM     12  C   UNL     1      34.424 -18.793 -23.178  0.00  0.00    +0.234 C 
ATOM     13  C   UNL     1      34.752 -19.960 -20.997  0.00  0.00    +0.310 C 
ATOM     14  H   UNL     1      35.034 -21.958 -21.259  0.00  0.00    +0.156 HD
ATOM     15  H   UNL     1      34.748 -20.791 -22.878  0.00  0.00    +0.159 HD
BRANCH  12  16
ATOM     16  C   UNL     1      34.372 -19.134 -24.656  0.00  0.00    +0.112 C 
BRANCH  16  18
ATOM     17  F   UNL     1      31.262 -15.531 -27.672  0.00  0.00    -0.204 F 
ATOM     18  C   UNL     1      33.541 -18.171 -25.461  0.00  0.00    -0.013 C 
ATOM     19  C   UNL     1      32.248 -18.521 -25.849  0.00  0.00    -0.001 C 
ATOM     20  C   UNL     1      34.064 -16.928 -25.821  0.00  0.00    -0.001 C 
ATOM     21  C   UNL     1      31.478 -17.629 -26.595  0.00  0.00    +0.029 C 
ATOM     22  C   UNL     1      33.295 -16.037 -26.568  0.00  0.00    +0.029 C 
ATOM     23  C   UNL     1      32.001 -16.387 -26.955  0.00  0.00    +0.140 C 
ENDBRANCH  16  18
ENDBRANCH  12  16
ENDBRANCH   2  10
BRANCH   3  24
ATOM     24  O   UNL     1      35.607 -23.054 -15.324  0.00  0.00    -0.451 OA
BRANCH  24  27
ATOM     25  N   UNL     1      37.567 -26.699 -14.742  0.00  0.00    -0.229 NA
ATOM     26  N   UNL     1      39.597 -25.523 -14.321  0.00  0.00    -0.343 N 
ATOM     27  C   UNL     1      36.257 -24.261 -15.132  0.00  0.00    +0.150 C 
ATOM     28  C   UNL     1      37.612 -24.284 -14.821  0.00  0.00    +0.071 C 
ATOM     29  C   UNL     1      35.557 -25.457 -15.248  0.00  0.00    +0.058 C 
ATOM     30  C   UNL     1      38.215 -25.518 -14.638  0.00  0.00    +0.128 C 
ATOM     31  C   UNL     1      36.252 -26.638 -15.045  0.00  0.00    +0.103 C 
ATOM     32  H   UNL     1      40.066 -26.377 -14.182  0.00  0.00    +0.144 HD
ATOM     33  H   UNL     1      40.087 -24.673 -14.241  0.00  0.00    +0.144 HD
ENDBRANCH  24  27
ENDBRANCH   3  24
TORSDOF 5
ENDMDL
MODEL 2
REMARK VINA RESULT:     -11.8      4.157     10.079
REMARK  Name = 17748441
REMARK  5 active torsions:
REMARK  status: ('A' for Active; 'I' for Inactive)
REMARK    1  A    between atoms: C_2  and  N_10
REMARK    2  A    between atoms: C_3  and  O_24
REMARK    3  A    between atoms: C_12  and  C_16
REMARK    4  A    between atoms: C_16  and  C_18
REMARK    5  A    between atoms: O_24  and  C_27
REMARK                            x       y       z     vdW  Elec       q    Type
REMARK                         _______ _______ _______ _____ _____    ______ ____
ROOT
ATOM      1  F   UNL     1      36.804 -20.924 -20.326  0.00  0.00    -0.201 F 
ATOM      2  C   UNL     1      33.473 -21.638 -19.052  0.00  0.00    +0.054 C 
ATOM      3  C   UNL     1      34.688 -20.162 -21.083  0.00  0.00    +0.173 C 
ATOM      4  C   UNL     1      34.861 -21.647 -19.186  0.00  0.00    +0.047 C 
ATOM      5  C   UNL     1      32.693 -20.890 -19.934  0.00  0.00    +0.018 C 
ATOM      6  C   UNL     1      35.469 -20.910 -20.202  0.00  0.00    +0.176 C 
ATOM      7  C   UNL     1      33.301 -20.152 -20.950  0.00  0.00    +0.041 C 
ENDROOT
BRANCH   2  10
ATOM      8  O   UNL     1      33.862 -24.522 -14.456  0.00  0.00    -0.274 OA
ATOM      9  O   UNL     1      34.665 -22.997 -16.655  0.00  0.00    -0.252 OA
ATOM     10  N   UNL     1      32.856 -22.386 -18.022  0.00  0.00    -0.268 N 
ATOM     11  N   UNL     1      32.497 -23.646 -16.132  0.00  0.00    -0.239 N 
ATOM     12  C   UNL     1      32.754 -24.361 -14.959  0.00  0.00    +0.234 C 
ATOM     13  C   UNL     1      33.466 -22.999 -16.924  0.00  0.00    +0.310 C 
ATOM     14  H   UNL     1      31.878 -22.487 -18.088  0.00  0.00    +0.156 HD
ATOM     15  H   UNL     1      31.560 -23.591 -16.431  0.00  0.00    +0.159 HD
BRANCH  12  16
ATOM     16  C   UNL     1      31.475 -24.925 -14.368  0.00  0.00    +0.112 C 
BRANCH  16  18
ATOM     17  F   UNL     1      26.814 -22.539 -16.448  0.00  0.00    -0.204 F 
ATOM     18  C   UNL     1      30.229 -24.288 -14.923  0.00  0.00    -0.013 C 
ATOM     19  C   UNL     1      29.363 -25.032 -15.723  0.00  0.00    -0.001 C 
ATOM     20  C   UNL     1      29.942 -22.952 -14.638  0.00  0.00    -0.001 C 
ATOM     21  C   UNL     1      28.209 -24.441 -16.238  0.00  0.00    +0.029 C 
ATOM     22  C   UNL     1      28.789 -22.362 -15.154  0.00  0.00    +0.029 C 
ATOM     23  C   UNL     1      27.921 -23.106 -15.953  0.00  0.00    +0.140 C 
ENDBRANCH  16  18
ENDBRANCH  12  16
ENDBRANCH   2  10
BRANCH   3  24
ATOM     24  O   UNL     1      35.282 -19.440 -22.074  0.00  0.00    -0.451 OA
BRANCH  24  27
ATOM     25  N   UNL     1      34.340 -15.377 -22.343  0.00  0.00    -0.229 NA
ATOM     26  N   UNL     1      33.884 -15.652 -24.666  0.00  0.00    -0.343 N 
ATOM     27  C   UNL     1      34.970 -18.094 -22.163  0.00  0.00    +0.150 C 
ATOM     28  C   UNL     1      34.581 -17.547 -23.381  0.00  0.00    +0.071 C 
ATOM     29  C   UNL     1      35.044 -17.284 -21.036  0.00  0.00    +0.058 C 
ATOM     30  C   UNL     1      34.279 -16.195 -23.418  0.00  0.00    +0.128 C 
ATOM     31  C   UNL     1      34.722 -15.944 -21.177  0.00  0.00    +0.103 C 
ATOM     32  H   UNL     1      33.661 -14.697 -24.739  0.00  0.00    +0.144 HD
ATOM     33  H   UNL     1      33.834 -16.232 -25.461  0.00  0.00    +0.144 HD
ENDBRANCH  24  27
ENDBRANCH   3  24
TORSDOF 5
ENDMDL
MODEL 3
REMARK VINA RESULT:     -11.8      4.167      9.914
REMARK  Name = 17748441
REMARK  5 active torsions:
REMARK  status: ('A' for Active; 'I' for Inactive)
REMARK    1  A    between atoms: C_2  and  N_10
REMARK    2  A    between atoms: C_3  and  O_24
REMARK    3  A    between atoms: C_12  and  C_16
REMARK    4  A    between atoms: C_16  and  C_18
REMARK    5  A    between atoms: O_24  and  C_27
REMARK                            x       y       z     vdW  Elec       q    Type
REMARK                         _______ _______ _______ _____ _____    ______ ____
ROOT
ATOM      1  F   UNL     1      36.813 -21.041 -20.338  0.00  0.00    -0.201 F 
ATOM      2  C   UNL     1      33.460 -21.648 -19.069  0.00  0.00    +0.054 C 
ATOM      3  C   UNL     1      34.720 -20.246 -21.124  0.00  0.00    +0.173 C 
ATOM      4  C   UNL     1      34.848 -21.693 -19.194  0.00  0.00    +0.047 C 
ATOM      5  C   UNL     1      32.702 -20.902 -19.971  0.00  0.00    +0.018 C 
ATOM      6  C   UNL     1      35.478 -20.992 -20.222  0.00  0.00    +0.176 C 
ATOM      7  C   UNL     1      33.333 -20.200 -20.999  0.00  0.00    +0.041 C 
ENDROOT
BRANCH   2  10
ATOM      8  O   UNL     1      33.767 -24.544 -14.474  0.00  0.00    -0.274 OA
ATOM      9  O   UNL     1      34.615 -23.070 -16.690  0.00  0.00    -0.252 OA
ATOM     10  N   UNL     1      32.819 -22.358 -18.026  0.00  0.00    -0.268 N 
ATOM     11  N   UNL     1      32.424 -23.594 -16.127  0.00  0.00    -0.239 N 
ATOM     12  C   UNL     1      32.660 -24.321 -14.957  0.00  0.00    +0.234 C 
ATOM     13  C   UNL     1      33.414 -23.004 -16.937  0.00  0.00    +0.310 C 
ATOM     14  H   UNL     1      31.836 -22.404 -18.074  0.00  0.00    +0.156 HD
ATOM     15  H   UNL     1      31.486 -23.486 -16.409  0.00  0.00    +0.159 HD
BRANCH  12  16
ATOM     16  C   UNL     1      31.363 -24.811 -14.342  0.00  0.00    +0.112 C 
BRANCH  16  18
ATOM     17  F   UNL     1      26.781 -22.485 -16.654  0.00  0.00    -0.204 F 
ATOM     18  C   UNL     1      30.138 -24.189 -14.959  0.00  0.00    -0.013 C 
ATOM     19  C   UNL     1      29.318 -24.947 -15.794  0.00  0.00    -0.001 C 
ATOM     20  C   UNL     1      29.824 -22.856 -14.697  0.00  0.00    -0.001 C 
ATOM     21  C   UNL     1      28.184 -24.371 -16.367  0.00  0.00    +0.029 C 
ATOM     22  C   UNL     1      28.691 -22.280 -15.270  0.00  0.00    +0.029 C 
ATOM     23  C   UNL     1      27.870 -23.037 -16.105  0.00  0.00    +0.140 C 
ENDBRANCH  16  18
ENDBRANCH  12  16
ENDBRANCH   2  10
BRANCH   3  24
ATOM     24  O   UNL     1      35.336 -19.560 -22.126  0.00  0.00    -0.451 OA
BRANCH  24  27
ATOM     25  N   UNL     1      34.343 -15.530 -22.618  0.00  0.00    -0.229 NA
ATOM     26  N   UNL     1      34.621 -15.191 -20.276  0.00  0.00    -0.343 N 
ATOM     27  C   UNL     1      35.007 -18.225 -22.289  0.00  0.00    +0.150 C 
ATOM     28  C   UNL     1      34.979 -17.374 -21.190  0.00  0.00    +0.071 C 
ATOM     29  C   UNL     1      34.703 -17.730 -23.552  0.00  0.00    +0.058 C 
ATOM     30  C   UNL     1      34.645 -16.047 -21.406  0.00  0.00    +0.128 C 
ATOM     31  C   UNL     1      34.380 -16.387 -23.663  0.00  0.00    +0.103 C 
ATOM     32  H   UNL     1      34.389 -14.241 -20.383  0.00  0.00    +0.144 HD
ATOM     33  H   UNL     1      34.838 -15.548 -19.384  0.00  0.00    +0.144 HD
ENDBRANCH  24  27
ENDBRANCH   3  24
TORSDOF 5
ENDMDL
MODEL 4
REMARK VINA RESULT:     -11.7      6.555     12.948
REMARK  Name = 17748441
REMARK  5 active torsions:
REMARK  status: ('A' for Active; 'I' for Inactive)
REMARK    1  A    between atoms: C_2  and  N_10
REMARK    2  A    between atoms: C_3  and  O_24
REMARK    3  A    between atoms: C_12  and  C_16
REMARK    4  A    between atoms: C_16  and  C_18
REMARK    5  A    between atoms: O_24  and  C_27
REMARK                            x       y       z     vdW  Elec       q    Type
REMARK                         _______ _______ _______ _____ _____    ______ ____
ROOT
ATOM      1  F   UNL     1      34.524 -10.127 -25.668  0.00  0.00    -0.201 F 
ATOM      2  C   UNL     1      33.492 -12.943 -23.610  0.00  0.00    +0.054 C 
ATOM      3  C   UNL     1      32.801 -10.275 -24.043  0.00  0.00    +0.173 C 
ATOM      4  C   UNL     1      34.193 -12.184 -24.547  0.00  0.00    +0.047 C 
ATOM      5  C   UNL     1      32.446 -12.367 -22.889  0.00  0.00    +0.018 C 
ATOM      6  C   UNL     1      33.847 -10.851 -24.764  0.00  0.00    +0.176 C 
ATOM      7  C   UNL     1      32.101 -11.033 -23.105  0.00  0.00    +0.041 C 
ENDROOT
BRANCH   2  10
ATOM      8  O   UNL     1      35.134 -16.883 -20.238  0.00  0.00    -0.274 OA
ATOM      9  O   UNL     1      34.371 -14.339 -21.100  0.00  0.00    -0.252 OA
ATOM     10  N   UNL     1      33.842 -14.295 -23.388  0.00  0.00    -0.268 N 
ATOM     11  N   UNL     1      34.504 -16.262 -22.396  0.00  0.00    -0.239 N 
ATOM     12  C   UNL     1      34.928 -17.163 -21.415  0.00  0.00    +0.234 C 
ATOM     13  C   UNL     1      34.246 -14.892 -22.190  0.00  0.00    +0.310 C 
ATOM     14  H   UNL     1      33.797 -14.888 -24.174  0.00  0.00    +0.156 HD
ATOM     15  H   UNL     1      34.376 -16.613 -23.307  0.00  0.00    +0.159 HD
BRANCH  12  16
ATOM     16  C   UNL     1      35.109 -18.556 -21.990  0.00  0.00    +0.112 C 
BRANCH  16  18
ATOM     17  F   UNL     1      33.117 -22.624 -18.639  0.00  0.00    -0.204 F 
ATOM     18  C   UNL     1      34.577 -19.643 -21.095  0.00  0.00    -0.013 C 
ATOM     19  C   UNL     1      33.201 -19.797 -20.926  0.00  0.00    -0.001 C 
ATOM     20  C   UNL     1      35.459 -20.497 -20.433  0.00  0.00    -0.001 C 
ATOM     21  C   UNL     1      32.708 -20.804 -20.097  0.00  0.00    +0.029 C 
ATOM     22  C   UNL     1      34.967 -21.503 -19.603  0.00  0.00    +0.029 C 
ATOM     23  C   UNL     1      33.590 -21.658 -19.435  0.00  0.00    +0.140 C 
ENDBRANCH  16  18
ENDBRANCH  12  16
ENDBRANCH   2  10
BRANCH   3  24
ATOM     24  O   UNL     1      32.465  -8.973 -24.254  0.00  0.00    -0.451 OA
BRANCH  24  27
ATOM     25  N   UNL     1      31.344  -6.694 -20.934  0.00  0.00    -0.229 NA
ATOM     26  N   UNL     1      33.285  -7.453 -19.777  0.00  0.00    -0.343 N 
ATOM     27  C   UNL     1      32.094  -8.218 -23.153  0.00  0.00    +0.150 C 
ATOM     28  C   UNL     1      32.884  -8.216 -22.009  0.00  0.00    +0.071 C 
ATOM     29  C   UNL     1      30.930  -7.459 -23.188  0.00  0.00    +0.058 C 
ATOM     30  C   UNL     1      32.469  -7.444 -20.936  0.00  0.00    +0.128 C 
ATOM     31  C   UNL     1      30.602  -6.721 -22.063  0.00  0.00    +0.103 C 
ATOM     32  H   UNL     1      33.029  -6.919 -18.991  0.00  0.00    +0.144 HD
ATOM     33  H   UNL     1      34.108  -7.992 -19.759  0.00  0.00    +0.144 HD
ENDBRANCH  24  27
ENDBRANCH   3  24
TORSDOF 5
ENDMDL
MODEL 5
REMARK VINA RESULT:     -11.6      7.028     10.316
REMARK  Name = 17748441
REMARK  5 active torsions:
REMARK  status: ('A' for Active; 'I' for Inactive)
REMARK    1  A    between atoms: C_2  and  N_10
REMARK    2  A    between atoms: C_3  and  O_24
REMARK    3  A    between atoms: C_12  and  C_16
REMARK    4  A    between atoms: C_16  and  C_18
REMARK    5  A    between atoms: O_24  and  C_27
REMARK                            x       y       z     vdW  Elec       q    Type
REMARK                         _______ _______ _______ _____ _____    ______ ____
ROOT
ATOM      1  F   UNL     1      33.637 -16.726 -25.779  0.00  0.00    -0.201 F 
ATOM      2  C   UNL     1      33.390 -13.919 -23.480  0.00  0.00    +0.054 C 
ATOM      3  C   UNL     1      34.546 -16.454 -23.605  0.00  0.00    +0.173 C 
ATOM      4  C   UNL     1      33.222 -14.707 -24.619  0.00  0.00    +0.047 C 
ATOM      5  C   UNL     1      34.135 -14.400 -22.404  0.00  0.00    +0.018 C 
ATOM      6  C   UNL     1      33.801 -15.975 -24.681  0.00  0.00    +0.176 C 
ATOM      7  C   UNL     1      34.713 -15.667 -22.466  0.00  0.00    +0.041 C 
ENDROOT
BRANCH   2  10
ATOM      8  O   UNL     1      33.598  -8.596 -24.581  0.00  0.00    -0.274 OA
ATOM      9  O   UNL     1      34.387 -11.274 -24.493  0.00  0.00    -0.252 OA
ATOM     10  N   UNL     1      32.803 -12.633 -23.416  0.00  0.00    -0.268 N 
ATOM     11  N   UNL     1      32.422 -10.376 -23.640  0.00  0.00    -0.239 N 
ATOM     12  C   UNL     1      32.617  -9.037 -23.989  0.00  0.00    +0.234 C 
ATOM     13  C   UNL     1      33.318 -11.430 -23.908  0.00  0.00    +0.310 C 
ATOM     14  H   UNL     1      31.926 -12.580 -22.970  0.00  0.00    +0.156 HD
ATOM     15  H   UNL     1      31.589 -10.602 -23.165  0.00  0.00    +0.159 HD
BRANCH  12  16
ATOM     16  C   UNL     1      31.450  -8.177 -23.543  0.00  0.00    +0.112 C 
BRANCH  16  18
ATOM     17  F   UNL     1      32.400  -5.468 -18.695  0.00  0.00    -0.204 F 
ATOM     18  C   UNL     1      31.704  -7.452 -22.248  0.00  0.00    -0.013 C 
ATOM     19  C   UNL     1      32.708  -7.895 -21.387  0.00  0.00    -0.001 C 
ATOM     20  C   UNL     1      30.935  -6.339 -21.907  0.00  0.00    -0.001 C 
ATOM     21  C   UNL     1      32.943  -7.224 -20.187  0.00  0.00    +0.029 C 
ATOM     22  C   UNL     1      31.169  -5.669 -20.707  0.00  0.00    +0.029 C 
ATOM     23  C   UNL     1      32.174  -6.111 -19.847  0.00  0.00    +0.140 C 
ENDBRANCH  16  18
ENDBRANCH  12  16
ENDBRANCH   2  10
BRANCH   3  24
ATOM     24  O   UNL     1      35.109 -17.692 -23.665  0.00  0.00    -0.451 OA
BRANCH  24  27
ATOM     25  N   UNL     1      34.770 -20.147 -20.298  0.00  0.00    -0.229 NA
ATOM     26  N   UNL     1      32.442 -20.403 -20.738  0.00  0.00    -0.343 N 
ATOM     27  C   UNL     1      34.997 -18.505 -22.549  0.00  0.00    +0.150 C 
ATOM     28  C   UNL     1      33.765 -19.049 -22.203  0.00  0.00    +0.071 C 
ATOM     29  C   UNL     1      36.115 -18.782 -21.771  0.00  0.00    +0.058 C 
ATOM     30  C   UNL     1      33.705 -19.856 -21.078  0.00  0.00    +0.128 C 
ATOM     31  C   UNL     1      35.951 -19.601 -20.666  0.00  0.00    +0.103 C 
ATOM     32  H   UNL     1      32.354 -20.982 -19.947  0.00  0.00    +0.144 HD
ATOM     33  H   UNL     1      31.654 -20.203 -21.293  0.00  0.00    +0.144 HD
ENDBRANCH  24  27
ENDBRANCH   3  24
TORSDOF 5
ENDMDL
MODEL 6
REMARK VINA RESULT:     -11.5      7.060     10.115
REMARK  Name = 17748441
REMARK  5 active torsions:
REMARK  status: ('A' for Active; 'I' for Inactive)
REMARK    1  A    between atoms: C_2  and  N_10
REMARK    2  A    between atoms: C_3  and  O_24
REMARK    3  A    between atoms: C_12  and  C_16
REMARK    4  A    between atoms: C_16  and  C_18
REMARK    5  A    between atoms: O_24  and  C_27
REMARK                            x       y       z     vdW  Elec       q    Type
REMARK                         _______ _______ _______ _____ _____    ______ ____
ROOT
ATOM      1  F   UNL     1      33.714 -16.948 -25.645  0.00  0.00    -0.201 F 
ATOM      2  C   UNL     1      33.663 -14.110 -23.371  0.00  0.00    +0.054 C 
ATOM      3  C   UNL     1      34.635 -16.723 -23.470  0.00  0.00    +0.173 C 
ATOM      4  C   UNL     1      33.442 -14.894 -24.503  0.00  0.00    +0.047 C 
ATOM      5  C   UNL     1      34.370 -14.633 -22.288  0.00  0.00    +0.018 C 
ATOM      6  C   UNL     1      33.928 -16.200 -24.553  0.00  0.00    +0.176 C 
ATOM      7  C   UNL     1      34.856 -15.940 -22.338  0.00  0.00    +0.041 C 
ENDROOT
BRANCH   2  10
ATOM      8  O   UNL     1      30.223 -10.452 -21.278  0.00  0.00    -0.274 OA
ATOM      9  O   UNL     1      31.481 -12.912 -21.692  0.00  0.00    -0.252 OA
ATOM     10  N   UNL     1      33.170 -12.785 -23.319  0.00  0.00    -0.268 N 
ATOM     11  N   UNL     1      31.960 -10.909 -22.766  0.00  0.00    -0.239 N 
ATOM     12  C   UNL     1      31.019 -10.087 -22.139  0.00  0.00    +0.234 C 
ATOM     13  C   UNL     1      32.145 -12.282 -22.512  0.00  0.00    +0.310 C 
ATOM     14  H   UNL     1      33.601 -12.140 -23.926  0.00  0.00    +0.156 HD
ATOM     15  H   UNL     1      32.543 -10.493 -23.443  0.00  0.00    +0.159 HD
BRANCH  12  16
ATOM     16  C   UNL     1      31.098  -8.664 -22.658  0.00  0.00    +0.112 C 
BRANCH  16  18
ATOM     17  F   UNL     1      32.549  -4.923 -18.703  0.00  0.00    -0.204 F 
ATOM     18  C   UNL     1      31.486  -7.665 -21.601  0.00  0.00    -0.013 C 
ATOM     19  C   UNL     1      30.771  -6.474 -21.472  0.00  0.00    -0.001 C 
ATOM     20  C   UNL     1      32.560  -7.928 -20.751  0.00  0.00    -0.001 C 
ATOM     21  C   UNL     1      31.130  -5.548 -20.493  0.00  0.00    +0.029 C 
ATOM     22  C   UNL     1      32.920  -7.002 -19.773  0.00  0.00    +0.029 C 
ATOM     23  C   UNL     1      32.204  -5.812 -19.643  0.00  0.00    +0.140 C 
ENDBRANCH  16  18
ENDBRANCH  12  16
ENDBRANCH   2  10
BRANCH   3  24
ATOM     24  O   UNL     1      35.108 -17.999 -23.518  0.00  0.00    -0.451 OA
BRANCH  24  27
ATOM     25  N   UNL     1      34.622 -20.380 -20.117  0.00  0.00    -0.229 NA
ATOM     26  N   UNL     1      32.277 -20.464 -20.530  0.00  0.00    -0.343 N 
ATOM     27  C   UNL     1      34.947 -18.787 -22.391  0.00  0.00    +0.150 C 
ATOM     28  C   UNL     1      33.681 -19.232 -22.025  0.00  0.00    +0.071 C 
ATOM     29  C   UNL     1      36.050 -19.138 -21.621  0.00  0.00    +0.058 C 
ATOM     30  C   UNL     1      33.574 -20.019 -20.890  0.00  0.00    +0.128 C 
ATOM     31  C   UNL     1      35.837 -19.929 -20.504  0.00  0.00    +0.103 C 
ATOM     32  H   UNL     1      32.154 -21.025 -19.731  0.00  0.00    +0.144 HD
ATOM     33  H   UNL     1      31.500 -20.212 -21.080  0.00  0.00    +0.144 HD
ENDBRANCH  24  27
ENDBRANCH   3  24
TORSDOF 5
ENDMDL
MODEL 7
REMARK VINA RESULT:     -11.5      3.252     11.154
REMARK  Name = 17748441
REMARK  5 active torsions:
REMARK  status: ('A' for Active; 'I' for Inactive)
REMARK    1  A    between atoms: C_2  and  N_10
REMARK    2  A    between atoms: C_3  and  O_24
REMARK    3  A    between atoms: C_12  and  C_16
REMARK    4  A    between atoms: C_16  and  C_18
REMARK    5  A    between atoms: O_24  and  C_27
REMARK                            x       y       z     vdW  Elec       q    Type
REMARK                         _______ _______ _______ _____ _____    ______ ____
ROOT
ATOM      1  F   UNL     1      32.436 -20.840 -20.647  0.00  0.00    -0.201 F 
ATOM      2  C   UNL     1      35.050 -21.833 -18.321  0.00  0.00    +0.054 C 
ATOM      3  C   UNL     1      34.793 -20.643 -20.831  0.00  0.00    +0.173 C 
ATOM      4  C   UNL     1      33.784 -21.630 -18.871  0.00  0.00    +0.047 C 
ATOM      5  C   UNL     1      36.187 -21.441 -19.027  0.00  0.00    +0.018 C 
ATOM      6  C   UNL     1      33.656 -21.034 -20.125  0.00  0.00    +0.176 C 
ATOM      7  C   UNL     1      36.059 -20.847 -20.282  0.00  0.00    +0.041 C 
ENDROOT
BRANCH   2  10
ATOM      8  O   UNL     1      32.879 -24.669 -14.217  0.00  0.00    -0.274 OA
ATOM      9  O   UNL     1      33.052 -23.358 -16.678  0.00  0.00    -0.252 OA
ATOM     10  N   UNL     1      35.181 -22.437 -17.048  0.00  0.00    -0.268 N 
ATOM     11  N   UNL     1      34.743 -23.580 -15.101  0.00  0.00    -0.239 N 
ATOM     12  C   UNL     1      34.050 -24.311 -14.131  0.00  0.00    +0.234 C 
ATOM     13  C   UNL     1      34.209 -23.138 -16.328  0.00  0.00    +0.310 C 
ATOM     14  H   UNL     1      36.063 -22.352 -16.618  0.00  0.00    +0.156 HD
ATOM     15  H   UNL     1      35.683 -23.354 -14.911  0.00  0.00    +0.159 HD
BRANCH  12  16
ATOM     16  C   UNL     1      34.934 -24.615 -12.937  0.00  0.00    +0.112 C 
BRANCH  16  18
ATOM     17  F   UNL     1      40.108 -26.331 -14.367  0.00  0.00    -0.204 F 
ATOM     18  C   UNL     1      36.317 -25.073 -13.319  0.00  0.00    -0.013 C 
ATOM     19  C   UNL     1      36.479 -26.162 -14.175  0.00  0.00    -0.001 C 
ATOM     20  C   UNL     1      37.437 -24.409 -12.817  0.00  0.00    -0.001 C 
ATOM     21  C   UNL     1      37.759 -26.587 -14.529  0.00  0.00    +0.029 C 
ATOM     22  C   UNL     1      38.717 -24.834 -13.170  0.00  0.00    +0.029 C 
ATOM     23  C   UNL     1      38.879 -25.923 -14.027  0.00  0.00    +0.140 C 
ENDBRANCH  16  18
ENDBRANCH  12  16
ENDBRANCH   2  10
BRANCH   3  24
ATOM     24  O   UNL     1      34.668 -20.064 -22.057  0.00  0.00    -0.451 OA
BRANCH  24  27
ATOM     25  N   UNL     1      34.644 -15.888 -22.237  0.00  0.00    -0.229 NA
ATOM     26  N   UNL     1      34.201 -16.006 -24.575  0.00  0.00    -0.343 N 
ATOM     27  C   UNL     1      34.661 -18.680 -22.117  0.00  0.00    +0.150 C 
ATOM     28  C   UNL     1      34.433 -18.035 -23.327  0.00  0.00    +0.071 C 
ATOM     29  C   UNL     1      34.880 -17.931 -20.967  0.00  0.00    +0.058 C 
ATOM     30  C   UNL     1      34.434 -16.649 -23.334  0.00  0.00    +0.128 C 
ATOM     31  C   UNL     1      34.862 -16.550 -21.079  0.00  0.00    +0.103 C 
ATOM     32  H   UNL     1      34.193 -15.024 -24.626  0.00  0.00    +0.144 HD
ATOM     33  H   UNL     1      34.046 -16.543 -25.386  0.00  0.00    +0.144 HD
ENDBRANCH  24  27
ENDBRANCH   3  24
TORSDOF 5
ENDMDL
MODEL 8
REMARK VINA RESULT:     -11.4      3.133     11.265
REMARK  Name = 17748441
REMARK  5 active torsions:
REMARK  status: ('A' for Active; 'I' for Inactive)
REMARK    1  A    between atoms: C_2  and  N_10
REMARK    2  A    between atoms: C_3  and  O_24
REMARK    3  A    between atoms: C_12  and  C_16
REMARK    4  A    between atoms: C_16  and  C_18
REMARK    5  A    between atoms: O_24  and  C_27
REMARK                            x       y       z     vdW  Elec       q    Type
REMARK                         _______ _______ _______ _____ _____    ______ ____
ROOT
ATOM      1  F   UNL     1      37.462 -18.608 -22.473  0.00  0.00    -0.201 F 
ATOM      2  C   UNL     1      34.979 -20.194 -20.340  0.00  0.00    +0.054 C 
ATOM      3  C   UNL     1      35.116 -18.817 -22.762  0.00  0.00    +0.173 C 
ATOM      4  C   UNL     1      36.208 -19.734 -20.813  0.00  0.00    +0.047 C 
ATOM      5  C   UNL     1      33.818 -19.964 -21.079  0.00  0.00    +0.018 C 
ATOM      6  C   UNL     1      36.277 -19.046 -22.024  0.00  0.00    +0.176 C 
ATOM      7  C   UNL     1      33.887 -19.276 -22.290  0.00  0.00    +0.041 C 
ENDROOT
BRANCH   2  10
ATOM      8  O   UNL     1      33.113 -24.381 -17.412  0.00  0.00    -0.274 OA
ATOM      9  O   UNL     1      33.520 -22.717 -19.618  0.00  0.00    -0.252 OA
ATOM     10  N   UNL     1      34.909 -20.891 -19.111  0.00  0.00    -0.268 N 
ATOM     11  N   UNL     1      34.398 -22.436 -17.486  0.00  0.00    -0.239 N 
ATOM     12  C   UNL     1      33.843 -23.559 -16.865  0.00  0.00    +0.234 C 
ATOM     13  C   UNL     1      34.208 -22.069 -18.833  0.00  0.00    +0.310 C 
ATOM     14  H   UNL     1      35.414 -20.499 -18.362  0.00  0.00    +0.156 HD
ATOM     15  H   UNL     1      34.968 -21.852 -16.935  0.00  0.00    +0.159 HD
BRANCH  12  16
ATOM     16  C   UNL     1      34.257 -23.643 -15.408  0.00  0.00    +0.112 C 
BRANCH  16  18
ATOM     17  F   UNL     1      39.048 -26.499 -14.613  0.00  0.00    -0.204 F 
ATOM     18  C   UNL     1      35.537 -24.406 -15.195  0.00  0.00    -0.013 C 
ATOM     19  C   UNL     1      36.740 -23.719 -15.034  0.00  0.00    -0.001 C 
ATOM     20  C   UNL     1      35.521 -25.801 -15.159  0.00  0.00    -0.001 C 
ATOM     21  C   UNL     1      37.926 -24.426 -14.837  0.00  0.00    +0.029 C 
ATOM     22  C   UNL     1      36.707 -26.508 -14.963  0.00  0.00    +0.029 C 
ATOM     23  C   UNL     1      37.910 -25.821 -14.802  0.00  0.00    +0.140 C 
ENDBRANCH  16  18
ENDBRANCH  12  16
ENDBRANCH   2  10
BRANCH   3  24
ATOM     24  O   UNL     1      35.182 -18.143 -23.944  0.00  0.00    -0.451 OA
BRANCH  24  27
ATOM     25  N   UNL     1      33.455 -14.341 -24.109  0.00  0.00    -0.229 NA
ATOM     26  N   UNL     1      32.474 -14.895 -26.209  0.00  0.00    -0.343 N 
ATOM     27  C   UNL     1      34.610 -16.884 -23.999  0.00  0.00    +0.150 C 
ATOM     28  C   UNL     1      33.823 -16.521 -25.086  0.00  0.00    +0.071 C 
ATOM     29  C   UNL     1      34.819 -15.976 -22.967  0.00  0.00    +0.058 C 
ATOM     30  C   UNL     1      33.273 -15.249 -25.094  0.00  0.00    +0.128 C 
ATOM     31  C   UNL     1      34.225 -14.729 -23.068  0.00  0.00    +0.103 C 
ATOM     32  H   UNL     1      32.063 -14.002 -26.256  0.00  0.00    +0.144 HD
ATOM     33  H   UNL     1      32.329 -15.542 -26.937  0.00  0.00    +0.144 HD
ENDBRANCH  24  27
ENDBRANCH   3  24
TORSDOF 5
ENDMDL
MODEL 9
REMARK VINA RESULT:     -11.3      6.685     13.011
REMARK  Name = 17748441
REMARK  5 active torsions:
REMARK  status: ('A' for Active; 'I' for Inactive)
REMARK    1  A    between atoms: C_2  and  N_10
REMARK    2  A    between atoms: C_3  and  O_24
REMARK    3  A    between atoms: C_12  and  C_16
REMARK    4  A    between atoms: C_16  and  C_18
REMARK    5  A    between atoms: O_24  and  C_27
REMARK                            x       y       z     vdW  Elec       q    Type
REMARK                         _______ _______ _______ _____ _____    ______ ____
ROOT
ATOM      1  F   UNL     1      30.884 -10.468 -22.473  0.00  0.00    -0.201 F 
ATOM      2  C   UNL     1      33.488 -12.772 -23.539  0.00  0.00    +0.054 C 
ATOM      3  C   UNL     1      32.709 -10.126 -23.951  0.00  0.00    +0.173 C 
ATOM      4  C   UNL     1      32.359 -12.269 -22.893  0.00  0.00    +0.047 C 
ATOM      5  C   UNL     1      34.227 -11.952 -24.391  0.00  0.00    +0.018 C 
ATOM      6  C   UNL     1      31.970 -10.946 -23.098  0.00  0.00    +0.176 C 
ATOM      7  C   UNL     1      33.837 -10.629 -24.597  0.00  0.00    +0.041 C 
ENDROOT
BRANCH   2  10
ATOM      8  O   UNL     1      34.998 -16.759 -20.159  0.00  0.00    -0.274 OA
ATOM      9  O   UNL     1      34.193 -14.222 -21.005  0.00  0.00    -0.252 OA
ATOM     10  N   UNL     1      33.884 -14.115 -23.331  0.00  0.00    -0.268 N 
ATOM     11  N   UNL     1      34.546 -16.085 -22.346  0.00  0.00    -0.239 N 
ATOM     12  C   UNL     1      34.920 -17.003 -21.360  0.00  0.00    +0.234 C 
ATOM     13  C   UNL     1      34.201 -14.737 -22.120  0.00  0.00    +0.310 C 
ATOM     14  H   UNL     1      33.943 -14.678 -24.137  0.00  0.00    +0.156 HD
ATOM     15  H   UNL     1      34.523 -16.406 -23.277  0.00  0.00    +0.159 HD
BRANCH  12  16
ATOM     16  C   UNL     1      35.224 -18.362 -21.962  0.00  0.00    +0.112 C 
BRANCH  16  18
ATOM     17  F   UNL     1      33.604 -22.657 -18.695  0.00  0.00    -0.204 F 
ATOM     18  C   UNL     1      34.791 -19.510 -21.089  0.00  0.00    -0.013 C 
ATOM     19  C   UNL     1      33.434 -19.775 -20.908  0.00  0.00    -0.001 C 
ATOM     20  C   UNL     1      35.747 -20.308 -20.460  0.00  0.00    -0.001 C 
ATOM     21  C   UNL     1      33.033 -20.839 -20.100  0.00  0.00    +0.029 C 
ATOM     22  C   UNL     1      35.346 -21.371 -19.651  0.00  0.00    +0.029 C 
ATOM     23  C   UNL     1      33.989 -21.637 -19.471  0.00  0.00    +0.140 C 
ENDBRANCH  16  18
ENDBRANCH  12  16
ENDBRANCH   2  10
BRANCH   3  24
ATOM     24  O   UNL     1      32.328  -8.835 -24.153  0.00  0.00    -0.451 OA
BRANCH  24  27
ATOM     25  N   UNL     1      31.450  -6.516 -20.788  0.00  0.00    -0.229 NA
ATOM     26  N   UNL     1      33.367  -7.412 -19.690  0.00  0.00    -0.343 N 
ATOM     27  C   UNL     1      32.037  -8.067 -23.038  0.00  0.00    +0.150 C 
ATOM     28  C   UNL     1      32.856  -8.127 -21.916  0.00  0.00    +0.071 C 
ATOM     29  C   UNL     1      30.925  -7.232 -23.036  0.00  0.00    +0.058 C 
ATOM     30  C   UNL     1      32.522  -7.339 -20.826  0.00  0.00    +0.128 C 
ATOM     31  C   UNL     1      30.678  -6.484 -21.896  0.00  0.00    +0.103 C 
ATOM     32  H   UNL     1      33.168  -6.869 -18.894  0.00  0.00    +0.144 HD
ATOM     33  H   UNL     1      34.153  -8.005 -19.698  0.00  0.00    +0.144 HD
ENDBRANCH  24  27
ENDBRANCH   3  24
TORSDOF 5
ENDMDL
