MODEL 1
REMARK VINA RESULT:     -12.2      0.000      0.000
REMARK  Name = 25184541
REMARK  4 active torsions:
REMARK  status: ('A' for Active; 'I' for Inactive)
REMARK    1  A    between atoms: C_4  and  N_19
REMARK    2  A    between atoms: C_5  and  N_11
REMARK    3  A    between atoms: C_20  and  C_23
REMARK    4  A    between atoms: C_23  and  N_25
REMARK                            x       y       z     vdW  Elec       q    Type
REMARK                         _______ _______ _______ _____ _____    ______ ____
ROOT
ATOM      1  F   UNL     1      31.990 -21.496 -19.089  0.00  0.00    -0.200 F 
ATOM      2  F   UNL     1      32.157 -19.808 -21.211  0.00  0.00    -0.200 F 
ATOM      3  F   UNL     1      36.898 -20.002 -20.990  0.00  0.00    -0.203 F 
ATOM      4  C   UNL     1      34.358 -21.616 -18.950  0.00  0.00    +0.089 C 
ATOM      5  C   UNL     1      34.530 -19.882 -21.128  0.00  0.00    +0.110 C 
ATOM      6  C   UNL     1      33.195 -21.132 -19.551  0.00  0.00    +0.182 C 
ATOM      7  C   UNL     1      35.607 -21.232 -19.440  0.00  0.00    +0.048 C 
ATOM      8  C   UNL     1      33.282 -20.265 -20.640  0.00  0.00    +0.184 C 
ATOM      9  C   UNL     1      35.692 -20.365 -20.528  0.00  0.00    +0.157 C 
ENDROOT
BRANCH   5  11
ATOM     10  O   UNL     1      34.802 -16.411 -25.378  0.00  0.00    -0.291 OA
ATOM     11  N   UNL     1      34.618 -18.997 -22.235  0.00  0.00    -0.282 N 
ATOM     12  C   UNL     1      35.126 -17.638 -21.980  0.00  0.00    +0.104 C 
ATOM     13  C   UNL     1      34.564 -16.645 -22.997  0.00  0.00    +0.091 C 
ATOM     14  C   UNL     1      34.425 -19.399 -23.548  0.00  0.00    +0.068 C 
ATOM     15  C   UNL     1      34.656 -17.163 -24.417  0.00  0.00    +0.176 C 
ATOM     16  C   UNL     1      34.466 -18.616 -24.630  0.00  0.00    +0.054 C 
ENDBRANCH   5  11
BRANCH   4  19
ATOM     17  O   UNL     1      34.727 -23.601 -15.921  0.00  0.00    -0.434 OA
ATOM     18  O   UNL     1      36.228 -22.039 -16.589  0.00  0.00    -0.226 OA
ATOM     19  N   UNL     1      34.273 -22.502 -17.839  0.00  0.00    -0.219 N 
ATOM     20  C   UNL     1      33.389 -23.969 -16.283  0.00  0.00    +0.210 C 
ATOM     21  C   UNL     1      33.245 -23.500 -17.715  0.00  0.00    +0.147 C 
ATOM     22  C   UNL     1      35.175 -22.628 -16.786  0.00  0.00    +0.409 C 
BRANCH  20  23
ATOM     23  C   UNL     1      32.417 -23.288 -15.329  0.00  0.00    +0.134 C 
BRANCH  23  25
ATOM     24  O   UNL     1      28.615 -22.531 -17.229  0.00  0.00    -0.349 OA
ATOM     25  N   UNL     1      31.167 -24.005 -15.307  0.00  0.00    -0.312 N 
ATOM     26  N   UNL     1      29.923 -22.513 -16.762  0.00  0.00    -0.062 NA
ATOM     27  C   UNL     1      30.032 -23.600 -15.993  0.00  0.00    +0.171 C 
ATOM     28  C   UNL     1      28.837 -24.336 -15.939  0.00  0.00    +0.081 C 
ATOM     29  C   UNL     1      27.978 -23.622 -16.732  0.00  0.00    +0.215 C 
ATOM     30  H   UNL     1      31.116 -24.831 -14.771  0.00  0.00    +0.148 HD
ENDBRANCH  23  25
ENDBRANCH  20  23
ENDBRANCH   4  19
TORSDOF 4
ENDMDL
MODEL 2
REMARK VINA RESULT:     -11.9      3.341      9.062
REMARK  Name = 25184541
REMARK  4 active torsions:
REMARK  status: ('A' for Active; 'I' for Inactive)
REMARK    1  A    between atoms: C_4  and  N_19
REMARK    2  A    between atoms: C_5  and  N_11
REMARK    3  A    between atoms: C_20  and  C_23
REMARK    4  A    between atoms: C_23  and  N_25
REMARK                            x       y       z     vdW  Elec       q    Type
REMARK                         _______ _______ _______ _____ _____    ______ ____
ROOT
ATOM      1  F   UNL     1      36.901 -20.907 -18.348  0.00  0.00    -0.200 F 
ATOM      2  F   UNL     1      37.492 -22.309 -16.098  0.00  0.00    -0.200 F 
ATOM      3  F   UNL     1      33.156 -24.247 -16.167  0.00  0.00    -0.203 F 
ATOM      4  C   UNL     1      34.726 -21.858 -18.413  0.00  0.00    +0.089 C 
ATOM      5  C   UNL     1      35.332 -23.296 -16.102  0.00  0.00    +0.110 C 
ATOM      6  C   UNL     1      35.979 -21.724 -17.817  0.00  0.00    +0.182 C 
ATOM      7  C   UNL     1      33.775 -22.711 -17.853  0.00  0.00    +0.048 C 
ATOM      8  C   UNL     1      36.283 -22.443 -16.661  0.00  0.00    +0.184 C 
ATOM      9  C   UNL     1      34.078 -23.430 -16.698  0.00  0.00    +0.157 C 
ENDROOT
BRANCH   5  11
ATOM     10  O   UNL     1      36.581 -26.059 -11.521  0.00  0.00    -0.291 OA
ATOM     11  N   UNL     1      35.639 -24.026 -14.923  0.00  0.00    -0.282 N 
ATOM     12  C   UNL     1      35.206 -23.453 -13.637  0.00  0.00    +0.104 C 
ATOM     13  C   UNL     1      36.119 -23.912 -12.500  0.00  0.00    +0.091 C 
ATOM     14  C   UNL     1      36.155 -25.313 -14.939  0.00  0.00    +0.068 C 
ATOM     15  C   UNL     1      36.383 -25.403 -12.541  0.00  0.00    +0.176 C 
ATOM     16  C   UNL     1      36.492 -26.044 -13.871  0.00  0.00    +0.054 C 
ENDBRANCH   5  11
BRANCH   4  19
ATOM     17  O   UNL     1      33.292 -20.015 -21.206  0.00  0.00    -0.434 OA
ATOM     18  O   UNL     1      32.069 -20.827 -19.478  0.00  0.00    -0.226 OA
ATOM     19  N   UNL     1      34.413 -21.125 -19.594  0.00  0.00    -0.219 N 
ATOM     20  C   UNL     1      34.685 -19.816 -21.483  0.00  0.00    +0.210 C 
ATOM     21  C   UNL     1      35.389 -20.832 -20.609  0.00  0.00    +0.147 C 
ATOM     22  C   UNL     1      33.162 -20.679 -20.008  0.00  0.00    +0.409 C 
BRANCH  20  23
ATOM     23  C   UNL     1      35.052 -18.377 -21.144  0.00  0.00    +0.134 C 
BRANCH  23  25
ATOM     24  O   UNL     1      34.330 -14.139 -21.549  0.00  0.00    -0.349 OA
ATOM     25  N   UNL     1      34.860 -17.536 -22.299  0.00  0.00    -0.312 N 
ATOM     26  N   UNL     1      34.566 -15.438 -21.115  0.00  0.00    -0.062 NA
ATOM     27  C   UNL     1      34.636 -16.169 -22.231  0.00  0.00    +0.171 C 
ATOM     28  C   UNL     1      34.454 -15.394 -23.388  0.00  0.00    +0.081 C 
ATOM     29  C   UNL     1      34.266 -14.126 -22.905  0.00  0.00    +0.215 C 
ATOM     30  H   UNL     1      34.888 -17.958 -23.189  0.00  0.00    +0.148 HD
ENDBRANCH  23  25
ENDBRANCH  20  23
ENDBRANCH   4  19
TORSDOF 4
ENDMDL
MODEL 3
REMARK VINA RESULT:     -10.9      2.832      9.577
REMARK  Name = 25184541
REMARK  4 active torsions:
REMARK  status: ('A' for Active; 'I' for Inactive)
REMARK    1  A    between atoms: C_4  and  N_19
REMARK    2  A    between atoms: C_5  and  N_11
REMARK    3  A    between atoms: C_20  and  C_23
REMARK    4  A    between atoms: C_23  and  N_25
REMARK                            x       y       z     vdW  Elec       q    Type
REMARK                         _______ _______ _______ _____ _____    ______ ____
ROOT
ATOM      1  F   UNL     1      37.030 -19.000 -21.953  0.00  0.00    -0.200 F 
ATOM      2  F   UNL     1      36.964 -20.790 -19.912  0.00  0.00    -0.200 F 
ATOM      3  F   UNL     1      32.215 -20.710 -19.997  0.00  0.00    -0.203 F 
ATOM      4  C   UNL     1      34.657 -18.936 -22.024  0.00  0.00    +0.089 C 
ATOM      5  C   UNL     1      34.589 -20.773 -19.926  0.00  0.00    +0.110 C 
ATOM      6  C   UNL     1      35.848 -19.415 -21.477  0.00  0.00    +0.182 C 
ATOM      7  C   UNL     1      33.433 -19.376 -21.521  0.00  0.00    +0.048 C 
ATOM      8  C   UNL     1      35.813 -20.334 -20.428  0.00  0.00    +0.184 C 
ATOM      9  C   UNL     1      33.399 -20.294 -20.473  0.00  0.00    +0.157 C 
ENDROOT
BRANCH   5  11
ATOM     10  O   UNL     1      34.376 -24.347 -15.759  0.00  0.00    -0.291 OA
ATOM     11  N   UNL     1      34.554 -21.707 -18.857  0.00  0.00    -0.282 N 
ATOM     12  C   UNL     1      33.527 -22.762 -18.910  0.00  0.00    +0.104 C 
ATOM     13  C   UNL     1      33.154 -23.232 -17.504  0.00  0.00    +0.091 C 
ATOM     14  C   UNL     1      35.534 -21.780 -17.878  0.00  0.00    +0.068 C 
ATOM     15  C   UNL     1      34.372 -23.493 -16.643  0.00  0.00    +0.176 C 
ATOM     16  C   UNL     1      35.547 -22.612 -16.832  0.00  0.00    +0.054 C 
ENDBRANCH   5  11
BRANCH   4  19
ATOM     17  O   UNL     1      34.574 -17.068 -25.147  0.00  0.00    -0.434 OA
ATOM     18  O   UNL     1      34.151 -19.291 -25.002  0.00  0.00    -0.226 OA
ATOM     19  N   UNL     1      34.689 -17.998 -23.095  0.00  0.00    -0.219 N 
ATOM     20  C   UNL     1      34.702 -15.978 -24.224  0.00  0.00    +0.210 C 
ATOM     21  C   UNL     1      35.114 -16.634 -22.924  0.00  0.00    +0.147 C 
ATOM     22  C   UNL     1      34.433 -18.241 -24.441  0.00  0.00    +0.409 C 
BRANCH  20  23
ATOM     23  C   UNL     1      33.365 -15.253 -24.133  0.00  0.00    +0.134 C 
BRANCH  23  25
ATOM     24  O   UNL     1      32.892 -11.632 -26.435  0.00  0.00    -0.349 OA
ATOM     25  N   UNL     1      32.846 -15.011 -25.455  0.00  0.00    -0.312 N 
ATOM     26  N   UNL     1      33.160 -12.604 -25.480  0.00  0.00    -0.062 NA
ATOM     27  C   UNL     1      32.772 -13.755 -26.038  0.00  0.00    +0.171 C 
ATOM     28  C   UNL     1      32.256 -13.572 -27.332  0.00  0.00    +0.081 C 
ATOM     29  C   UNL     1      32.354 -12.221 -27.535  0.00  0.00    +0.215 C 
ATOM     30  H   UNL     1      32.524 -15.784 -25.974  0.00  0.00    +0.148 HD
ENDBRANCH  23  25
ENDBRANCH  20  23
ENDBRANCH   4  19
TORSDOF 4
ENDMDL
MODEL 4
REMARK VINA RESULT:     -10.8      2.539      4.595
REMARK  Name = 25184541
REMARK  4 active torsions:
REMARK  status: ('A' for Active; 'I' for Inactive)
REMARK    1  A    between atoms: C_4  and  N_19
REMARK    2  A    between atoms: C_5  and  N_11
REMARK    3  A    between atoms: C_20  and  C_23
REMARK    4  A    between atoms: C_23  and  N_25
REMARK                            x       y       z     vdW  Elec       q    Type
REMARK                         _______ _______ _______ _____ _____    ______ ____
ROOT
ATOM      1  F   UNL     1      36.807 -21.581 -18.797  0.00  0.00    -0.200 F 
ATOM      2  F   UNL     1      36.929 -19.912 -20.937  0.00  0.00    -0.200 F 
ATOM      3  F   UNL     1      32.187 -19.919 -21.211  0.00  0.00    -0.203 F 
ATOM      4  C   UNL     1      34.435 -21.606 -18.905  0.00  0.00    +0.089 C 
ATOM      5  C   UNL     1      34.560 -19.894 -21.103  0.00  0.00    +0.110 C 
ATOM      6  C   UNL     1      35.672 -21.177 -19.385  0.00  0.00    +0.182 C 
ATOM      7  C   UNL     1      33.260 -21.178 -19.523  0.00  0.00    +0.048 C 
ATOM      8  C   UNL     1      35.734 -20.320 -20.484  0.00  0.00    +0.184 C 
ATOM      9  C   UNL     1      33.323 -20.323 -20.623  0.00  0.00    +0.157 C 
ENDROOT
BRANCH   5  11
ATOM     10  O   UNL     1      34.737 -16.484 -25.407  0.00  0.00    -0.291 OA
ATOM     11  N   UNL     1      34.624 -19.025 -22.224  0.00  0.00    -0.282 N 
ATOM     12  C   UNL     1      35.121 -17.657 -21.996  0.00  0.00    +0.104 C 
ATOM     13  C   UNL     1      34.535 -16.685 -23.019  0.00  0.00    +0.091 C 
ATOM     14  C   UNL     1      34.416 -19.449 -23.528  0.00  0.00    +0.068 C 
ATOM     15  C   UNL     1      34.611 -17.223 -24.433  0.00  0.00    +0.176 C 
ATOM     16  C   UNL     1      34.433 -18.680 -24.622  0.00  0.00    +0.054 C 
ENDBRANCH   5  11
BRANCH   4  19
ATOM     17  O   UNL     1      33.896 -24.232 -16.442  0.00  0.00    -0.434 OA
ATOM     18  O   UNL     1      33.074 -24.303 -18.554  0.00  0.00    -0.226 OA
ATOM     19  N   UNL     1      34.368 -22.479 -17.782  0.00  0.00    -0.219 N 
ATOM     20  C   UNL     1      34.860 -23.440 -15.735  0.00  0.00    +0.210 C 
ATOM     21  C   UNL     1      34.893 -22.128 -16.489  0.00  0.00    +0.147 C 
ATOM     22  C   UNL     1      33.727 -23.713 -17.705  0.00  0.00    +0.409 C 
BRANCH  20  23
ATOM     23  C   UNL     1      36.197 -24.170 -15.742  0.00  0.00    +0.134 C 
BRANCH  23  25
ATOM     24  O   UNL     1      37.849 -22.739 -12.019  0.00  0.00    -0.349 OA
ATOM     25  N   UNL     1      36.411 -24.814 -14.471  0.00  0.00    -0.312 N 
ATOM     26  N   UNL     1      37.375 -22.910 -13.314  0.00  0.00    -0.062 NA
ATOM     27  C   UNL     1      36.965 -24.180 -13.368  0.00  0.00    +0.171 C 
ATOM     28  C   UNL     1      37.154 -24.854 -12.150  0.00  0.00    +0.081 C 
ATOM     29  C   UNL     1      37.711 -23.904 -11.335  0.00  0.00    +0.215 C 
ATOM     30  H   UNL     1      36.150 -25.759 -14.380  0.00  0.00    +0.148 HD
ENDBRANCH  23  25
ENDBRANCH  20  23
ENDBRANCH   4  19
TORSDOF 4
ENDMDL
MODEL 5
REMARK VINA RESULT:     -10.8      2.514      3.537
REMARK  Name = 25184541
REMARK  4 active torsions:
REMARK  status: ('A' for Active; 'I' for Inactive)
REMARK    1  A    between atoms: C_4  and  N_19
REMARK    2  A    between atoms: C_5  and  N_11
REMARK    3  A    between atoms: C_20  and  C_23
REMARK    4  A    between atoms: C_23  and  N_25
REMARK                            x       y       z     vdW  Elec       q    Type
REMARK                         _______ _______ _______ _____ _____    ______ ____
ROOT
ATOM      1  F   UNL     1      32.446 -21.654 -18.985  0.00  0.00    -0.200 F 
ATOM      2  F   UNL     1      32.215 -19.869 -21.018  0.00  0.00    -0.200 F 
ATOM      3  F   UNL     1      36.940 -19.400 -21.142  0.00  0.00    -0.203 F 
ATOM      4  C   UNL     1      34.811 -21.444 -19.019  0.00  0.00    +0.089 C 
ATOM      5  C   UNL     1      34.574 -19.610 -21.107  0.00  0.00    +0.110 C 
ATOM      6  C   UNL     1      33.551 -21.104 -19.509  0.00  0.00    +0.182 C 
ATOM      7  C   UNL     1      35.954 -20.867 -19.574  0.00  0.00    +0.048 C 
ATOM      8  C   UNL     1      33.432 -20.187 -20.554  0.00  0.00    +0.184 C 
ATOM      9  C   UNL     1      35.835 -19.950 -20.617  0.00  0.00    +0.157 C 
ENDROOT
BRANCH   5  11
ATOM     10  O   UNL     1      34.173 -16.031 -25.255  0.00  0.00    -0.291 OA
ATOM     11  N   UNL     1      34.454 -18.673 -22.168  0.00  0.00    -0.282 N 
ATOM     12  C   UNL     1      33.843 -19.144 -23.423  0.00  0.00    +0.104 C 
ATOM     13  C   UNL     1      34.361 -18.341 -24.616  0.00  0.00    +0.091 C 
ATOM     14  C   UNL     1      34.712 -17.319 -22.019  0.00  0.00    +0.068 C 
ATOM     15  C   UNL     1      34.346 -16.850 -24.355  0.00  0.00    +0.176 C 
ATOM     16  C   UNL     1      34.645 -16.391 -22.980  0.00  0.00    +0.054 C 
ENDBRANCH   5  11
BRANCH   4  19
ATOM     17  O   UNL     1      35.769 -23.627 -16.267  0.00  0.00    -0.434 OA
ATOM     18  O   UNL     1      37.192 -22.174 -17.271  0.00  0.00    -0.226 OA
ATOM     19  N   UNL     1      34.936 -22.381 -17.954  0.00  0.00    -0.219 N 
ATOM     20  C   UNL     1      34.353 -23.848 -16.262  0.00  0.00    +0.210 C 
ATOM     21  C   UNL     1      33.880 -23.286 -17.586  0.00  0.00    +0.147 C 
ATOM     22  C   UNL     1      36.068 -22.651 -17.191  0.00  0.00    +0.409 C 
BRANCH  20  23
ATOM     23  C   UNL     1      33.748 -23.136 -15.058  0.00  0.00    +0.134 C 
BRANCH  23  25
ATOM     24  O   UNL     1      34.630 -25.043 -11.287  0.00  0.00    -0.349 OA
ATOM     25  N   UNL     1      34.767 -22.893 -14.069  0.00  0.00    -0.312 N 
ATOM     26  N   UNL     1      34.116 -24.638 -12.513  0.00  0.00    -0.062 NA
ATOM     27  C   UNL     1      34.896 -23.623 -12.897  0.00  0.00    +0.171 C 
ATOM     28  C   UNL     1      35.908 -23.345 -11.963  0.00  0.00    +0.081 C 
ATOM     29  C   UNL     1      35.698 -24.266 -10.970  0.00  0.00    +0.215 C 
ATOM     30  H   UNL     1      35.409 -22.164 -14.235  0.00  0.00    +0.148 HD
ENDBRANCH  23  25
ENDBRANCH  20  23
ENDBRANCH   4  19
TORSDOF 4
ENDMDL
MODEL 6
REMARK VINA RESULT:     -10.8      5.112     11.424
REMARK  Name = 25184541
REMARK  4 active torsions:
REMARK  status: ('A' for Active; 'I' for Inactive)
REMARK    1  A    between atoms: C_4  and  N_19
REMARK    2  A    between atoms: C_5  and  N_11
REMARK    3  A    between atoms: C_20  and  C_23
REMARK    4  A    between atoms: C_23  and  N_25
REMARK                            x       y       z     vdW  Elec       q    Type
REMARK                         _______ _______ _______ _____ _____    ______ ____
ROOT
ATOM      1  F   UNL     1      33.606 -13.912 -23.938  0.00  0.00    -0.200 F 
ATOM      2  F   UNL     1      34.386 -15.698 -22.047  0.00  0.00    -0.200 F 
ATOM      3  F   UNL     1      34.278 -19.172 -25.285  0.00  0.00    -0.203 F 
ATOM      4  C   UNL     1      33.542 -15.624 -25.583  0.00  0.00    +0.089 C 
ATOM      5  C   UNL     1      34.342 -17.459 -23.640  0.00  0.00    +0.110 C 
ATOM      6  C   UNL     1      33.769 -15.200 -24.274  0.00  0.00    +0.182 C 
ATOM      7  C   UNL     1      33.716 -16.966 -25.921  0.00  0.00    +0.048 C 
ATOM      8  C   UNL     1      34.169 -16.118 -23.302  0.00  0.00    +0.184 C 
ATOM      9  C   UNL     1      34.115 -17.883 -24.949  0.00  0.00    +0.157 C 
ENDROOT
BRANCH   5  11
ATOM     10  O   UNL     1      35.852 -21.036 -19.754  0.00  0.00    -0.291 OA
ATOM     11  N   UNL     1      34.746 -18.394 -22.651  0.00  0.00    -0.282 N 
ATOM     12  C   UNL     1      33.755 -19.393 -22.216  0.00  0.00    +0.104 C 
ATOM     13  C   UNL     1      34.032 -19.849 -20.784  0.00  0.00    +0.091 C 
ATOM     14  C   UNL     1      36.057 -18.524 -22.217  0.00  0.00    +0.068 C 
ATOM     15  C   UNL     1      35.493 -20.179 -20.558  0.00  0.00    +0.176 C 
ATOM     16  C   UNL     1      36.498 -19.361 -21.273  0.00  0.00    +0.054 C 
ENDBRANCH   5  11
BRANCH   4  19
ATOM     17  O   UNL     1      31.986 -13.659 -28.223  0.00  0.00    -0.434 OA
ATOM     18  O   UNL     1      31.153 -15.627 -27.465  0.00  0.00    -0.226 OA
ATOM     19  N   UNL     1      33.135 -14.689 -26.577  0.00  0.00    -0.219 N 
ATOM     20  C   UNL     1      32.982 -12.724 -27.789  0.00  0.00    +0.210 C 
ATOM     21  C   UNL     1      33.932 -13.550 -26.948  0.00  0.00    +0.147 C 
ATOM     22  C   UNL     1      32.012 -14.760 -27.397  0.00  0.00    +0.409 C 
BRANCH  20  23
ATOM     23  C   UNL     1      32.302 -11.609 -27.005  0.00  0.00    +0.134 C 
BRANCH  23  25
ATOM     24  O   UNL     1      35.120  -8.571 -25.794  0.00  0.00    -0.349 OA
ATOM     25  N   UNL     1      33.003 -11.381 -25.767  0.00  0.00    -0.312 N 
ATOM     26  N   UNL     1      34.216  -9.394 -26.453  0.00  0.00    -0.062 NA
ATOM     27  C   UNL     1      33.886 -10.332 -25.561  0.00  0.00    +0.171 C 
ATOM     28  C   UNL     1      34.545 -10.154 -24.333  0.00  0.00    +0.081 C 
ATOM     29  C   UNL     1      35.308  -9.034 -24.531  0.00  0.00    +0.215 C 
ATOM     30  H   UNL     1      32.846 -12.009 -25.024  0.00  0.00    +0.148 HD
ENDBRANCH  23  25
ENDBRANCH  20  23
ENDBRANCH   4  19
TORSDOF 4
ENDMDL
MODEL 7
REMARK VINA RESULT:     -10.7      4.648     10.809
REMARK  Name = 25184541
REMARK  4 active torsions:
REMARK  status: ('A' for Active; 'I' for Inactive)
REMARK    1  A    between atoms: C_4  and  N_19
REMARK    2  A    between atoms: C_5  and  N_11
REMARK    3  A    between atoms: C_20  and  C_23
REMARK    4  A    between atoms: C_23  and  N_25
REMARK                            x       y       z     vdW  Elec       q    Type
REMARK                         _______ _______ _______ _____ _____    ______ ____
ROOT
ATOM      1  F   UNL     1      33.603 -18.607 -26.558  0.00  0.00    -0.200 F 
ATOM      2  F   UNL     1      34.442 -20.094 -24.445  0.00  0.00    -0.200 F 
ATOM      3  F   UNL     1      34.428 -16.211 -21.709  0.00  0.00    -0.203 F 
ATOM      4  C   UNL     1      33.585 -16.646 -25.218  0.00  0.00    +0.089 C 
ATOM      5  C   UNL     1      34.447 -18.173 -23.049  0.00  0.00    +0.110 C 
ATOM      6  C   UNL     1      33.805 -18.015 -25.372  0.00  0.00    +0.182 C 
ATOM      7  C   UNL     1      33.796 -16.041 -23.979  0.00  0.00    +0.048 C 
ATOM      8  C   UNL     1      34.236 -18.778 -24.286  0.00  0.00    +0.184 C 
ATOM      9  C   UNL     1      34.227 -16.804 -22.895  0.00  0.00    +0.157 C 
ENDROOT
BRANCH   5  11
ATOM     10  O   UNL     1      36.213 -21.219 -18.832  0.00  0.00    -0.291 OA
ATOM     11  N   UNL     1      34.889 -18.949 -21.945  0.00  0.00    -0.282 N 
ATOM     12  C   UNL     1      36.247 -18.692 -21.434  0.00  0.00    +0.104 C 
ATOM     13  C   UNL     1      36.828 -19.943 -20.775  0.00  0.00    +0.091 C 
ATOM     14  C   UNL     1      34.055 -19.791 -21.225  0.00  0.00    +0.068 C 
ATOM     15  C   UNL     1      35.846 -20.603 -19.830  0.00  0.00    +0.176 C 
ATOM     16  C   UNL     1      34.412 -20.568 -20.197  0.00  0.00    +0.054 C 
ENDBRANCH   5  11
BRANCH   4  19
ATOM     17  O   UNL     1      31.924 -15.060 -28.043  0.00  0.00    -0.434 OA
ATOM     18  O   UNL     1      31.080 -16.848 -26.932  0.00  0.00    -0.226 OA
ATOM     19  N   UNL     1      33.144 -15.864 -26.324  0.00  0.00    -0.219 N 
ATOM     20  C   UNL     1      32.975 -14.110 -27.824  0.00  0.00    +0.210 C 
ATOM     21  C   UNL     1      33.950 -14.832 -26.918  0.00  0.00    +0.147 C 
ATOM     22  C   UNL     1      31.969 -16.017 -27.054  0.00  0.00    +0.409 C 
BRANCH  20  23
ATOM     23  C   UNL     1      32.382 -12.858 -27.190  0.00  0.00    +0.134 C 
BRANCH  23  25
ATOM     24  O   UNL     1      34.375 -10.750 -23.992  0.00  0.00    -0.349 OA
ATOM     25  N   UNL     1      33.357 -11.797 -27.194  0.00  0.00    -0.312 N 
ATOM     26  N   UNL     1      33.597 -11.582 -24.788  0.00  0.00    -0.062 NA
ATOM     27  C   UNL     1      33.892 -11.236 -26.045  0.00  0.00    +0.171 C 
ATOM     28  C   UNL     1      34.841 -10.201 -26.103  0.00  0.00    +0.081 C 
ATOM     29  C   UNL     1      35.112  -9.932 -24.788  0.00  0.00    +0.215 C 
ATOM     30  H   UNL     1      33.659 -11.450 -28.065  0.00  0.00    +0.148 HD
ENDBRANCH  23  25
ENDBRANCH  20  23
ENDBRANCH   4  19
TORSDOF 4
ENDMDL
MODEL 8
REMARK VINA RESULT:     -10.7      1.175      2.269
REMARK  Name = 25184541
REMARK  4 active torsions:
REMARK  status: ('A' for Active; 'I' for Inactive)
REMARK    1  A    between atoms: C_4  and  N_19
REMARK    2  A    between atoms: C_5  and  N_11
REMARK    3  A    between atoms: C_20  and  C_23
REMARK    4  A    between atoms: C_23  and  N_25
REMARK                            x       y       z     vdW  Elec       q    Type
REMARK                         _______ _______ _______ _____ _____    ______ ____
ROOT
ATOM      1  F   UNL     1      36.738 -21.069 -19.632  0.00  0.00    -0.200 F 
ATOM      2  F   UNL     1      36.612 -19.410 -21.779  0.00  0.00    -0.200 F 
ATOM      3  F   UNL     1      31.868 -19.614 -21.657  0.00  0.00    -0.203 F 
ATOM      4  C   UNL     1      34.368 -21.192 -19.542  0.00  0.00    +0.089 C 
ATOM      5  C   UNL     1      34.239 -19.490 -21.748  0.00  0.00    +0.110 C 
ATOM      6  C   UNL     1      35.542 -20.716 -20.125  0.00  0.00    +0.182 C 
ATOM      7  C   UNL     1      33.129 -20.817 -20.061  0.00  0.00    +0.048 C 
ATOM      8  C   UNL     1      35.477 -19.864 -21.228  0.00  0.00    +0.184 C 
ATOM      9  C   UNL     1      33.065 -19.967 -21.164  0.00  0.00    +0.157 C 
ENDROOT
BRANCH   5  11
ATOM     10  O   UNL     1      34.044 -16.197 -26.140  0.00  0.00    -0.291 OA
ATOM     11  N   UNL     1      34.172 -18.626 -22.872  0.00  0.00    -0.282 N 
ATOM     12  C   UNL     1      33.547 -19.153 -24.098  0.00  0.00    +0.104 C 
ATOM     13  C   UNL     1      34.111 -18.463 -25.339  0.00  0.00    +0.091 C 
ATOM     14  C   UNL     1      34.497 -17.279 -22.817  0.00  0.00    +0.068 C 
ATOM     15  C   UNL     1      34.170 -16.958 -25.183  0.00  0.00    +0.176 C 
ATOM     16  C   UNL     1      34.484 -16.419 -23.840  0.00  0.00    +0.054 C 
ENDBRANCH   5  11
BRANCH   4  19
ATOM     17  O   UNL     1      35.093 -23.074 -16.510  0.00  0.00    -0.434 OA
ATOM     18  O   UNL     1      36.395 -21.385 -17.281  0.00  0.00    -0.226 OA
ATOM     19  N   UNL     1      34.431 -22.061 -18.415  0.00  0.00    -0.219 N 
ATOM     20  C   UNL     1      33.780 -23.578 -16.793  0.00  0.00    +0.210 C 
ATOM     21  C   UNL     1      33.515 -23.153 -18.221  0.00  0.00    +0.147 C 
ATOM     22  C   UNL     1      35.395 -22.078 -17.411  0.00  0.00    +0.409 C 
BRANCH  20  23
ATOM     23  C   UNL     1      32.798 -22.977 -15.796  0.00  0.00    +0.134 C 
BRANCH  23  25
ATOM     24  O   UNL     1      28.605 -24.006 -15.827  0.00  0.00    -0.349 OA
ATOM     25  N   UNL     1      32.057 -24.026 -15.143  0.00  0.00    -0.312 N 
ATOM     26  N   UNL     1      29.864 -23.446 -16.007  0.00  0.00    -0.062 NA
ATOM     27  C   UNL     1      30.687 -24.202 -15.275  0.00  0.00    +0.171 C 
ATOM     28  C   UNL     1      30.011 -25.242 -14.616  0.00  0.00    +0.081 C 
ATOM     29  C   UNL     1      28.706 -25.076 -14.996  0.00  0.00    +0.215 C 
ATOM     30  H   UNL     1      32.552 -24.655 -14.569  0.00  0.00    +0.148 HD
ENDBRANCH  23  25
ENDBRANCH  20  23
ENDBRANCH   4  19
TORSDOF 4
ENDMDL
MODEL 9
REMARK VINA RESULT:     -10.5      2.418      9.226
REMARK  Name = 25184541
REMARK  4 active torsions:
REMARK  status: ('A' for Active; 'I' for Inactive)
REMARK    1  A    between atoms: C_4  and  N_19
REMARK    2  A    between atoms: C_5  and  N_11
REMARK    3  A    between atoms: C_20  and  C_23
REMARK    4  A    between atoms: C_23  and  N_25
REMARK                            x       y       z     vdW  Elec       q    Type
REMARK                         _______ _______ _______ _____ _____    ______ ____
ROOT
ATOM      1  F   UNL     1      32.236 -19.429 -21.533  0.00  0.00    -0.200 F 
ATOM      2  F   UNL     1      32.093 -21.036 -19.348  0.00  0.00    -0.200 F 
ATOM      3  F   UNL     1      36.812 -21.568 -19.431  0.00  0.00    -0.203 F 
ATOM      4  C   UNL     1      34.597 -19.673 -21.604  0.00  0.00    +0.089 C 
ATOM      5  C   UNL     1      34.450 -21.325 -19.361  0.00  0.00    +0.110 C 
ATOM      6  C   UNL     1      33.360 -19.952 -21.023  0.00  0.00    +0.182 C 
ATOM      7  C   UNL     1      35.761 -20.221 -21.063  0.00  0.00    +0.048 C 
ATOM      8  C   UNL     1      33.287 -20.777 -19.900  0.00  0.00    +0.184 C 
ATOM      9  C   UNL     1      35.687 -21.046 -19.942  0.00  0.00    +0.157 C 
ENDROOT
BRANCH   5  11
ATOM     10  O   UNL     1      34.087 -24.544 -14.924  0.00  0.00    -0.291 OA
ATOM     11  N   UNL     1      34.376 -22.168 -18.221  0.00  0.00    -0.282 N 
ATOM     12  C   UNL     1      33.308 -23.183 -18.195  0.00  0.00    +0.104 C 
ATOM     13  C   UNL     1      32.914 -23.524 -16.758  0.00  0.00    +0.091 C 
ATOM     14  C   UNL     1      35.350 -22.201 -17.234  0.00  0.00    +0.068 C 
ATOM     15  C   UNL     1      34.119 -23.764 -15.873  0.00  0.00    +0.176 C 
ATOM     16  C   UNL     1      35.328 -22.948 -16.126  0.00  0.00    +0.054 C 
ENDBRANCH   5  11
BRANCH   4  19
ATOM     17  O   UNL     1      34.815 -18.096 -24.878  0.00  0.00    -0.434 OA
ATOM     18  O   UNL     1      34.780 -20.342 -24.566  0.00  0.00    -0.226 OA
ATOM     19  N   UNL     1      34.676 -18.830 -22.749  0.00  0.00    -0.219 N 
ATOM     20  C   UNL     1      34.552 -16.937 -24.075  0.00  0.00    +0.210 C 
ATOM     21  C   UNL     1      34.802 -17.400 -22.655  0.00  0.00    +0.147 C 
ATOM     22  C   UNL     1      34.748 -19.218 -24.084  0.00  0.00    +0.409 C 
BRANCH  20  23
ATOM     23  C   UNL     1      33.116 -16.489 -24.314  0.00  0.00    +0.134 C 
BRANCH  23  25
ATOM     24  O   UNL     1      33.471 -14.493 -28.126  0.00  0.00    -0.349 OA
ATOM     25  N   UNL     1      33.091 -15.095 -24.680  0.00  0.00    -0.312 N 
ATOM     26  N   UNL     1      33.389 -15.393 -27.070  0.00  0.00    -0.062 NA
ATOM     27  C   UNL     1      33.223 -14.636 -25.982  0.00  0.00    +0.171 C 
ATOM     28  C   UNL     1      33.193 -13.265 -26.285  0.00  0.00    +0.081 C 
ATOM     29  C   UNL     1      33.352 -13.228 -27.646  0.00  0.00    +0.215 C 
ATOM     30  H   UNL     1      32.975 -14.430 -23.962  0.00  0.00    +0.148 HD
ENDBRANCH  23  25
ENDBRANCH  20  23
ENDBRANCH   4  19
TORSDOF 4
ENDMDL
