MODEL 1
REMARK VINA RESULT:     -12.4      0.000      0.000
REMARK  Name = 447734
REMARK  5 active torsions:
REMARK  status: ('A' for Active; 'I' for Inactive)
REMARK    1  A    between atoms: C_3  and  C_19
REMARK    2  A    between atoms: C_9  and  C_13
REMARK    3  A    between atoms: N_18  and  C_24
REMARK    4  A    between atoms: C_21  and  O_27
REMARK    5  A    between atoms: O_27  and  C_28
REMARK                            x       y       z     vdW  Elec       q    Type
REMARK                         _______ _______ _______ _____ _____    ______ ____
ROOT
ATOM      1  C   UNL     1      34.906 -20.155 -20.699  0.00  0.00    +0.000 C 
ATOM      2  C   UNL     1      33.710 -19.685 -21.291  0.00  0.00    +0.000 C 
ATOM      3  C   UNL     1      33.613 -21.720 -19.359  0.00  0.00    +0.054 C 
ATOM      4  C   UNL     1      34.840 -21.174 -19.734  0.00  0.00    +0.005 C 
ATOM      5  C   UNL     1      32.483 -20.245 -20.902  0.00  0.00    +0.000 C 
ATOM      6  C   UNL     1      32.436 -21.257 -19.942  0.00  0.00    +0.005 C 
ATOM      7  C   UNL     1      33.777 -18.665 -22.257  0.00  0.00    +0.003 C 
ATOM      8  C   UNL     1      36.133 -19.594 -21.089  0.00  0.00    +0.000 C 
ATOM      9  C   UNL     1      35.004 -18.120 -22.632  0.00  0.00    +0.031 C 
ATOM     10  C   UNL     1      36.180 -18.583 -22.050  0.00  0.00    +0.003 C 
ENDROOT
BRANCH   9  13
ATOM     11  N   UNL     1      34.865 -17.341 -24.986  0.00  0.00    -0.343 N 
ATOM     12  N   UNL     1      35.292 -15.819 -23.264  0.00  0.00    -0.285 NA
ATOM     13  C   UNL     1      35.056 -17.065 -23.633  0.00  0.00    +0.117 C 
ATOM     14  H   UNL     1      34.904 -16.611 -25.647  0.00  0.00    +0.144 HD
ATOM     15  H   UNL     1      34.691 -18.264 -25.281  0.00  0.00    +0.144 HD
ATOM     16  H   UNL     1      35.327 -15.104 -23.940  0.00  0.00    +0.188 HD
ENDBRANCH   9  13
BRANCH   3  19
ATOM     17  O   UNL     1      33.470 -23.955 -18.730  0.00  0.00    -0.270 OA
ATOM     18  N   UNL     1      33.644 -22.354 -17.023  0.00  0.00    -0.280 N 
ATOM     19  C   UNL     1      33.561 -22.774 -18.358  0.00  0.00    +0.249 C 
ATOM     20  H   UNL     1      33.712 -21.382 -16.884  0.00  0.00    +0.155 HD
BRANCH  18  24
ATOM     21  C   UNL     1      34.842 -24.175 -14.045  0.00  0.00    +0.140 C 
ATOM     22  C   UNL     1      34.842 -23.395 -15.200  0.00  0.00    +0.052 C 
ATOM     23  C   UNL     1      33.644 -24.695 -13.555  0.00  0.00    +0.037 C 
ATOM     24  C   UNL     1      33.644 -23.145 -15.849  0.00  0.00    +0.054 C 
ATOM     25  C   UNL     1      32.446 -24.435 -14.220  0.00  0.00    +0.004 C 
ATOM     26  C   UNL     1      32.446 -23.654 -15.376  0.00  0.00    +0.015 C 
BRANCH  21  27
ATOM     27  O   UNL     1      36.010 -24.430 -13.395  0.00  0.00    -0.479 OA
BRANCH  27  28
ATOM     28  C   UNL     1      36.373 -25.795 -13.228  0.00  0.00    +0.166 C 
ATOM     29  C   UNL     1      37.700 -25.879 -12.489  0.00  0.00    +0.044 C 
ATOM     30  C   UNL     1      36.689 -26.428 -14.574  0.00  0.00    +0.044 C 
ATOM     31  C   UNL     1      38.754 -25.605 -13.563  0.00  0.00    +0.004 C 
ATOM     32  C   UNL     1      38.094 -25.928 -14.903  0.00  0.00    +0.004 C 
ENDBRANCH  27  28
ENDBRANCH  21  27
ENDBRANCH  18  24
ENDBRANCH   3  19
TORSDOF 5
ENDMDL
MODEL 2
REMARK VINA RESULT:     -11.9      2.932     10.312
REMARK  Name = 447734
REMARK  5 active torsions:
REMARK  status: ('A' for Active; 'I' for Inactive)
REMARK    1  A    between atoms: C_3  and  C_19
REMARK    2  A    between atoms: C_9  and  C_13
REMARK    3  A    between atoms: N_18  and  C_24
REMARK    4  A    between atoms: C_21  and  O_27
REMARK    5  A    between atoms: O_27  and  C_28
REMARK                            x       y       z     vdW  Elec       q    Type
REMARK                         _______ _______ _______ _____ _____    ______ ____
ROOT
ATOM      1  C   UNL     1      35.271 -22.809 -16.470  0.00  0.00    +0.000 C 
ATOM      2  C   UNL     1      34.159 -23.510 -15.946  0.00  0.00    +0.000 C 
ATOM      3  C   UNL     1      33.911 -22.079 -18.350  0.00  0.00    +0.054 C 
ATOM      4  C   UNL     1      35.130 -22.098 -17.673  0.00  0.00    +0.005 C 
ATOM      5  C   UNL     1      32.939 -23.481 -16.641  0.00  0.00    +0.000 C 
ATOM      6  C   UNL     1      32.817 -22.769 -17.835  0.00  0.00    +0.005 C 
ATOM      7  C   UNL     1      34.301 -24.221 -14.742  0.00  0.00    +0.003 C 
ATOM      8  C   UNL     1      36.491 -22.839 -15.775  0.00  0.00    +0.000 C 
ATOM      9  C   UNL     1      35.520 -24.239 -14.065  0.00  0.00    +0.031 C 
ATOM     10  C   UNL     1      36.613 -23.549 -14.580  0.00  0.00    +0.003 C 
ENDROOT
BRANCH   9  13
ATOM     11  N   UNL     1      36.763 -25.777 -12.564  0.00  0.00    -0.343 N 
ATOM     12  N   UNL     1      34.695 -24.907 -11.909  0.00  0.00    -0.285 NA
ATOM     13  C   UNL     1      35.649 -24.980 -12.820  0.00  0.00    +0.117 C 
ATOM     14  H   UNL     1      36.831 -26.270 -11.714  0.00  0.00    +0.144 HD
ATOM     15  H   UNL     1      37.483 -25.847 -13.232  0.00  0.00    +0.144 HD
ATOM     16  H   UNL     1      34.781 -25.408 -11.065  0.00  0.00    +0.188 HD
ENDBRANCH   9  13
BRANCH   3  19
ATOM     17  O   UNL     1      32.719 -21.416 -20.235  0.00  0.00    -0.270 OA
ATOM     18  N   UNL     1      34.889 -20.564 -19.964  0.00  0.00    -0.280 N 
ATOM     19  C   UNL     1      33.781 -21.340 -19.595  0.00  0.00    +0.249 C 
ATOM     20  H   UNL     1      35.662 -20.605 -19.356  0.00  0.00    +0.155 HD
BRANCH  18  24
ATOM     21  C   UNL     1      34.129 -18.749 -23.087  0.00  0.00    +0.140 C 
ATOM     22  C   UNL     1      33.978 -19.570 -21.970  0.00  0.00    +0.052 C 
ATOM     23  C   UNL     1      35.342 -18.099 -23.315  0.00  0.00    +0.037 C 
ATOM     24  C   UNL     1      35.042 -19.729 -21.098  0.00  0.00    +0.054 C 
ATOM     25  C   UNL     1      36.404 -18.271 -22.427  0.00  0.00    +0.004 C 
ATOM     26  C   UNL     1      36.253 -19.091 -21.310  0.00  0.00    +0.015 C 
BRANCH  21  27
ATOM     27  O   UNL     1      33.095 -18.582 -23.954  0.00  0.00    -0.479 OA
BRANCH  27  28
ATOM     28  C   UNL     1      33.378 -18.742 -25.339  0.00  0.00    +0.166 C 
ATOM     29  C   UNL     1      33.888 -17.426 -25.906  0.00  0.00    +0.044 C 
ATOM     30  C   UNL     1      32.094 -18.978 -26.118  0.00  0.00    +0.044 C 
ATOM     31  C   UNL     1      32.626 -16.595 -26.138  0.00  0.00    +0.004 C 
ATOM     32  C   UNL     1      31.471 -17.589 -26.242  0.00  0.00    +0.004 C 
ENDBRANCH  27  28
ENDBRANCH  21  27
ENDBRANCH  18  24
ENDBRANCH   3  19
TORSDOF 5
ENDMDL
MODEL 3
REMARK VINA RESULT:     -11.9      4.398     11.880
REMARK  Name = 447734
REMARK  5 active torsions:
REMARK  status: ('A' for Active; 'I' for Inactive)
REMARK    1  A    between atoms: C_3  and  C_19
REMARK    2  A    between atoms: C_9  and  C_13
REMARK    3  A    between atoms: N_18  and  C_24
REMARK    4  A    between atoms: C_21  and  O_27
REMARK    5  A    between atoms: O_27  and  C_28
REMARK                            x       y       z     vdW  Elec       q    Type
REMARK                         _______ _______ _______ _____ _____    ______ ____
ROOT
ATOM      1  C   UNL     1      33.885 -20.278 -20.654  0.00  0.00    +0.000 C 
ATOM      2  C   UNL     1      35.196 -20.446 -20.150  0.00  0.00    +0.000 C 
ATOM      3  C   UNL     1      34.735 -18.716 -22.313  0.00  0.00    +0.054 C 
ATOM      4  C   UNL     1      33.671 -19.409 -21.736  0.00  0.00    +0.005 C 
ATOM      5  C   UNL     1      36.256 -19.740 -20.743  0.00  0.00    +0.000 C 
ATOM      6  C   UNL     1      36.025 -18.881 -21.817  0.00  0.00    +0.005 C 
ATOM      7  C   UNL     1      35.410 -21.316 -19.068  0.00  0.00    +0.003 C 
ATOM      8  C   UNL     1      32.826 -20.985 -20.061  0.00  0.00    +0.000 C 
ATOM      9  C   UNL     1      34.346 -22.011 -18.491  0.00  0.00    +0.031 C 
ATOM     10  C   UNL     1      33.056 -21.845 -18.987  0.00  0.00    +0.003 C 
ENDROOT
BRANCH   9  13
ATOM     11  N   UNL     1      35.702 -22.761 -16.551  0.00  0.00    -0.343 N 
ATOM     12  N   UNL     1      33.735 -23.887 -17.120  0.00  0.00    -0.285 NA
ATOM     13  C   UNL     1      34.585 -22.907 -17.371  0.00  0.00    +0.117 C 
ATOM     14  H   UNL     1      35.843 -23.379 -15.797  0.00  0.00    +0.144 HD
ATOM     15  H   UNL     1      36.348 -22.038 -16.724  0.00  0.00    +0.144 HD
ATOM     16  H   UNL     1      33.894 -24.495 -16.362  0.00  0.00    +0.188 HD
ENDBRANCH   9  13
BRANCH   3  19
ATOM     17  O   UNL     1      35.311 -16.908 -23.660  0.00  0.00    -0.270 OA
ATOM     18  N   UNL     1      33.349 -18.081 -24.194  0.00  0.00    -0.280 N 
ATOM     19  C   UNL     1      34.497 -17.818 -23.433  0.00  0.00    +0.249 C 
ATOM     20  H   UNL     1      32.799 -18.838 -23.890  0.00  0.00    +0.155 HD
BRANCH  18  24
ATOM     21  C   UNL     1      32.842 -15.432 -26.714  0.00  0.00    +0.140 C 
ATOM     22  C   UNL     1      33.306 -16.104 -25.584  0.00  0.00    +0.052 C 
ATOM     23  C   UNL     1      31.957 -16.066 -27.587  0.00  0.00    +0.037 C 
ATOM     24  C   UNL     1      32.879 -17.399 -25.343  0.00  0.00    +0.054 C 
ATOM     25  C   UNL     1      31.537 -17.370 -27.329  0.00  0.00    +0.004 C 
ATOM     26  C   UNL     1      32.001 -18.042 -26.199  0.00  0.00    +0.015 C 
BRANCH  21  27
ATOM     27  O   UNL     1      33.251 -14.160 -26.965  0.00  0.00    -0.479 OA
BRANCH  27  28
ATOM     28  C   UNL     1      32.400 -13.108 -26.527  0.00  0.00    +0.166 C 
ATOM     29  C   UNL     1      32.682 -11.856 -27.344  0.00  0.00    +0.044 C 
ATOM     30  C   UNL     1      32.766 -12.684 -25.113  0.00  0.00    +0.044 C 
ATOM     31  C   UNL     1      33.941 -11.262 -26.713  0.00  0.00    +0.004 C 
ATOM     32  C   UNL     1      34.012 -11.819 -25.292  0.00  0.00    +0.004 C 
ENDBRANCH  27  28
ENDBRANCH  21  27
ENDBRANCH  18  24
ENDBRANCH   3  19
TORSDOF 5
ENDMDL
MODEL 4
REMARK VINA RESULT:     -11.7      5.045     12.359
REMARK  Name = 447734
REMARK  5 active torsions:
REMARK  status: ('A' for Active; 'I' for Inactive)
REMARK    1  A    between atoms: C_3  and  C_19
REMARK    2  A    between atoms: C_9  and  C_13
REMARK    3  A    between atoms: N_18  and  C_24
REMARK    4  A    between atoms: C_21  and  O_27
REMARK    5  A    between atoms: O_27  and  C_28
REMARK                            x       y       z     vdW  Elec       q    Type
REMARK                         _______ _______ _______ _____ _____    ______ ____
ROOT
ATOM      1  C   UNL     1      33.829 -19.804 -21.203  0.00  0.00    +0.000 C 
ATOM      2  C   UNL     1      35.143 -20.008 -20.719  0.00  0.00    +0.000 C 
ATOM      3  C   UNL     1      34.687 -18.210 -22.827  0.00  0.00    +0.054 C 
ATOM      4  C   UNL     1      33.618 -18.902 -22.258  0.00  0.00    +0.005 C 
ATOM      5  C   UNL     1      36.207 -19.304 -21.303  0.00  0.00    +0.000 C 
ATOM      6  C   UNL     1      35.979 -18.411 -22.351  0.00  0.00    +0.005 C 
ATOM      7  C   UNL     1      35.353 -20.911 -19.663  0.00  0.00    +0.003 C 
ATOM      8  C   UNL     1      32.764 -20.509 -20.617  0.00  0.00    +0.000 C 
ATOM      9  C   UNL     1      34.284 -21.603 -19.093  0.00  0.00    +0.031 C 
ATOM     10  C   UNL     1      32.992 -21.402 -19.570  0.00  0.00    +0.003 C 
ENDROOT
BRANCH   9  13
ATOM     11  N   UNL     1      35.614 -22.391 -17.151  0.00  0.00    -0.343 N 
ATOM     12  N   UNL     1      33.689 -23.542 -17.806  0.00  0.00    -0.285 NA
ATOM     13  C   UNL     1      34.520 -22.534 -18.001  0.00  0.00    +0.117 C 
ATOM     14  H   UNL     1      35.754 -23.033 -16.417  0.00  0.00    +0.144 HD
ATOM     15  H   UNL     1      36.247 -21.648 -17.282  0.00  0.00    +0.144 HD
ATOM     16  H   UNL     1      33.846 -24.174 -17.067  0.00  0.00    +0.188 HD
ENDBRANCH   9  13
BRANCH   3  19
ATOM     17  O   UNL     1      34.644 -17.656 -25.087  0.00  0.00    -0.270 OA
ATOM     18  N   UNL     1      33.993 -16.007 -23.549  0.00  0.00    -0.280 N 
ATOM     19  C   UNL     1      34.452 -17.279 -23.919  0.00  0.00    +0.249 C 
ATOM     20  H   UNL     1      33.889 -15.854 -22.583  0.00  0.00    +0.155 HD
BRANCH  18  24
ATOM     21  C   UNL     1      33.465 -12.547 -24.721  0.00  0.00    +0.140 C 
ATOM     22  C   UNL     1      33.795 -13.623 -23.899  0.00  0.00    +0.052 C 
ATOM     23  C   UNL     1      33.005 -12.776 -26.018  0.00  0.00    +0.037 C 
ATOM     24  C   UNL     1      33.659 -14.913 -24.385  0.00  0.00    +0.054 C 
ATOM     25  C   UNL     1      32.873 -14.081 -26.491  0.00  0.00    +0.004 C 
ATOM     26  C   UNL     1      33.203 -15.157 -25.669  0.00  0.00    +0.015 C 
BRANCH  21  27
ATOM     27  O   UNL     1      33.593 -11.273 -24.260  0.00  0.00    -0.479 OA
BRANCH  27  28
ATOM     28  C   UNL     1      33.679 -10.238 -25.232  0.00  0.00    +0.166 C 
ATOM     29  C   UNL     1      35.130  -9.804 -25.380  0.00  0.00    +0.044 C 
ATOM     30  C   UNL     1      32.994  -8.979 -24.727  0.00  0.00    +0.044 C 
ATOM     31  C   UNL     1      35.374  -8.873 -24.193  0.00  0.00    +0.004 C 
ATOM     32  C   UNL     1      34.000  -8.368 -23.754  0.00  0.00    +0.004 C 
ENDBRANCH  27  28
ENDBRANCH  21  27
ENDBRANCH  18  24
ENDBRANCH   3  19
TORSDOF 5
ENDMDL
MODEL 5
REMARK VINA RESULT:     -11.5      3.172      5.226
REMARK  Name = 447734
REMARK  5 active torsions:
REMARK  status: ('A' for Active; 'I' for Inactive)
REMARK    1  A    between atoms: C_3  and  C_19
REMARK    2  A    between atoms: C_9  and  C_13
REMARK    3  A    between atoms: N_18  and  C_24
REMARK    4  A    between atoms: C_21  and  O_27
REMARK    5  A    between atoms: O_27  and  C_28
REMARK                            x       y       z     vdW  Elec       q    Type
REMARK                         _______ _______ _______ _____ _____    ______ ____
ROOT
ATOM      1  C   UNL     1      33.673 -18.494 -24.045  0.00  0.00    +0.000 C 
ATOM      2  C   UNL     1      34.050 -17.131 -24.101  0.00  0.00    +0.000 C 
ATOM      3  C   UNL     1      34.848 -18.719 -21.927  0.00  0.00    +0.054 C 
ATOM      4  C   UNL     1      34.081 -19.274 -22.951  0.00  0.00    +0.005 C 
ATOM      5  C   UNL     1      34.822 -16.588 -23.062  0.00  0.00    +0.000 C 
ATOM      6  C   UNL     1      35.218 -17.378 -21.982  0.00  0.00    +0.005 C 
ATOM      7  C   UNL     1      33.642 -16.350 -25.196  0.00  0.00    +0.003 C 
ATOM      8  C   UNL     1      32.900 -19.037 -25.085  0.00  0.00    +0.000 C 
ATOM      9  C   UNL     1      32.874 -16.906 -26.220  0.00  0.00    +0.031 C 
ATOM     10  C   UNL     1      32.504 -18.246 -26.164  0.00  0.00    +0.003 C 
ENDROOT
BRANCH   9  13
ATOM     11  N   UNL     1      31.178 -16.184 -27.883  0.00  0.00    -0.343 N 
ATOM     12  N   UNL     1      33.310 -15.227 -27.883  0.00  0.00    -0.285 NA
ATOM     13  C   UNL     1      32.460 -16.084 -27.346  0.00  0.00    +0.117 C 
ATOM     14  H   UNL     1      30.919 -15.617 -28.646  0.00  0.00    +0.144 HD
ATOM     15  H   UNL     1      30.531 -16.819 -27.499  0.00  0.00    +0.144 HD
ATOM     16  H   UNL     1      33.032 -14.669 -28.645  0.00  0.00    +0.188 HD
ENDBRANCH   9  13
BRANCH   3  19
ATOM     17  O   UNL     1      36.402 -19.389 -20.330  0.00  0.00    -0.270 OA
ATOM     18  N   UNL     1      34.304 -20.441 -20.315  0.00  0.00    -0.280 N 
ATOM     19  C   UNL     1      35.262 -19.540 -20.801  0.00  0.00    +0.249 C 
ATOM     20  H   UNL     1      33.444 -20.448 -20.792  0.00  0.00    +0.155 HD
BRANCH  18  24
ATOM     21  C   UNL     1      33.382 -22.864 -17.688  0.00  0.00    +0.140 C 
ATOM     22  C   UNL     1      33.275 -21.979 -18.760  0.00  0.00    +0.052 C 
ATOM     23  C   UNL     1      34.625 -23.099 -17.099  0.00  0.00    +0.037 C 
ATOM     24  C   UNL     1      34.413 -21.341 -19.227  0.00  0.00    +0.054 C 
ATOM     25  C   UNL     1      35.760 -22.448 -17.581  0.00  0.00    +0.004 C 
ATOM     26  C   UNL     1      35.653 -21.563 -18.653  0.00  0.00    +0.015 C 
BRANCH  21  27
ATOM     27  O   UNL     1      32.275 -23.499 -17.216  0.00  0.00    -0.479 OA
BRANCH  27  28
ATOM     28  C   UNL     1      31.453 -22.777 -16.307  0.00  0.00    +0.166 C 
ATOM     29  C   UNL     1      31.805 -23.174 -14.882  0.00  0.00    +0.044 C 
ATOM     30  C   UNL     1      30.004 -23.219 -16.439  0.00  0.00    +0.044 C 
ATOM     31  C   UNL     1      31.084 -24.505 -14.665  0.00  0.00    +0.004 C 
ATOM     32  C   UNL     1      29.947 -24.546 -15.686  0.00  0.00    +0.004 C 
ENDBRANCH  27  28
ENDBRANCH  21  27
ENDBRANCH  18  24
ENDBRANCH   3  19
TORSDOF 5
ENDMDL
MODEL 6
REMARK VINA RESULT:     -11.4      3.186     10.497
REMARK  Name = 447734
REMARK  5 active torsions:
REMARK  status: ('A' for Active; 'I' for Inactive)
REMARK    1  A    between atoms: C_3  and  C_19
REMARK    2  A    between atoms: C_9  and  C_13
REMARK    3  A    between atoms: N_18  and  C_24
REMARK    4  A    between atoms: C_21  and  O_27
REMARK    5  A    between atoms: O_27  and  C_28
REMARK                            x       y       z     vdW  Elec       q    Type
REMARK                         _______ _______ _______ _____ _____    ______ ____
ROOT
ATOM      1  C   UNL     1      32.720 -22.925 -17.248  0.00  0.00    +0.000 C 
ATOM      2  C   UNL     1      33.579 -23.297 -16.187  0.00  0.00    +0.000 C 
ATOM      3  C   UNL     1      34.627 -22.023 -18.459  0.00  0.00    +0.054 C 
ATOM      4  C   UNL     1      33.261 -22.288 -18.377  0.00  0.00    +0.005 C 
ATOM      5  C   UNL     1      34.952 -23.023 -16.285  0.00  0.00    +0.000 C 
ATOM      6  C   UNL     1      35.472 -22.389 -17.414  0.00  0.00    +0.005 C 
ATOM      7  C   UNL     1      33.038 -23.935 -15.057  0.00  0.00    +0.003 C 
ATOM      8  C   UNL     1      31.346 -23.200 -17.149  0.00  0.00    +0.000 C 
ATOM      9  C   UNL     1      31.671 -24.201 -14.976  0.00  0.00    +0.031 C 
ATOM     10  C   UNL     1      30.827 -23.835 -16.020  0.00  0.00    +0.003 C 
ENDROOT
BRANCH   9  13
ATOM     11  N   UNL     1      29.765 -25.133 -13.686  0.00  0.00    -0.343 N 
ATOM     12  N   UNL     1      31.930 -25.209 -12.810  0.00  0.00    -0.285 NA
ATOM     13  C   UNL     1      31.127 -24.861 -13.800  0.00  0.00    +0.117 C 
ATOM     14  H   UNL     1      29.418 -25.582 -12.881  0.00  0.00    +0.144 HD
ATOM     15  H   UNL     1      29.150 -24.879 -14.412  0.00  0.00    +0.144 HD
ATOM     16  H   UNL     1      31.564 -25.657 -12.013  0.00  0.00    +0.188 HD
ENDBRANCH   9  13
BRANCH   3  19
ATOM     17  O   UNL     1      36.221 -21.794 -20.138  0.00  0.00    -0.270 OA
ATOM     18  N   UNL     1      34.429 -20.279 -20.125  0.00  0.00    -0.280 N 
ATOM     19  C   UNL     1      35.171 -21.362 -19.634  0.00  0.00    +0.249 C 
ATOM     20  H   UNL     1      33.617 -20.052 -19.618  0.00  0.00    +0.155 HD
BRANCH  18  24
ATOM     21  C   UNL     1      33.958 -18.458 -23.301  0.00  0.00    +0.140 C 
ATOM     22  C   UNL     1      33.694 -19.255 -22.188  0.00  0.00    +0.052 C 
ATOM     23  C   UNL     1      35.219 -17.885 -23.466  0.00  0.00    +0.037 C 
ATOM     24  C   UNL     1      34.696 -19.468 -21.256  0.00  0.00    +0.054 C 
ATOM     25  C   UNL     1      36.217 -18.110 -22.517  0.00  0.00    +0.004 C 
ATOM     26  C   UNL     1      35.953 -18.907 -21.404  0.00  0.00    +0.015 C 
BRANCH  21  27
ATOM     27  O   UNL     1      32.985 -18.238 -24.227  0.00  0.00    -0.479 OA
BRANCH  27  28
ATOM     28  C   UNL     1      33.344 -18.401 -25.594  0.00  0.00    +0.166 C 
ATOM     29  C   UNL     1      33.818 -17.068 -26.153  0.00  0.00    +0.044 C 
ATOM     30  C   UNL     1      32.114 -18.707 -26.432  0.00  0.00    +0.044 C 
ATOM     31  C   UNL     1      32.531 -16.301 -26.458  0.00  0.00    +0.004 C 
ATOM     32  C   UNL     1      31.431 -17.353 -26.606  0.00  0.00    +0.004 C 
ENDBRANCH  27  28
ENDBRANCH  21  27
ENDBRANCH  18  24
ENDBRANCH   3  19
TORSDOF 5
ENDMDL
MODEL 7
REMARK VINA RESULT:     -11.4      3.493     10.887
REMARK  Name = 447734
REMARK  5 active torsions:
REMARK  status: ('A' for Active; 'I' for Inactive)
REMARK    1  A    between atoms: C_3  and  C_19
REMARK    2  A    between atoms: C_9  and  C_13
REMARK    3  A    between atoms: N_18  and  C_24
REMARK    4  A    between atoms: C_21  and  O_27
REMARK    5  A    between atoms: O_27  and  C_28
REMARK                            x       y       z     vdW  Elec       q    Type
REMARK                         _______ _______ _______ _____ _____    ______ ____
ROOT
ATOM      1  C   UNL     1      35.743 -21.657 -18.172  0.00  0.00    +0.000 C 
ATOM      2  C   UNL     1      34.461 -22.238 -18.030  0.00  0.00    +0.000 C 
ATOM      3  C   UNL     1      34.998 -20.535 -20.198  0.00  0.00    +0.054 C 
ATOM      4  C   UNL     1      35.996 -20.808 -19.262  0.00  0.00    +0.005 C 
ATOM      5  C   UNL     1      33.468 -21.953 -18.981  0.00  0.00    +0.000 C 
ATOM      6  C   UNL     1      33.737 -21.107 -20.057  0.00  0.00    +0.005 C 
ATOM      7  C   UNL     1      34.208 -23.087 -16.939  0.00  0.00    +0.003 C 
ATOM      8  C   UNL     1      36.736 -21.943 -17.220  0.00  0.00    +0.000 C 
ATOM      9  C   UNL     1      35.206 -23.359 -16.002  0.00  0.00    +0.031 C 
ATOM     10  C   UNL     1      36.468 -22.788 -16.143  0.00  0.00    +0.003 C 
ENDROOT
BRANCH   9  13
ATOM     11  N   UNL     1      35.263 -25.592 -14.919  0.00  0.00    -0.343 N 
ATOM     12  N   UNL     1      34.342 -23.762 -13.797  0.00  0.00    -0.285 NA
ATOM     13  C   UNL     1      34.928 -24.240 -14.879  0.00  0.00    +0.117 C 
ATOM     14  H   UNL     1      35.067 -26.171 -14.147  0.00  0.00    +0.144 HD
ATOM     15  H   UNL     1      35.698 -25.969 -15.719  0.00  0.00    +0.144 HD
ATOM     16  H   UNL     1      34.153 -24.357 -13.035  0.00  0.00    +0.188 HD
ENDBRANCH   9  13
BRANCH   3  19
ATOM     17  O   UNL     1      36.421 -19.194 -21.458  0.00  0.00    -0.270 OA
ATOM     18  N   UNL     1      34.202 -19.415 -22.190  0.00  0.00    -0.280 N 
ATOM     19  C   UNL     1      35.276 -19.655 -21.321  0.00  0.00    +0.249 C 
ATOM     20  H   UNL     1      33.353 -19.850 -21.951  0.00  0.00    +0.155 HD
BRANCH  18  24
ATOM     21  C   UNL     1      34.216 -16.475 -24.422  0.00  0.00    +0.140 C 
ATOM     22  C   UNL     1      34.239 -17.249 -23.262  0.00  0.00    +0.052 C 
ATOM     23  C   UNL     1      34.136 -17.092 -25.670  0.00  0.00    +0.037 C 
ATOM     24  C   UNL     1      34.181 -18.629 -23.368  0.00  0.00    +0.054 C 
ATOM     25  C   UNL     1      34.078 -18.483 -25.759  0.00  0.00    +0.004 C 
ATOM     26  C   UNL     1      34.101 -19.257 -24.600  0.00  0.00    +0.015 C 
BRANCH  21  27
ATOM     27  O   UNL     1      34.273 -15.119 -24.336  0.00  0.00    -0.479 OA
BRANCH  27  28
ATOM     28  C   UNL     1      33.037 -14.415 -24.384  0.00  0.00    +0.166 C 
ATOM     29  C   UNL     1      32.982 -13.578 -25.653  0.00  0.00    +0.044 C 
ATOM     30  C   UNL     1      32.978 -13.371 -23.281  0.00  0.00    +0.044 C 
ATOM     31  C   UNL     1      33.813 -12.337 -25.329  0.00  0.00    +0.004 C 
ATOM     32  C   UNL     1      33.837 -12.222 -23.805  0.00  0.00    +0.004 C 
ENDBRANCH  27  28
ENDBRANCH  21  27
ENDBRANCH  18  24
ENDBRANCH   3  19
TORSDOF 5
ENDMDL
MODEL 8
REMARK VINA RESULT:     -11.1      7.636     14.263
REMARK  Name = 447734
REMARK  5 active torsions:
REMARK  status: ('A' for Active; 'I' for Inactive)
REMARK    1  A    between atoms: C_3  and  C_19
REMARK    2  A    between atoms: C_9  and  C_13
REMARK    3  A    between atoms: N_18  and  C_24
REMARK    4  A    between atoms: C_21  and  O_27
REMARK    5  A    between atoms: O_27  and  C_28
REMARK                            x       y       z     vdW  Elec       q    Type
REMARK                         _______ _______ _______ _____ _____    ______ ____
ROOT
ATOM      1  C   UNL     1      34.527 -16.407 -23.091  0.00  0.00    +0.000 C 
ATOM      2  C   UNL     1      34.650 -16.246 -21.691  0.00  0.00    +0.000 C 
ATOM      3  C   UNL     1      34.046 -14.033 -23.311  0.00  0.00    +0.054 C 
ATOM      4  C   UNL     1      34.224 -15.291 -23.887  0.00  0.00    +0.005 C 
ATOM      5  C   UNL     1      34.467 -14.973 -21.127  0.00  0.00    +0.000 C 
ATOM      6  C   UNL     1      34.167 -13.874 -21.934  0.00  0.00    +0.005 C 
ATOM      7  C   UNL     1      34.953 -17.363 -20.894  0.00  0.00    +0.003 C 
ATOM      8  C   UNL     1      34.710 -17.681 -23.654  0.00  0.00    +0.000 C 
ATOM      9  C   UNL     1      35.133 -18.621 -21.471  0.00  0.00    +0.031 C 
ATOM     10  C   UNL     1      35.012 -18.779 -22.848  0.00  0.00    +0.003 C 
ENDROOT
BRANCH   9  13
ATOM     11  N   UNL     1      34.524 -20.793 -20.433  0.00  0.00    -0.343 N 
ATOM     12  N   UNL     1      36.623 -19.845 -20.037  0.00  0.00    -0.285 NA
ATOM     13  C   UNL     1      35.446 -19.767 -20.632  0.00  0.00    +0.117 C 
ATOM     14  H   UNL     1      34.757 -21.560 -19.862  0.00  0.00    +0.144 HD
ATOM     15  H   UNL     1      33.640 -20.751 -20.866  0.00  0.00    +0.144 HD
ATOM     16  H   UNL     1      36.837 -20.620 -19.469  0.00  0.00    +0.188 HD
ENDBRANCH   9  13
BRANCH   3  19
ATOM     17  O   UNL     1      32.847 -12.997 -25.015  0.00  0.00    -0.270 OA
ATOM     18  N   UNL     1      34.458 -11.718 -23.885  0.00  0.00    -0.280 N 
ATOM     19  C   UNL     1      33.731 -12.887 -24.150  0.00  0.00    +0.249 C 
ATOM     20  H   UNL     1      35.128 -11.784 -23.167  0.00  0.00    +0.155 HD
BRANCH  18  24
ATOM     21  C   UNL     1      33.327  -8.292 -24.662  0.00  0.00    +0.140 C 
ATOM     22  C   UNL     1      33.431  -9.535 -24.041  0.00  0.00    +0.052 C 
ATOM     23  C   UNL     1      34.148  -7.984 -25.748  0.00  0.00    +0.037 C 
ATOM     24  C   UNL     1      34.354 -10.454 -24.515  0.00  0.00    +0.054 C 
ATOM     25  C   UNL     1      35.071  -8.920 -26.213  0.00  0.00    +0.004 C 
ATOM     26  C   UNL     1      35.175 -10.164 -25.591  0.00  0.00    +0.015 C 
BRANCH  21  27
ATOM     27  O   UNL     1      32.427  -7.378 -24.210  0.00  0.00    -0.479 OA
BRANCH  27  28
ATOM     28  C   UNL     1      31.904  -7.577 -22.902  0.00  0.00    +0.166 C 
ATOM     29  C   UNL     1      30.489  -7.021 -22.834  0.00  0.00    +0.044 C 
ATOM     30  C   UNL     1      32.657  -6.724 -21.894  0.00  0.00    +0.044 C 
ATOM     31  C   UNL     1      30.678  -5.514 -22.659  0.00  0.00    +0.004 C 
ATOM     32  C   UNL     1      32.082  -5.322 -22.085  0.00  0.00    +0.004 C 
ENDBRANCH  27  28
ENDBRANCH  21  27
ENDBRANCH  18  24
ENDBRANCH   3  19
TORSDOF 5
ENDMDL
MODEL 9
REMARK VINA RESULT:     -10.8      1.403      3.411
REMARK  Name = 447734
REMARK  5 active torsions:
REMARK  status: ('A' for Active; 'I' for Inactive)
REMARK    1  A    between atoms: C_3  and  C_19
REMARK    2  A    between atoms: C_9  and  C_13
REMARK    3  A    between atoms: N_18  and  C_24
REMARK    4  A    between atoms: C_21  and  O_27
REMARK    5  A    between atoms: O_27  and  C_28
REMARK                            x       y       z     vdW  Elec       q    Type
REMARK                         _______ _______ _______ _____ _____    ______ ____
ROOT
ATOM      1  C   UNL     1      35.041 -19.894 -20.883  0.00  0.00    +0.000 C 
ATOM      2  C   UNL     1      33.802 -19.491 -21.436  0.00  0.00    +0.000 C 
ATOM      3  C   UNL     1      33.882 -21.537 -19.514  0.00  0.00    +0.054 C 
ATOM      4  C   UNL     1      35.063 -20.918 -19.923  0.00  0.00    +0.005 C 
ATOM      5  C   UNL     1      32.622 -20.124 -21.013  0.00  0.00    +0.000 C 
ATOM      6  C   UNL     1      32.664 -21.141 -20.058  0.00  0.00    +0.005 C 
ATOM      7  C   UNL     1      33.779 -18.466 -22.397  0.00  0.00    +0.003 C 
ATOM      8  C   UNL     1      36.220 -19.260 -21.307  0.00  0.00    +0.000 C 
ATOM      9  C   UNL     1      34.960 -17.848 -22.807  0.00  0.00    +0.031 C 
ATOM     10  C   UNL     1      36.179 -18.244 -22.263  0.00  0.00    +0.003 C 
ENDROOT
BRANCH   9  13
ATOM     11  N   UNL     1      34.845 -15.447 -23.430  0.00  0.00    -0.343 N 
ATOM     12  N   UNL     1      34.947 -17.091 -25.087  0.00  0.00    -0.285 NA
ATOM     13  C   UNL     1      34.919 -16.788 -23.802  0.00  0.00    +0.117 C 
ATOM     14  H   UNL     1      34.818 -14.745 -24.121  0.00  0.00    +0.144 HD
ATOM     15  H   UNL     1      34.819 -15.201 -22.477  0.00  0.00    +0.144 HD
ATOM     16  H   UNL     1      34.920 -16.375 -25.763  0.00  0.00    +0.188 HD
ENDBRANCH   9  13
BRANCH   3  19
ATOM     17  O   UNL     1      33.514 -23.728 -18.824  0.00  0.00    -0.270 OA
ATOM     18  N   UNL     1      34.457 -22.243 -17.271  0.00  0.00    -0.280 N 
ATOM     19  C   UNL     1      33.923 -22.596 -18.518  0.00  0.00    +0.249 C 
ATOM     20  H   UNL     1      34.739 -21.305 -17.177  0.00  0.00    +0.155 HD
BRANCH  18  24
ATOM     21  C   UNL     1      33.720 -24.305 -14.300  0.00  0.00    +0.140 C 
ATOM     22  C   UNL     1      33.536 -23.502 -15.425  0.00  0.00    +0.052 C 
ATOM     23  C   UNL     1      35.009 -24.654 -13.896  0.00  0.00    +0.037 C 
ATOM     24  C   UNL     1      34.644 -23.060 -16.129  0.00  0.00    +0.054 C 
ATOM     25  C   UNL     1      36.113 -24.199 -14.615  0.00  0.00    +0.004 C 
ATOM     26  C   UNL     1      35.929 -23.396 -15.741  0.00  0.00    +0.015 C 
BRANCH  21  27
ATOM     27  O   UNL     1      32.643 -24.749 -13.597  0.00  0.00    -0.479 OA
BRANCH  27  28
ATOM     28  C   UNL     1      31.565 -23.838 -13.422  0.00  0.00    +0.166 C 
ATOM     29  C   UNL     1      30.331 -24.598 -12.958  0.00  0.00    +0.044 C 
ATOM     30  C   UNL     1      31.132 -23.266 -14.762  0.00  0.00    +0.044 C 
ATOM     31  C   UNL     1      29.760 -25.216 -14.235  0.00  0.00    +0.004 C 
ATOM     32  C   UNL     1      30.300 -24.379 -15.394  0.00  0.00    +0.004 C 
ENDBRANCH  27  28
ENDBRANCH  21  27
ENDBRANCH  18  24
ENDBRANCH   3  19
TORSDOF 5
ENDMDL
