MODEL 1
REMARK VINA RESULT:     -12.9      0.000      0.000
REMARK  Name = 5287728
REMARK  9 active torsions:
REMARK  status: ('A' for Active; 'I' for Inactive)
REMARK    1  A    between atoms: S_1  and  N_4
REMARK    2  A    between atoms: S_1  and  N_22
REMARK    3  A    between atoms: C_5  and  N_10
REMARK    4  A    between atoms: N_10  and  C_13
REMARK    5  A    between atoms: C_13  and  C_14
REMARK    6  A    between atoms: C_15  and  O_20
REMARK    7  A    between atoms: N_22  and  C_24
REMARK    8  A    between atoms: C_27  and  O_30
REMARK    9  A    between atoms: O_30  and  C_32
REMARK                            x       y       z     vdW  Elec       q    Type
REMARK                         _______ _______ _______ _____ _____    ______ ____
ROOT
ATOM      1  S   UNL     1      35.706 -18.841 -21.064  0.00  0.00    +0.113 S 
ATOM      2  O   UNL     1      35.161 -17.561 -20.647  0.00  0.00    -0.138 OA
ATOM      3  O   UNL     1      37.139 -19.070 -21.022  0.00  0.00    -0.138 OA
ENDROOT
BRANCH   1   4
ATOM      4  N   UNL     1      34.931 -20.071 -20.155  0.00  0.00    -0.143 NA
ATOM      5  C   UNL     1      33.688 -22.515 -19.187  0.00  0.00    -0.059 C 
ATOM      6  C   UNL     1      32.864 -21.277 -19.557  0.00  0.00    -0.002 C 
ATOM      7  C   UNL     1      35.103 -22.103 -18.767  0.00  0.00    -0.002 C 
ATOM      8  C   UNL     1      33.568 -20.451 -20.631  0.00  0.00    +0.095 C 
ATOM      9  C   UNL     1      35.774 -21.265 -19.851  0.00  0.00    +0.095 C 
BRANCH   5  10
ATOM     10  N   UNL     1      33.035 -23.245 -18.103  0.00  0.00    +0.388 N 
ATOM     11  H   UNL     1      33.719 -23.439 -17.371  0.00  0.00    -0.084 HD
ATOM     12  H   UNL     1      32.657 -24.116 -18.476  0.00  0.00    -0.084 HD
BRANCH  10  13
ATOM     13  C   UNL     1      31.942 -22.465 -17.541  0.00  0.00    -0.051 C 
BRANCH  13  14
ATOM     14  C   UNL     1      31.315 -23.152 -16.357  0.00  0.00    -0.010 C 
ATOM     15  C   UNL     1      29.935 -23.163 -16.203  0.00  0.00    +0.128 C 
ATOM     16  C   UNL     1      32.141 -23.772 -15.428  0.00  0.00    -0.003 C 
ATOM     17  C   UNL     1      29.370 -23.803 -15.100  0.00  0.00    +0.036 C 
ATOM     18  C   UNL     1      31.576 -24.413 -14.325  0.00  0.00    -0.000 C 
ATOM     19  C   UNL     1      30.192 -24.429 -14.161  0.00  0.00    +0.003 C 
BRANCH  15  20
ATOM     20  O   UNL     1      29.119 -22.557 -17.111  0.00  0.00    -0.506 OA
ATOM     21  H   UNL     1      28.333 -22.134 -16.825  0.00  0.00    +0.292 HD
ENDBRANCH  15  20
ENDBRANCH  13  14
ENDBRANCH  10  13
ENDBRANCH   5  10
ENDBRANCH   1   4
BRANCH   1  22
ATOM     22  N   UNL     1      35.098 -19.178 -22.644  0.00  0.00    -0.205 N 
ATOM     23  H   UNL     1      35.096 -20.091 -23.012  0.00  0.00    +0.175 HD
BRANCH  22  24
ATOM     24  C   UNL     1      34.593 -18.060 -23.398  0.00  0.00    +0.069 C 
ATOM     25  C   UNL     1      34.872 -16.766 -22.976  0.00  0.00    +0.053 C 
ATOM     26  C   UNL     1      33.833 -18.289 -24.538  0.00  0.00    +0.016 C 
ATOM     27  C   UNL     1      34.381 -15.684 -23.707  0.00  0.00    +0.147 C 
ATOM     28  C   UNL     1      33.344 -17.207 -25.268  0.00  0.00    +0.004 C 
ATOM     29  C   UNL     1      33.618 -15.904 -24.853  0.00  0.00    +0.038 C 
BRANCH  27  30
ATOM     30  O   UNL     1      34.648 -14.412 -23.300  0.00  0.00    -0.453 OA
BRANCH  30  32
ATOM     31  F   UNL     1      30.738 -11.753 -20.511  0.00  0.00    -0.204 F 
ATOM     32  C   UNL     1      33.662 -13.741 -22.596  0.00  0.00    +0.145 C 
ATOM     33  C   UNL     1      33.452 -14.054 -21.265  0.00  0.00    +0.040 C 
ATOM     34  C   UNL     1      32.912 -12.775 -23.242  0.00  0.00    +0.040 C 
ATOM     35  C   UNL     1      32.459 -13.378 -20.557  0.00  0.00    +0.033 C 
ATOM     36  C   UNL     1      31.918 -12.100 -22.535  0.00  0.00    +0.033 C 
ATOM     37  C   UNL     1      31.692 -12.402 -21.192  0.00  0.00    +0.140 C 
ENDBRANCH  30  32
ENDBRANCH  27  30
ENDBRANCH  22  24
ENDBRANCH   1  22
TORSDOF 9
ENDMDL
MODEL 2
REMARK VINA RESULT:     -12.8      4.689     11.369
REMARK  Name = 5287728
REMARK  9 active torsions:
REMARK  status: ('A' for Active; 'I' for Inactive)
REMARK    1  A    between atoms: S_1  and  N_4
REMARK    2  A    between atoms: S_1  and  N_22
REMARK    3  A    between atoms: C_5  and  N_10
REMARK    4  A    between atoms: N_10  and  C_13
REMARK    5  A    between atoms: C_13  and  C_14
REMARK    6  A    between atoms: C_15  and  O_20
REMARK    7  A    between atoms: N_22  and  C_24
REMARK    8  A    between atoms: C_27  and  O_30
REMARK    9  A    between atoms: O_30  and  C_32
REMARK                            x       y       z     vdW  Elec       q    Type
REMARK                         _______ _______ _______ _____ _____    ______ ____
ROOT
ATOM      1  S   UNL     1      33.205 -22.782 -18.346  0.00  0.00    +0.113 S 
ATOM      2  O   UNL     1      31.855 -22.421 -17.952  0.00  0.00    -0.138 OA
ATOM      3  O   UNL     1      33.452 -24.037 -19.032  0.00  0.00    -0.138 OA
ENDROOT
BRANCH   1   4
ATOM      4  N   UNL     1      33.840 -21.506 -19.298  0.00  0.00    -0.143 NA
ATOM      5  C   UNL     1      34.888 -19.805 -21.411  0.00  0.00    -0.059 C 
ATOM      6  C   UNL     1      35.791 -20.400 -20.326  0.00  0.00    -0.002 C 
ATOM      7  C   UNL     1      33.455 -19.657 -20.887  0.00  0.00    -0.002 C 
ATOM      8  C   UNL     1      35.226 -21.720 -19.807  0.00  0.00    +0.095 C 
ATOM      9  C   UNL     1      32.926 -20.988 -20.359  0.00  0.00    +0.095 C 
BRANCH   5  10
ATOM     10  N   UNL     1      35.403 -18.505 -21.835  0.00  0.00    +0.388 N 
ATOM     11  H   UNL     1      36.226 -18.274 -21.278  0.00  0.00    -0.084 HD
ATOM     12  H   UNL     1      34.674 -17.804 -21.700  0.00  0.00    -0.084 HD
BRANCH  10  13
ATOM     13  C   UNL     1      35.772 -18.531 -23.242  0.00  0.00    -0.051 C 
BRANCH  13  14
ATOM     14  C   UNL     1      34.700 -17.934 -24.114  0.00  0.00    -0.010 C 
ATOM     15  C   UNL     1      34.512 -16.558 -24.153  0.00  0.00    +0.128 C 
ATOM     16  C   UNL     1      33.905 -18.783 -24.874  0.00  0.00    -0.003 C 
ATOM     17  C   UNL     1      33.514 -16.022 -24.966  0.00  0.00    +0.036 C 
ATOM     18  C   UNL     1      32.905 -18.246 -25.686  0.00  0.00    -0.000 C 
ATOM     19  C   UNL     1      32.711 -16.867 -25.732  0.00  0.00    +0.003 C 
BRANCH  15  20
ATOM     20  O   UNL     1      35.289 -15.720 -23.411  0.00  0.00    -0.506 OA
ATOM     21  H   UNL     1      36.098 -15.400 -23.758  0.00  0.00    +0.292 HD
ENDBRANCH  15  20
ENDBRANCH  13  14
ENDBRANCH  10  13
ENDBRANCH   5  10
ENDBRANCH   1   4
BRANCH   1  22
ATOM     22  N   UNL     1      34.206 -22.666 -16.945  0.00  0.00    -0.205 N 
ATOM     23  H   UNL     1      35.067 -22.188 -16.964  0.00  0.00    +0.175 HD
BRANCH  22  24
ATOM     24  C   UNL     1      33.723 -23.302 -15.746  0.00  0.00    +0.069 C 
ATOM     25  C   UNL     1      34.626 -23.684 -14.762  0.00  0.00    +0.053 C 
ATOM     26  C   UNL     1      32.361 -23.526 -15.590  0.00  0.00    +0.016 C 
ATOM     27  C   UNL     1      34.157 -24.301 -13.602  0.00  0.00    +0.147 C 
ATOM     28  C   UNL     1      31.894 -24.142 -14.430  0.00  0.00    +0.004 C 
ATOM     29  C   UNL     1      32.791 -24.530 -13.436  0.00  0.00    +0.038 C 
BRANCH  27  30
ATOM     30  O   UNL     1      35.034 -24.681 -12.632  0.00  0.00    -0.453 OA
BRANCH  30  32
ATOM     31  F   UNL     1      40.099 -26.118 -14.189  0.00  0.00    -0.204 F 
ATOM     32  C   UNL     1      36.312 -25.043 -13.025  0.00  0.00    +0.145 C 
ATOM     33  C   UNL     1      36.474 -26.122 -13.876  0.00  0.00    +0.040 C 
ATOM     34  C   UNL     1      37.392 -24.317 -12.557  0.00  0.00    +0.040 C 
ATOM     35  C   UNL     1      37.761 -26.486 -14.271  0.00  0.00    +0.033 C 
ATOM     36  C   UNL     1      38.678 -24.683 -12.951  0.00  0.00    +0.033 C 
ATOM     37  C   UNL     1      38.863 -25.767 -13.809  0.00  0.00    +0.140 C 
ENDBRANCH  30  32
ENDBRANCH  27  30
ENDBRANCH  22  24
ENDBRANCH   1  22
TORSDOF 9
ENDMDL
MODEL 3
REMARK VINA RESULT:     -12.7      2.053      3.354
REMARK  Name = 5287728
REMARK  9 active torsions:
REMARK  status: ('A' for Active; 'I' for Inactive)
REMARK    1  A    between atoms: S_1  and  N_4
REMARK    2  A    between atoms: S_1  and  N_22
REMARK    3  A    between atoms: C_5  and  N_10
REMARK    4  A    between atoms: N_10  and  C_13
REMARK    5  A    between atoms: C_13  and  C_14
REMARK    6  A    between atoms: C_15  and  O_20
REMARK    7  A    between atoms: N_22  and  C_24
REMARK    8  A    between atoms: C_27  and  O_30
REMARK    9  A    between atoms: O_30  and  C_32
REMARK                            x       y       z     vdW  Elec       q    Type
REMARK                         _______ _______ _______ _____ _____    ______ ____
ROOT
ATOM      1  S   UNL     1      35.790 -19.018 -21.266  0.00  0.00    +0.113 S 
ATOM      2  O   UNL     1      37.217 -19.007 -21.000  0.00  0.00    -0.138 OA
ATOM      3  O   UNL     1      35.301 -19.271 -22.609  0.00  0.00    -0.138 OA
ENDROOT
BRANCH   1   4
ATOM      4  N   UNL     1      35.059 -20.143 -20.198  0.00  0.00    -0.143 NA
ATOM      5  C   UNL     1      33.893 -22.478 -18.915  0.00  0.00    -0.059 C 
ATOM      6  C   UNL     1      33.032 -21.316 -19.422  0.00  0.00    -0.002 C 
ATOM      7  C   UNL     1      35.302 -21.983 -18.572  0.00  0.00    -0.002 C 
ATOM      8  C   UNL     1      33.700 -20.612 -20.601  0.00  0.00    +0.095 C 
ATOM      9  C   UNL     1      35.937 -21.270 -19.763  0.00  0.00    +0.095 C 
BRANCH   5  10
ATOM     10  N   UNL     1      33.274 -23.083 -17.738  0.00  0.00    +0.388 N 
ATOM     11  H   UNL     1      33.829 -22.854 -16.913  0.00  0.00    -0.084 HD
ATOM     12  H   UNL     1      33.235 -24.094 -17.871  0.00  0.00    -0.084 HD
BRANCH  10  13
ATOM     13  C   UNL     1      31.919 -22.585 -17.555  0.00  0.00    -0.051 C 
BRANCH  13  14
ATOM     14  C   UNL     1      31.273 -23.158 -16.322  0.00  0.00    -0.010 C 
ATOM     15  C   UNL     1      29.893 -23.118 -16.169  0.00  0.00    +0.128 C 
ATOM     16  C   UNL     1      32.082 -23.725 -15.345  0.00  0.00    -0.003 C 
ATOM     17  C   UNL     1      29.312 -23.654 -15.020  0.00  0.00    +0.036 C 
ATOM     18  C   UNL     1      31.500 -24.261 -14.195  0.00  0.00    -0.000 C 
ATOM     19  C   UNL     1      30.116 -24.225 -14.033  0.00  0.00    +0.003 C 
BRANCH  15  20
ATOM     20  O   UNL     1      29.094 -22.564 -17.123  0.00  0.00    -0.506 OA
ATOM     21  H   UNL     1      29.266 -22.725 -18.030  0.00  0.00    +0.292 HD
ENDBRANCH  15  20
ENDBRANCH  13  14
ENDBRANCH  10  13
ENDBRANCH   5  10
ENDBRANCH   1   4
BRANCH   1  22
ATOM     22  N   UNL     1      35.136 -17.537 -20.667  0.00  0.00    -0.205 N 
ATOM     23  H   UNL     1      35.000 -17.385 -19.704  0.00  0.00    +0.175 HD
BRANCH  22  24
ATOM     24  C   UNL     1      34.799 -16.534 -21.644  0.00  0.00    +0.069 C 
ATOM     25  C   UNL     1      34.852 -16.849 -22.996  0.00  0.00    +0.053 C 
ATOM     26  C   UNL     1      34.425 -15.264 -21.222  0.00  0.00    +0.016 C 
ATOM     27  C   UNL     1      34.526 -15.876 -23.942  0.00  0.00    +0.147 C 
ATOM     28  C   UNL     1      34.100 -14.293 -22.168  0.00  0.00    +0.004 C 
ATOM     29  C   UNL     1      34.149 -14.599 -23.527  0.00  0.00    +0.038 C 
BRANCH  27  30
ATOM     30  O   UNL     1      34.576 -16.174 -25.269  0.00  0.00    -0.453 OA
BRANCH  30  32
ATOM     31  F   UNL     1      29.894 -15.907 -28.124  0.00  0.00    -0.204 F 
ATOM     32  C   UNL     1      33.395 -16.107 -25.989  0.00  0.00    +0.145 C 
ATOM     33  C   UNL     1      33.169 -15.018 -26.811  0.00  0.00    +0.040 C 
ATOM     34  C   UNL     1      32.473 -17.130 -25.868  0.00  0.00    +0.040 C 
ATOM     35  C   UNL     1      31.980 -14.950 -27.537  0.00  0.00    +0.033 C 
ATOM     36  C   UNL     1      31.283 -17.062 -26.593  0.00  0.00    +0.033 C 
ATOM     37  C   UNL     1      31.037 -15.972 -27.427  0.00  0.00    +0.140 C 
ENDBRANCH  30  32
ENDBRANCH  27  30
ENDBRANCH  22  24
ENDBRANCH   1  22
TORSDOF 9
ENDMDL
MODEL 4
REMARK VINA RESULT:     -12.6      3.453     10.523
REMARK  Name = 5287728
REMARK  9 active torsions:
REMARK  status: ('A' for Active; 'I' for Inactive)
REMARK    1  A    between atoms: S_1  and  N_4
REMARK    2  A    between atoms: S_1  and  N_22
REMARK    3  A    between atoms: C_5  and  N_10
REMARK    4  A    between atoms: N_10  and  C_13
REMARK    5  A    between atoms: C_13  and  C_14
REMARK    6  A    between atoms: C_15  and  O_20
REMARK    7  A    between atoms: N_22  and  C_24
REMARK    8  A    between atoms: C_27  and  O_30
REMARK    9  A    between atoms: O_30  and  C_32
REMARK                            x       y       z     vdW  Elec       q    Type
REMARK                         _______ _______ _______ _____ _____    ______ ____
ROOT
ATOM      1  S   UNL     1      33.407 -22.851 -18.144  0.00  0.00    +0.113 S 
ATOM      2  O   UNL     1      32.201 -22.439 -17.448  0.00  0.00    -0.138 OA
ATOM      3  O   UNL     1      33.422 -24.086 -18.906  0.00  0.00    -0.138 OA
ENDROOT
BRANCH   1   4
ATOM      4  N   UNL     1      33.891 -21.569 -19.174  0.00  0.00    -0.143 NA
ATOM      5  C   UNL     1      34.680 -19.875 -21.403  0.00  0.00    -0.059 C 
ATOM      6  C   UNL     1      35.692 -20.375 -20.365  0.00  0.00    -0.002 C 
ATOM      7  C   UNL     1      33.279 -19.803 -20.785  0.00  0.00    -0.002 C 
ATOM      8  C   UNL     1      35.252 -21.711 -19.770  0.00  0.00    +0.095 C 
ATOM      9  C   UNL     1      32.876 -21.146 -20.184  0.00  0.00    +0.095 C 
BRANCH   5  10
ATOM     10  N   UNL     1      35.079 -18.560 -21.898  0.00  0.00    +0.388 N 
ATOM     11  H   UNL     1      35.849 -18.207 -21.329  0.00  0.00    -0.084 HD
ATOM     12  H   UNL     1      34.278 -17.932 -21.840  0.00  0.00    -0.084 HD
BRANCH  10  13
ATOM     13  C   UNL     1      35.510 -18.641 -23.286  0.00  0.00    -0.051 C 
BRANCH  13  14
ATOM     14  C   UNL     1      34.532 -17.973 -24.215  0.00  0.00    -0.010 C 
ATOM     15  C   UNL     1      34.462 -16.587 -24.282  0.00  0.00    +0.128 C 
ATOM     16  C   UNL     1      33.706 -18.767 -25.001  0.00  0.00    -0.003 C 
ATOM     17  C   UNL     1      33.551 -15.985 -25.149  0.00  0.00    +0.036 C 
ATOM     18  C   UNL     1      32.794 -18.163 -25.868  0.00  0.00    -0.000 C 
ATOM     19  C   UNL     1      32.717 -16.774 -25.941  0.00  0.00    +0.003 C 
BRANCH  15  20
ATOM     20  O   UNL     1      35.270 -15.803 -23.514  0.00  0.00    -0.506 OA
ATOM     21  H   UNL     1      35.007 -14.929 -23.298  0.00  0.00    +0.292 HD
ENDBRANCH  15  20
ENDBRANCH  13  14
ENDBRANCH  10  13
ENDBRANCH   5  10
ENDBRANCH   1   4
BRANCH   1  22
ATOM     22  N   UNL     1      34.698 -22.847 -16.998  0.00  0.00    -0.205 N 
ATOM     23  H   UNL     1      35.598 -22.524 -17.235  0.00  0.00    +0.175 HD
BRANCH  22  24
ATOM     24  C   UNL     1      34.397 -23.339 -15.679  0.00  0.00    +0.069 C 
ATOM     25  C   UNL     1      33.167 -23.935 -15.433  0.00  0.00    +0.053 C 
ATOM     26  C   UNL     1      35.341 -23.210 -14.667  0.00  0.00    +0.016 C 
ATOM     27  C   UNL     1      32.876 -24.410 -14.154  0.00  0.00    +0.147 C 
ATOM     28  C   UNL     1      35.050 -23.686 -13.389  0.00  0.00    +0.004 C 
ATOM     29  C   UNL     1      33.818 -24.285 -13.133  0.00  0.00    +0.038 C 
BRANCH  27  30
ATOM     30  O   UNL     1      31.672 -24.994 -13.903  0.00  0.00    -0.453 OA
BRANCH  30  32
ATOM     31  F   UNL     1      27.238 -22.851 -16.330  0.00  0.00    -0.204 F 
ATOM     32  C   UNL     1      30.554 -24.453 -14.516  0.00  0.00    +0.145 C 
ATOM     33  C   UNL     1      30.339 -23.089 -14.442  0.00  0.00    +0.040 C 
ATOM     34  C   UNL     1      29.681 -25.291 -15.185  0.00  0.00    +0.040 C 
ATOM     35  C   UNL     1      29.213 -22.545 -15.058  0.00  0.00    +0.033 C 
ATOM     36  C   UNL     1      28.554 -24.748 -15.801  0.00  0.00    +0.033 C 
ATOM     37  C   UNL     1      28.320 -23.374 -15.738  0.00  0.00    +0.140 C 
ENDBRANCH  30  32
ENDBRANCH  27  30
ENDBRANCH  22  24
ENDBRANCH   1  22
TORSDOF 9
ENDMDL
MODEL 5
REMARK VINA RESULT:     -12.6      3.937     10.723
REMARK  Name = 5287728
REMARK  9 active torsions:
REMARK  status: ('A' for Active; 'I' for Inactive)
REMARK    1  A    between atoms: S_1  and  N_4
REMARK    2  A    between atoms: S_1  and  N_22
REMARK    3  A    between atoms: C_5  and  N_10
REMARK    4  A    between atoms: N_10  and  C_13
REMARK    5  A    between atoms: C_13  and  C_14
REMARK    6  A    between atoms: C_15  and  O_20
REMARK    7  A    between atoms: N_22  and  C_24
REMARK    8  A    between atoms: C_27  and  O_30
REMARK    9  A    between atoms: O_30  and  C_32
REMARK                            x       y       z     vdW  Elec       q    Type
REMARK                         _______ _______ _______ _____ _____    ______ ____
ROOT
ATOM      1  S   UNL     1      33.469 -23.128 -18.227  0.00  0.00    +0.113 S 
ATOM      2  O   UNL     1      33.275 -24.410 -18.880  0.00  0.00    -0.138 OA
ATOM      3  O   UNL     1      34.508 -22.971 -17.225  0.00  0.00    -0.138 OA
ENDROOT
BRANCH   1   4
ATOM      4  N   UNL     1      33.700 -21.941 -19.443  0.00  0.00    -0.143 NA
ATOM      5  C   UNL     1      34.117 -19.503 -20.973  0.00  0.00    -0.059 C 
ATOM      6  C   UNL     1      32.752 -20.195 -20.904  0.00  0.00    -0.002 C 
ATOM      7  C   UNL     1      35.239 -20.523 -20.750  0.00  0.00    -0.002 C 
ATOM      8  C   UNL     1      32.588 -20.957 -19.591  0.00  0.00    +0.095 C 
ATOM      9  C   UNL     1      35.039 -21.281 -19.441  0.00  0.00    +0.095 C 
BRANCH   5  10
ATOM     10  N   UNL     1      34.283 -18.850 -22.269  0.00  0.00    +0.388 N 
ATOM     11  H   UNL     1      33.420 -18.363 -22.511  0.00  0.00    -0.084 HD
ATOM     12  H   UNL     1      34.499 -19.560 -22.968  0.00  0.00    -0.084 HD
BRANCH  10  13
ATOM     13  C   UNL     1      35.376 -17.890 -22.225  0.00  0.00    -0.051 C 
BRANCH  13  14
ATOM     14  C   UNL     1      34.876 -16.470 -22.251  0.00  0.00    -0.010 C 
ATOM     15  C   UNL     1      34.665 -15.822 -23.461  0.00  0.00    +0.128 C 
ATOM     16  C   UNL     1      34.631 -15.824 -21.045  0.00  0.00    -0.003 C 
ATOM     17  C   UNL     1      34.202 -14.507 -23.467  0.00  0.00    +0.036 C 
ATOM     18  C   UNL     1      34.168 -14.508 -21.052  0.00  0.00    -0.000 C 
ATOM     19  C   UNL     1      33.953 -13.850 -22.262  0.00  0.00    +0.003 C 
BRANCH  15  20
ATOM     20  O   UNL     1      34.903 -16.450 -24.647  0.00  0.00    -0.506 OA
ATOM     21  H   UNL     1      34.340 -16.295 -25.381  0.00  0.00    +0.292 HD
ENDBRANCH  15  20
ENDBRANCH  13  14
ENDBRANCH  10  13
ENDBRANCH   5  10
ENDBRANCH   1   4
BRANCH   1  22
ATOM     22  N   UNL     1      31.946 -22.634 -17.583  0.00  0.00    -0.205 N 
ATOM     23  H   UNL     1      31.354 -22.017 -18.072  0.00  0.00    +0.175 HD
BRANCH  22  24
ATOM     24  C   UNL     1      31.581 -23.168 -16.296  0.00  0.00    +0.069 C 
ATOM     25  C   UNL     1      32.565 -23.387 -15.340  0.00  0.00    +0.053 C 
ATOM     26  C   UNL     1      30.249 -23.458 -16.026  0.00  0.00    +0.016 C 
ATOM     27  C   UNL     1      32.211 -23.904 -14.094  0.00  0.00    +0.147 C 
ATOM     28  C   UNL     1      29.896 -23.975 -14.781  0.00  0.00    +0.004 C 
ATOM     29  C   UNL     1      30.876 -24.198 -13.815  0.00  0.00    +0.038 C 
BRANCH  27  30
ATOM     30  O   UNL     1      33.168 -24.123 -13.152  0.00  0.00    -0.453 OA
BRANCH  30  32
ATOM     31  F   UNL     1      38.352 -24.707 -14.865  0.00  0.00    -0.204 F 
ATOM     32  C   UNL     1      34.476 -24.270 -13.584  0.00  0.00    +0.145 C 
ATOM     33  C   UNL     1      34.756 -25.183 -14.586  0.00  0.00    +0.040 C 
ATOM     34  C   UNL     1      35.468 -23.501 -13.004  0.00  0.00    +0.040 C 
ATOM     35  C   UNL     1      36.072 -25.331 -15.021  0.00  0.00    +0.033 C 
ATOM     36  C   UNL     1      36.785 -23.650 -13.438  0.00  0.00    +0.033 C 
ATOM     37  C   UNL     1      37.087 -24.565 -14.447  0.00  0.00    +0.140 C 
ENDBRANCH  30  32
ENDBRANCH  27  30
ENDBRANCH  22  24
ENDBRANCH   1  22
TORSDOF 9
ENDMDL
MODEL 6
REMARK VINA RESULT:     -12.5      4.152      6.052
REMARK  Name = 5287728
REMARK  9 active torsions:
REMARK  status: ('A' for Active; 'I' for Inactive)
REMARK    1  A    between atoms: S_1  and  N_4
REMARK    2  A    between atoms: S_1  and  N_22
REMARK    3  A    between atoms: C_5  and  N_10
REMARK    4  A    between atoms: N_10  and  C_13
REMARK    5  A    between atoms: C_13  and  C_14
REMARK    6  A    between atoms: C_15  and  O_20
REMARK    7  A    between atoms: N_22  and  C_24
REMARK    8  A    between atoms: C_27  and  O_30
REMARK    9  A    between atoms: O_30  and  C_32
REMARK                            x       y       z     vdW  Elec       q    Type
REMARK                         _______ _______ _______ _____ _____    ______ ____
ROOT
ATOM      1  S   UNL     1      33.134 -23.048 -17.944  0.00  0.00    +0.113 S 
ATOM      2  O   UNL     1      33.270 -24.360 -18.550  0.00  0.00    -0.138 OA
ATOM      3  O   UNL     1      31.857 -22.358 -17.980  0.00  0.00    -0.138 OA
ENDROOT
BRANCH   1   4
ATOM      4  N   UNL     1      33.647 -23.161 -16.311  0.00  0.00    -0.143 NA
ATOM      5  C   UNL     1      34.709 -23.978 -13.730  0.00  0.00    -0.059 C 
ATOM      6  C   UNL     1      33.202 -23.898 -13.999  0.00  0.00    -0.002 C 
ATOM      7  C   UNL     1      35.463 -23.009 -14.648  0.00  0.00    -0.002 C 
ATOM      8  C   UNL     1      32.896 -24.143 -15.475  0.00  0.00    +0.095 C 
ATOM      9  C   UNL     1      35.123 -23.266 -16.113  0.00  0.00    +0.095 C 
BRANCH   5  10
ATOM     10  N   UNL     1      34.985 -23.661 -12.331  0.00  0.00    +0.388 N 
ATOM     11  H   UNL     1      34.102 -23.552 -11.832  0.00  0.00    -0.084 HD
ATOM     12  H   UNL     1      35.524 -22.796 -12.291  0.00  0.00    -0.084 HD
BRANCH  10  13
ATOM     13  C   UNL     1      35.759 -24.723 -11.705  0.00  0.00    -0.051 C 
BRANCH  13  14
ATOM     14  C   UNL     1      36.929 -25.139 -12.556  0.00  0.00    -0.010 C 
ATOM     15  C   UNL     1      38.111 -24.410 -12.528  0.00  0.00    +0.128 C 
ATOM     16  C   UNL     1      36.803 -26.261 -13.366  0.00  0.00    -0.003 C 
ATOM     17  C   UNL     1      39.186 -24.809 -13.322  0.00  0.00    +0.036 C 
ATOM     18  C   UNL     1      37.878 -26.659 -14.161  0.00  0.00    -0.000 C 
ATOM     19  C   UNL     1      39.069 -25.934 -14.139  0.00  0.00    +0.003 C 
BRANCH  15  20
ATOM     20  O   UNL     1      38.242 -23.309 -11.735  0.00  0.00    -0.506 OA
ATOM     21  H   UNL     1      38.336 -22.461 -12.123  0.00  0.00    +0.292 HD
ENDBRANCH  15  20
ENDBRANCH  13  14
ENDBRANCH  10  13
ENDBRANCH   5  10
ENDBRANCH   1   4
BRANCH   1  22
ATOM     22  N   UNL     1      34.372 -22.039 -18.599  0.00  0.00    -0.205 N 
ATOM     23  H   UNL     1      35.300 -22.084 -18.274  0.00  0.00    +0.175 HD
BRANCH  22  24
ATOM     24  C   UNL     1      33.982 -21.128 -19.644  0.00  0.00    +0.069 C 
ATOM     25  C   UNL     1      34.927 -20.273 -20.196  0.00  0.00    +0.053 C 
ATOM     26  C   UNL     1      32.665 -21.116 -20.087  0.00  0.00    +0.016 C 
ATOM     27  C   UNL     1      34.548 -19.390 -21.207  0.00  0.00    +0.147 C 
ATOM     28  C   UNL     1      32.288 -20.233 -21.098  0.00  0.00    +0.004 C 
ATOM     29  C   UNL     1      33.229 -19.371 -21.658  0.00  0.00    +0.038 C 
BRANCH  27  30
ATOM     30  O   UNL     1      35.467 -18.547 -21.753  0.00  0.00    -0.453 OA
BRANCH  30  32
ATOM     31  F   UNL     1      33.955 -13.342 -22.630  0.00  0.00    -0.204 F 
ATOM     32  C   UNL     1      35.085 -17.234 -21.974  0.00  0.00    +0.145 C 
ATOM     33  C   UNL     1      34.961 -16.778 -23.275  0.00  0.00    +0.040 C 
ATOM     34  C   UNL     1      34.838 -16.413 -20.890  0.00  0.00    +0.040 C 
ATOM     35  C   UNL     1      34.577 -15.457 -23.497  0.00  0.00    +0.033 C 
ATOM     36  C   UNL     1      34.455 -15.090 -21.112  0.00  0.00    +0.033 C 
ATOM     37  C   UNL     1      34.324 -14.612 -22.416  0.00  0.00    +0.140 C 
ENDBRANCH  30  32
ENDBRANCH  27  30
ENDBRANCH  22  24
ENDBRANCH   1  22
TORSDOF 9
ENDMDL
MODEL 7
REMARK VINA RESULT:     -12.3      3.171      3.841
REMARK  Name = 5287728
REMARK  9 active torsions:
REMARK  status: ('A' for Active; 'I' for Inactive)
REMARK    1  A    between atoms: S_1  and  N_4
REMARK    2  A    between atoms: S_1  and  N_22
REMARK    3  A    between atoms: C_5  and  N_10
REMARK    4  A    between atoms: N_10  and  C_13
REMARK    5  A    between atoms: C_13  and  C_14
REMARK    6  A    between atoms: C_15  and  O_20
REMARK    7  A    between atoms: N_22  and  C_24
REMARK    8  A    between atoms: C_27  and  O_30
REMARK    9  A    between atoms: O_30  and  C_32
REMARK                            x       y       z     vdW  Elec       q    Type
REMARK                         _______ _______ _______ _____ _____    ______ ____
ROOT
ATOM      1  S   UNL     1      35.814 -20.522 -20.161  0.00  0.00    +0.113 S 
ATOM      2  O   UNL     1      36.840 -19.541 -19.861  0.00  0.00    -0.138 OA
ATOM      3  O   UNL     1      36.055 -21.545 -21.164  0.00  0.00    -0.138 OA
ENDROOT
BRANCH   1   4
ATOM      4  N   UNL     1      35.368 -21.291 -18.695  0.00  0.00    -0.143 NA
ATOM      5  C   UNL     1      34.908 -23.138 -16.496  0.00  0.00    -0.059 C 
ATOM      6  C   UNL     1      33.784 -22.711 -17.446  0.00  0.00    -0.002 C 
ATOM      7  C   UNL     1      35.988 -22.052 -16.431  0.00  0.00    -0.002 C 
ATOM      8  C   UNL     1      34.335 -22.361 -18.826  0.00  0.00    +0.095 C 
ATOM      9  C   UNL     1      36.506 -21.712 -17.825  0.00  0.00    +0.095 C 
BRANCH   5  10
ATOM     10  N   UNL     1      34.368 -23.389 -15.162  0.00  0.00    +0.388 N 
ATOM     11  H   UNL     1      33.379 -23.139 -15.148  0.00  0.00    -0.084 HD
ATOM     12  H   UNL     1      34.886 -22.826 -14.487  0.00  0.00    -0.084 HD
BRANCH  10  13
ATOM     13  C   UNL     1      34.509 -24.793 -14.804  0.00  0.00    -0.051 C 
BRANCH  13  14
ATOM     14  C   UNL     1      35.910 -25.119 -14.360  0.00  0.00    -0.010 C 
ATOM     15  C   UNL     1      36.635 -26.116 -15.001  0.00  0.00    +0.128 C 
ATOM     16  C   UNL     1      36.461 -24.407 -13.302  0.00  0.00    -0.003 C 
ATOM     17  C   UNL     1      37.931 -26.406 -14.577  0.00  0.00    +0.036 C 
ATOM     18  C   UNL     1      37.757 -24.698 -12.877  0.00  0.00    -0.000 C 
ATOM     19  C   UNL     1      38.492 -25.696 -13.514  0.00  0.00    +0.003 C 
BRANCH  15  20
ATOM     20  O   UNL     1      36.101 -26.819 -16.040  0.00  0.00    -0.506 OA
ATOM     21  H   UNL     1      36.400 -27.689 -16.220  0.00  0.00    +0.292 HD
ENDBRANCH  15  20
ENDBRANCH  13  14
ENDBRANCH  10  13
ENDBRANCH   5  10
ENDBRANCH   1   4
BRANCH   1  22
ATOM     22  N   UNL     1      34.362 -19.665 -20.528  0.00  0.00    -0.205 N 
ATOM     23  H   UNL     1      33.557 -19.747 -19.966  0.00  0.00    +0.175 HD
BRANCH  22  24
ATOM     24  C   UNL     1      34.382 -18.821 -21.695  0.00  0.00    +0.069 C 
ATOM     25  C   UNL     1      34.738 -17.484 -21.569  0.00  0.00    +0.053 C 
ATOM     26  C   UNL     1      34.045 -19.355 -22.932  0.00  0.00    +0.016 C 
ATOM     27  C   UNL     1      34.757 -16.668 -22.700  0.00  0.00    +0.147 C 
ATOM     28  C   UNL     1      34.064 -18.538 -24.062  0.00  0.00    +0.004 C 
ATOM     29  C   UNL     1      34.420 -17.195 -23.946  0.00  0.00    +0.038 C 
BRANCH  27  30
ATOM     30  O   UNL     1      35.103 -15.356 -22.586  0.00  0.00    -0.453 OA
BRANCH  30  32
ATOM     31  F   UNL     1      31.068 -11.707 -21.843  0.00  0.00    -0.204 F 
ATOM     32  C   UNL     1      34.086 -14.436 -22.398  0.00  0.00    +0.145 C 
ATOM     33  C   UNL     1      33.605 -14.213 -21.120  0.00  0.00    +0.040 C 
ATOM     34  C   UNL     1      33.576 -13.763 -23.494  0.00  0.00    +0.040 C 
ATOM     35  C   UNL     1      32.581 -13.286 -20.932  0.00  0.00    +0.033 C 
ATOM     36  C   UNL     1      32.550 -12.837 -23.306  0.00  0.00    +0.033 C 
ATOM     37  C   UNL     1      32.053 -12.598 -22.024  0.00  0.00    +0.140 C 
ENDBRANCH  30  32
ENDBRANCH  27  30
ENDBRANCH  22  24
ENDBRANCH   1  22
TORSDOF 9
ENDMDL
MODEL 8
REMARK VINA RESULT:     -12.2      4.031      5.898
REMARK  Name = 5287728
REMARK  9 active torsions:
REMARK  status: ('A' for Active; 'I' for Inactive)
REMARK    1  A    between atoms: S_1  and  N_4
REMARK    2  A    between atoms: S_1  and  N_22
REMARK    3  A    between atoms: C_5  and  N_10
REMARK    4  A    between atoms: N_10  and  C_13
REMARK    5  A    between atoms: C_13  and  C_14
REMARK    6  A    between atoms: C_15  and  O_20
REMARK    7  A    between atoms: N_22  and  C_24
REMARK    8  A    between atoms: C_27  and  O_30
REMARK    9  A    between atoms: O_30  and  C_32
REMARK                            x       y       z     vdW  Elec       q    Type
REMARK                         _______ _______ _______ _____ _____    ______ ____
ROOT
ATOM      1  S   UNL     1      33.364 -23.177 -18.029  0.00  0.00    +0.113 S 
ATOM      2  O   UNL     1      33.434 -24.433 -18.755  0.00  0.00    -0.138 OA
ATOM      3  O   UNL     1      32.095 -22.487 -17.888  0.00  0.00    -0.138 OA
ENDROOT
BRANCH   1   4
ATOM      4  N   UNL     1      34.023 -23.430 -16.466  0.00  0.00    -0.143 NA
ATOM      5  C   UNL     1      34.864 -23.250 -13.688  0.00  0.00    -0.059 C 
ATOM      6  C   UNL     1      35.843 -23.040 -14.847  0.00  0.00    -0.002 C 
ATOM      7  C   UNL     1      33.707 -24.154 -14.128  0.00  0.00    -0.002 C 
ATOM      8  C   UNL     1      35.124 -22.499 -16.081  0.00  0.00    +0.095 C 
ATOM      9  C   UNL     1      33.020 -23.598 -15.372  0.00  0.00    +0.095 C 
BRANCH   5  10
ATOM     10  N   UNL     1      35.557 -23.842 -12.547  0.00  0.00    +0.388 N 
ATOM     11  H   UNL     1      35.009 -23.682 -11.701  0.00  0.00    -0.084 HD
ATOM     12  H   UNL     1      36.477 -23.410 -12.462  0.00  0.00    -0.084 HD
BRANCH  10  13
ATOM     13  C   UNL     1      35.731 -25.275 -12.737  0.00  0.00    -0.051 C 
BRANCH  13  14
ATOM     14  C   UNL     1      37.016 -25.593 -13.453  0.00  0.00    -0.010 C 
ATOM     15  C   UNL     1      37.013 -26.428 -14.563  0.00  0.00    +0.128 C 
ATOM     16  C   UNL     1      38.200 -25.038 -12.983  0.00  0.00    -0.003 C 
ATOM     17  C   UNL     1      38.212 -26.712 -15.215  0.00  0.00    +0.036 C 
ATOM     18  C   UNL     1      39.400 -25.324 -13.635  0.00  0.00    -0.000 C 
ATOM     19  C   UNL     1      39.406 -26.160 -14.750  0.00  0.00    +0.003 C 
BRANCH  15  20
ATOM     20  O   UNL     1      35.855 -26.975 -15.030  0.00  0.00    -0.506 OA
ATOM     21  H   UNL     1      35.762 -27.907 -15.075  0.00  0.00    +0.292 HD
ENDBRANCH  15  20
ENDBRANCH  13  14
ENDBRANCH  10  13
ENDBRANCH   5  10
ENDBRANCH   1   4
BRANCH   1  22
ATOM     22  N   UNL     1      34.544 -22.116 -18.706  0.00  0.00    -0.205 N 
ATOM     23  H   UNL     1      35.487 -22.144 -18.423  0.00  0.00    +0.175 HD
BRANCH  22  24
ATOM     24  C   UNL     1      34.085 -21.187 -19.705  0.00  0.00    +0.069 C 
ATOM     25  C   UNL     1      34.996 -20.342 -20.327  0.00  0.00    +0.053 C 
ATOM     26  C   UNL     1      32.736 -21.146 -20.036  0.00  0.00    +0.016 C 
ATOM     27  C   UNL     1      34.549 -19.441 -21.294  0.00  0.00    +0.147 C 
ATOM     28  C   UNL     1      32.291 -20.245 -21.003  0.00  0.00    +0.004 C 
ATOM     29  C   UNL     1      33.197 -19.393 -21.632  0.00  0.00    +0.038 C 
BRANCH  27  30
ATOM     30  O   UNL     1      35.435 -18.608 -21.908  0.00  0.00    -0.453 OA
BRANCH  30  32
ATOM     31  F   UNL     1      33.943 -13.372 -22.615  0.00  0.00    -0.204 F 
ATOM     32  C   UNL     1      35.059 -17.287 -22.086  0.00  0.00    +0.145 C 
ATOM     33  C   UNL     1      34.861 -16.487 -20.975  0.00  0.00    +0.040 C 
ATOM     34  C   UNL     1      34.890 -16.803 -23.370  0.00  0.00    +0.040 C 
ATOM     35  C   UNL     1      34.483 -15.157 -21.155  0.00  0.00    +0.033 C 
ATOM     36  C   UNL     1      34.510 -15.473 -23.550  0.00  0.00    +0.033 C 
ATOM     37  C   UNL     1      34.307 -14.650 -22.442  0.00  0.00    +0.140 C 
ENDBRANCH  30  32
ENDBRANCH  27  30
ENDBRANCH  22  24
ENDBRANCH   1  22
TORSDOF 9
ENDMDL
MODEL 9
REMARK VINA RESULT:     -12.1      4.033      7.007
REMARK  Name = 5287728
REMARK  9 active torsions:
REMARK  status: ('A' for Active; 'I' for Inactive)
REMARK    1  A    between atoms: S_1  and  N_4
REMARK    2  A    between atoms: S_1  and  N_22
REMARK    3  A    between atoms: C_5  and  N_10
REMARK    4  A    between atoms: N_10  and  C_13
REMARK    5  A    between atoms: C_13  and  C_14
REMARK    6  A    between atoms: C_15  and  O_20
REMARK    7  A    between atoms: N_22  and  C_24
REMARK    8  A    between atoms: C_27  and  O_30
REMARK    9  A    between atoms: O_30  and  C_32
REMARK                            x       y       z     vdW  Elec       q    Type
REMARK                         _______ _______ _______ _____ _____    ______ ____
ROOT
ATOM      1  S   UNL     1      32.871 -13.100 -24.196  0.00  0.00    +0.113 S 
ATOM      2  O   UNL     1      32.507 -13.078 -25.601  0.00  0.00    -0.138 OA
ATOM      3  O   UNL     1      31.903 -12.710 -23.186  0.00  0.00    -0.138 OA
ENDROOT
BRANCH   1   4
ATOM      4  N   UNL     1      33.446 -14.671 -23.820  0.00  0.00    -0.143 NA
ATOM      5  C   UNL     1      34.994 -17.108 -23.475  0.00  0.00    -0.059 C 
ATOM      6  C   UNL     1      33.899 -16.987 -24.539  0.00  0.00    -0.002 C 
ATOM      7  C   UNL     1      34.706 -16.158 -22.307  0.00  0.00    -0.002 C 
ATOM      8  C   UNL     1      33.738 -15.540 -24.998  0.00  0.00    +0.095 C 
ATOM      9  C   UNL     1      34.534 -14.724 -22.799  0.00  0.00    +0.095 C 
BRANCH   5  10
ATOM     10  N   UNL     1      35.074 -18.485 -22.992  0.00  0.00    +0.388 N 
ATOM     11  H   UNL     1      35.943 -18.608 -22.473  0.00  0.00    -0.084 HD
ATOM     12  H   UNL     1      35.046 -19.115 -23.794  0.00  0.00    -0.084 HD
BRANCH  10  13
ATOM     13  C   UNL     1      33.950 -18.791 -22.119  0.00  0.00    -0.051 C 
BRANCH  13  14
ATOM     14  C   UNL     1      34.310 -19.822 -21.084  0.00  0.00    -0.010 C 
ATOM     15  C   UNL     1      33.316 -20.558 -20.451  0.00  0.00    +0.128 C 
ATOM     16  C   UNL     1      35.650 -20.022 -20.775  0.00  0.00    -0.003 C 
ATOM     17  C   UNL     1      33.667 -21.510 -19.494  0.00  0.00    +0.036 C 
ATOM     18  C   UNL     1      36.001 -20.974 -19.816  0.00  0.00    -0.000 C 
ATOM     19  C   UNL     1      35.010 -21.717 -19.177  0.00  0.00    +0.003 C 
BRANCH  15  20
ATOM     20  O   UNL     1      32.000 -20.368 -20.749  0.00  0.00    -0.506 OA
ATOM     21  H   UNL     1      31.404 -20.089 -20.082  0.00  0.00    +0.292 HD
ENDBRANCH  15  20
ENDBRANCH  13  14
ENDBRANCH  10  13
ENDBRANCH   5  10
ENDBRANCH   1   4
BRANCH   1  22
ATOM     22  N   UNL     1      34.318 -12.177 -24.016  0.00  0.00    -0.205 N 
ATOM     23  H   UNL     1      35.174 -12.601 -23.775  0.00  0.00    +0.175 HD
BRANCH  22  24
ATOM     24  C   UNL     1      34.215 -10.758 -24.235  0.00  0.00    +0.069 C 
ATOM     25  C   UNL     1      33.080 -10.079 -23.810  0.00  0.00    +0.053 C 
ATOM     26  C   UNL     1      35.252 -10.085 -24.869  0.00  0.00    +0.016 C 
ATOM     27  C   UNL     1      32.981  -8.704 -24.023  0.00  0.00    +0.147 C 
ATOM     28  C   UNL     1      35.151  -8.710 -25.082  0.00  0.00    +0.004 C 
ATOM     29  C   UNL     1      34.017  -8.020 -24.659  0.00  0.00    +0.038 C 
BRANCH  27  30
ATOM     30  O   UNL     1      31.872  -8.030 -23.612  0.00  0.00    -0.453 OA
BRANCH  30  32
ATOM     31  F   UNL     1      31.877  -5.977 -18.520  0.00  0.00    -0.204 F 
ATOM     32  C   UNL     1      31.873  -7.512 -22.327  0.00  0.00    +0.145 C 
ATOM     33  C   UNL     1      32.221  -6.187 -22.135  0.00  0.00    +0.040 C 
ATOM     34  C   UNL     1      31.525  -8.333 -21.270  0.00  0.00    +0.040 C 
ATOM     35  C   UNL     1      32.222  -5.666 -20.842  0.00  0.00    +0.033 C 
ATOM     36  C   UNL     1      31.528  -7.812 -19.976  0.00  0.00    +0.033 C 
ATOM     37  C   UNL     1      31.876  -6.478 -19.762  0.00  0.00    +0.140 C 
ENDBRANCH  30  32
ENDBRANCH  27  30
ENDBRANCH  22  24
ENDBRANCH   1  22
TORSDOF 9
ENDMDL
