MODEL 1
REMARK VINA RESULT:     -12.1      0.000      0.000
REMARK  Name = 24779724
REMARK  3 active torsions:
REMARK  status: ('A' for Active; 'I' for Inactive)
REMARK    1  A    between atoms: C_5  and  C_12
REMARK    2  A    between atoms: C_7  and  S_16
REMARK    3  A    between atoms: S_16  and  C_19
REMARK                            x       y       z     vdW  Elec       q    Type
REMARK                         _______ _______ _______ _____ _____    ______ ____
ROOT
ATOM      1  N   UNL     1      34.339 -21.728 -18.843  0.00  0.00    -0.186 N 
ATOM      2  N   UNL     1      35.308 -22.108 -17.973  0.00  0.00    -0.162 NA
ATOM      3  N   UNL     1      32.387 -21.481 -19.818  0.00  0.00    -0.126 NA
ATOM      4  N   UNL     1      33.331 -20.786 -20.546  0.00  0.00    -0.120 NA
ATOM      5  C   UNL     1      34.874 -22.852 -16.996  0.00  0.00    +0.104 C 
ATOM      6  C   UNL     1      33.001 -22.043 -18.798  0.00  0.00    +0.187 A 
ATOM      7  C   UNL     1      34.491 -20.945 -19.951  0.00  0.00    +0.217 A 
ATOM      8  C   UNL     1      33.449 -23.289 -16.830  0.00  0.00    +0.024 C 
ATOM      9  C   UNL     1      32.564 -22.864 -17.740  0.00  0.00    +0.042 C 
ENDROOT
BRANCH   5  12
ATOM     10  N   UNL     1      36.750 -24.399 -14.299  0.00  0.00    -0.208 N 
ATOM     11  N   UNL     1      37.736 -23.591 -14.726  0.00  0.00    -0.176 NA
ATOM     12  C   UNL     1      35.839 -23.330 -15.972  0.00  0.00    +0.056 C 
ATOM     13  C   UNL     1      35.593 -24.280 -15.011  0.00  0.00    +0.087 C 
ATOM     14  C   UNL     1      37.174 -22.941 -15.748  0.00  0.00    +0.121 C 
ATOM     15  C   UNL     1      36.981 -25.281 -13.180  0.00  0.00    +0.140 C 
ENDBRANCH   5  12
BRANCH   7  16
ATOM     16  S   UNL     1      36.058 -20.262 -20.468  0.00  0.00    -0.051 S 
BRANCH  16  19
ATOM     17  N   UNL     1      34.283 -15.674 -23.813  0.00  0.00    -0.248 NA
ATOM     18  C   UNL     1      34.822 -16.566 -21.640  0.00  0.00    -0.003 C 
ATOM     19  C   UNL     1      35.527 -18.882 -21.460  0.00  0.00    +0.011 C 
ATOM     20  C   UNL     1      34.684 -16.699 -23.038  0.00  0.00    +0.060 C 
ATOM     21  C   UNL     1      35.243 -17.658 -20.862  0.00  0.00    +0.060 C 
ATOM     22  C   UNL     1      35.392 -19.020 -22.836  0.00  0.00    -0.017 C 
ATOM     23  C   UNL     1      34.975 -17.935 -23.610  0.00  0.00    +0.072 C 
ATOM     24  C   UNL     1      34.530 -15.323 -21.065  0.00  0.00    -0.001 C 
ATOM     25  C   UNL     1      34.117 -14.264 -21.860  0.00  0.00    +0.020 C 
ATOM     26  C   UNL     1      34.011 -14.491 -23.218  0.00  0.00    +0.098 C 
ENDBRANCH  16  19
ENDBRANCH   7  16
TORSDOF 3
ENDMDL
MODEL 2
REMARK VINA RESULT:     -11.9      1.013      1.915
REMARK  Name = 24779724
REMARK  3 active torsions:
REMARK  status: ('A' for Active; 'I' for Inactive)
REMARK    1  A    between atoms: C_5  and  C_12
REMARK    2  A    between atoms: C_7  and  S_16
REMARK    3  A    between atoms: S_16  and  C_19
REMARK                            x       y       z     vdW  Elec       q    Type
REMARK                         _______ _______ _______ _____ _____    ______ ____
ROOT
ATOM      1  N   UNL     1      34.264 -22.001 -18.498  0.00  0.00    -0.186 N 
ATOM      2  N   UNL     1      35.265 -22.384 -17.667  0.00  0.00    -0.162 NA
ATOM      3  N   UNL     1      32.272 -21.734 -19.384  0.00  0.00    -0.126 NA
ATOM      4  N   UNL     1      33.193 -21.072 -20.170  0.00  0.00    -0.120 NA
ATOM      5  C   UNL     1      34.865 -23.101 -16.656  0.00  0.00    +0.104 C 
ATOM      6  C   UNL     1      32.924 -22.288 -18.383  0.00  0.00    +0.187 A 
ATOM      7  C   UNL     1      34.377 -21.243 -19.627  0.00  0.00    +0.217 A 
ATOM      8  C   UNL     1      33.441 -23.506 -16.414  0.00  0.00    +0.024 C 
ATOM      9  C   UNL     1      32.522 -23.080 -17.289  0.00  0.00    +0.042 C 
ENDROOT
BRANCH   5  12
ATOM     10  N   UNL     1      36.853 -24.669 -14.054  0.00  0.00    -0.208 N 
ATOM     11  N   UNL     1      37.801 -23.814 -14.474  0.00  0.00    -0.176 NA
ATOM     12  C   UNL     1      35.868 -23.578 -15.670  0.00  0.00    +0.056 C 
ATOM     13  C   UNL     1      35.676 -24.567 -14.737  0.00  0.00    +0.087 C 
ATOM     14  C   UNL     1      37.194 -23.151 -15.462  0.00  0.00    +0.121 C 
ATOM     15  C   UNL     1      37.138 -25.579 -12.970  0.00  0.00    +0.140 C 
ENDBRANCH   5  12
BRANCH   7  16
ATOM     16  S   UNL     1      35.931 -20.601 -20.232  0.00  0.00    -0.051 S 
BRANCH  16  19
ATOM     17  N   UNL     1      34.074 -16.388 -23.999  0.00  0.00    -0.248 NA
ATOM     18  C   UNL     1      34.533 -18.712 -23.554  0.00  0.00    -0.003 C 
ATOM     19  C   UNL     1      35.372 -19.348 -21.367  0.00  0.00    +0.011 C 
ATOM     20  C   UNL     1      34.490 -17.357 -23.162  0.00  0.00    +0.060 C 
ATOM     21  C   UNL     1      34.974 -19.696 -22.654  0.00  0.00    +0.060 C 
ATOM     22  C   UNL     1      35.333 -18.016 -20.975  0.00  0.00    -0.017 C 
ATOM     23  C   UNL     1      34.895 -17.036 -21.869  0.00  0.00    +0.072 C 
ATOM     24  C   UNL     1      34.126 -19.035 -24.855  0.00  0.00    -0.001 C 
ATOM     25  C   UNL     1      33.696 -18.039 -25.720  0.00  0.00    +0.020 C 
ATOM     26  C   UNL     1      33.689 -16.742 -25.246  0.00  0.00    +0.098 C 
ENDBRANCH  16  19
ENDBRANCH   7  16
TORSDOF 3
ENDMDL
MODEL 3
REMARK VINA RESULT:     -11.8      2.964      9.785
REMARK  Name = 24779724
REMARK  3 active torsions:
REMARK  status: ('A' for Active; 'I' for Inactive)
REMARK    1  A    between atoms: C_5  and  C_12
REMARK    2  A    between atoms: C_7  and  S_16
REMARK    3  A    between atoms: S_16  and  C_19
REMARK                            x       y       z     vdW  Elec       q    Type
REMARK                         _______ _______ _______ _____ _____    ______ ____
ROOT
ATOM      1  N   UNL     1      34.137 -17.578 -24.523  0.00  0.00    -0.186 N 
ATOM      2  N   UNL     1      34.068 -16.299 -24.078  0.00  0.00    -0.162 NA
ATOM      3  N   UNL     1      33.881 -19.377 -25.758  0.00  0.00    -0.126 NA
ATOM      4  N   UNL     1      34.623 -19.712 -24.644  0.00  0.00    -0.120 NA
ATOM      5  C   UNL     1      33.407 -15.502 -24.868  0.00  0.00    +0.104 C 
ATOM      6  C   UNL     1      33.594 -18.094 -25.677  0.00  0.00    +0.187 A 
ATOM      7  C   UNL     1      34.765 -18.627 -23.916  0.00  0.00    +0.217 A 
ATOM      8  C   UNL     1      32.749 -15.928 -26.146  0.00  0.00    +0.024 C 
ATOM      9  C   UNL     1      32.870 -17.213 -26.503  0.00  0.00    +0.042 C 
ENDROOT
BRANCH   5  12
ATOM     10  N   UNL     1      33.062 -11.898 -24.586  0.00  0.00    -0.208 N 
ATOM     11  N   UNL     1      33.069 -12.154 -23.267  0.00  0.00    -0.176 NA
ATOM     12  C   UNL     1      33.266 -14.071 -24.493  0.00  0.00    +0.056 C 
ATOM     13  C   UNL     1      33.178 -13.013 -25.364  0.00  0.00    +0.087 C 
ATOM     14  C   UNL     1      33.193 -13.482 -23.216  0.00  0.00    +0.121 C 
ATOM     15  C   UNL     1      32.940 -10.537 -25.052  0.00  0.00    +0.140 C 
ENDBRANCH   5  12
BRANCH   7  16
ATOM     16  S   UNL     1      35.638 -18.489 -22.364  0.00  0.00    -0.051 S 
BRANCH  16  19
ATOM     17  N   UNL     1      32.314 -21.978 -18.876  0.00  0.00    -0.248 NA
ATOM     18  C   UNL     1      34.491 -21.200 -19.554  0.00  0.00    -0.003 C 
ATOM     19  C   UNL     1      34.652 -19.537 -21.315  0.00  0.00    +0.011 C 
ATOM     20  C   UNL     1      33.084 -21.196 -19.655  0.00  0.00    +0.060 C 
ATOM     21  C   UNL     1      35.264 -20.371 -20.384  0.00  0.00    +0.060 C 
ATOM     22  C   UNL     1      33.267 -19.528 -21.420  0.00  0.00    -0.017 C 
ATOM     23  C   UNL     1      32.498 -20.352 -20.595  0.00  0.00    +0.072 C 
ATOM     24  C   UNL     1      35.081 -22.050 -18.609  0.00  0.00    -0.001 C 
ATOM     25  C   UNL     1      34.290 -22.857 -17.804  0.00  0.00    +0.020 C 
ATOM     26  C   UNL     1      32.923 -22.783 -17.976  0.00  0.00    +0.098 C 
ENDBRANCH  16  19
ENDBRANCH   7  16
TORSDOF 3
ENDMDL
MODEL 4
REMARK VINA RESULT:     -11.7      3.259     10.554
REMARK  Name = 24779724
REMARK  3 active torsions:
REMARK  status: ('A' for Active; 'I' for Inactive)
REMARK    1  A    between atoms: C_5  and  C_12
REMARK    2  A    between atoms: C_7  and  S_16
REMARK    3  A    between atoms: S_16  and  C_19
REMARK                            x       y       z     vdW  Elec       q    Type
REMARK                         _______ _______ _______ _____ _____    ______ ____
ROOT
ATOM      1  N   UNL     1      33.373 -16.871 -25.269  0.00  0.00    -0.186 N 
ATOM      2  N   UNL     1      33.348 -15.517 -25.338  0.00  0.00    -0.162 NA
ATOM      3  N   UNL     1      33.027 -18.992 -25.721  0.00  0.00    -0.126 NA
ATOM      4  N   UNL     1      33.816 -18.908 -24.592  0.00  0.00    -0.120 NA
ATOM      5  C   UNL     1      32.663 -15.054 -26.346  0.00  0.00    +0.104 C 
ATOM      6  C   UNL     1      32.767 -17.765 -26.120  0.00  0.00    +0.187 A 
ATOM      7  C   UNL     1      34.011 -17.634 -24.335  0.00  0.00    +0.217 A 
ATOM      8  C   UNL     1      31.937 -15.908 -27.341  0.00  0.00    +0.024 C 
ATOM      9  C   UNL     1      32.019 -17.236 -27.191  0.00  0.00    +0.042 C 
ENDROOT
BRANCH   5  12
ATOM     10  N   UNL     1      32.759 -11.425 -26.258  0.00  0.00    -0.208 N 
ATOM     11  N   UNL     1      32.056 -11.531 -27.399  0.00  0.00    -0.176 NA
ATOM     12  C   UNL     1      32.565 -13.584 -26.535  0.00  0.00    +0.056 C 
ATOM     13  C   UNL     1      33.088 -12.626 -25.700  0.00  0.00    +0.087 C 
ATOM     14  C   UNL     1      31.941 -12.851 -27.563  0.00  0.00    +0.121 C 
ATOM     15  C   UNL     1      33.092 -10.120 -25.740  0.00  0.00    +0.140 C 
ENDBRANCH   5  12
BRANCH   7  16
ATOM     16  S   UNL     1      34.960 -16.951 -22.985  0.00  0.00    -0.051 S 
BRANCH  16  19
ATOM     17  N   UNL     1      35.384 -21.634 -19.341  0.00  0.00    -0.248 NA
ATOM     18  C   UNL     1      34.007 -20.093 -20.580  0.00  0.00    -0.003 C 
ATOM     19  C   UNL     1      35.076 -18.354 -21.894  0.00  0.00    +0.011 C 
ATOM     20  C   UNL     1      35.266 -20.576 -20.165  0.00  0.00    +0.060 C 
ATOM     21  C   UNL     1      33.921 -18.986 -21.441  0.00  0.00    +0.060 C 
ATOM     22  C   UNL     1      36.318 -18.824 -21.489  0.00  0.00    -0.017 C 
ATOM     23  C   UNL     1      36.404 -19.925 -20.633  0.00  0.00    +0.072 C 
ATOM     24  C   UNL     1      32.862 -20.748 -20.109  0.00  0.00    -0.001 C 
ATOM     25  C   UNL     1      32.980 -21.838 -19.260  0.00  0.00    +0.020 C 
ATOM     26  C   UNL     1      34.254 -22.238 -18.909  0.00  0.00    +0.098 C 
ENDBRANCH  16  19
ENDBRANCH   7  16
TORSDOF 3
ENDMDL
MODEL 5
REMARK VINA RESULT:     -10.8      2.504      3.807
REMARK  Name = 24779724
REMARK  3 active torsions:
REMARK  status: ('A' for Active; 'I' for Inactive)
REMARK    1  A    between atoms: C_5  and  C_12
REMARK    2  A    between atoms: C_7  and  S_16
REMARK    3  A    between atoms: S_16  and  C_19
REMARK                            x       y       z     vdW  Elec       q    Type
REMARK                         _______ _______ _______ _____ _____    ______ ____
ROOT
ATOM      1  N   UNL     1      32.541 -23.367 -16.076  0.00  0.00    -0.186 N 
ATOM      2  N   UNL     1      33.603 -23.845 -15.381  0.00  0.00    -0.162 NA
ATOM      3  N   UNL     1      30.552 -22.579 -16.570  0.00  0.00    -0.126 NA
ATOM      4  N   UNL     1      31.285 -22.678 -17.735  0.00  0.00    -0.120 NA
ATOM      5  C   UNL     1      33.392 -23.940 -14.099  0.00  0.00    +0.104 C 
ATOM      6  C   UNL     1      31.314 -22.994 -15.581  0.00  0.00    +0.187 A 
ATOM      7  C   UNL     1      32.470 -23.152 -17.422  0.00  0.00    +0.217 A 
ATOM      8  C   UNL     1      32.101 -23.588 -13.423  0.00  0.00    +0.024 C 
ATOM      9  C   UNL     1      31.109 -23.125 -14.193  0.00  0.00    +0.042 C 
ENDROOT
BRANCH   5  12
ATOM     10  N   UNL     1      36.370 -25.290 -12.518  0.00  0.00    -0.208 N 
ATOM     11  N   UNL     1      35.692 -25.047 -11.383  0.00  0.00    -0.176 NA
ATOM     12  C   UNL     1      34.483 -24.447 -13.226  0.00  0.00    +0.056 C 
ATOM     13  C   UNL     1      35.689 -24.949 -13.650  0.00  0.00    +0.087 C 
ATOM     14  C   UNL     1      34.541 -24.531 -11.821  0.00  0.00    +0.121 C 
ATOM     15  C   UNL     1      37.693 -25.863 -12.454  0.00  0.00    +0.140 C 
ENDBRANCH   5  12
BRANCH   7  16
ATOM     16  S   UNL     1      33.819 -23.481 -18.546  0.00  0.00    -0.051 S 
BRANCH  16  19
ATOM     17  N   UNL     1      33.936 -18.432 -21.689  0.00  0.00    -0.248 NA
ATOM     18  C   UNL     1      35.127 -20.217 -20.594  0.00  0.00    -0.003 C 
ATOM     19  C   UNL     1      33.865 -21.970 -19.488  0.00  0.00    +0.011 C 
ATOM     20  C   UNL     1      33.932 -19.575 -20.978  0.00  0.00    +0.060 C 
ATOM     21  C   UNL     1      35.086 -21.410 -19.852  0.00  0.00    +0.060 C 
ATOM     22  C   UNL     1      32.684 -21.343 -19.862  0.00  0.00    -0.017 C 
ATOM     23  C   UNL     1      32.725 -20.157 -20.600  0.00  0.00    +0.072 C 
ATOM     24  C   UNL     1      36.342 -19.631 -20.975  0.00  0.00    -0.001 C 
ATOM     25  C   UNL     1      36.350 -18.453 -21.708  0.00  0.00    +0.020 C 
ATOM     26  C   UNL     1      35.129 -17.899 -22.036  0.00  0.00    +0.098 C 
ENDBRANCH  16  19
ENDBRANCH   7  16
TORSDOF 3
ENDMDL
MODEL 6
REMARK VINA RESULT:     -10.6      3.545      5.991
REMARK  Name = 24779724
REMARK  3 active torsions:
REMARK  status: ('A' for Active; 'I' for Inactive)
REMARK    1  A    between atoms: C_5  and  C_12
REMARK    2  A    between atoms: C_7  and  S_16
REMARK    3  A    between atoms: S_16  and  C_19
REMARK                            x       y       z     vdW  Elec       q    Type
REMARK                         _______ _______ _______ _____ _____    ______ ____
ROOT
ATOM      1  N   UNL     1      32.571 -23.278 -16.347  0.00  0.00    -0.186 N 
ATOM      2  N   UNL     1      31.278 -23.238 -16.753  0.00  0.00    -0.162 NA
ATOM      3  N   UNL     1      34.364 -23.252 -15.078  0.00  0.00    -0.126 NA
ATOM      4  N   UNL     1      34.757 -23.439 -16.388  0.00  0.00    -0.120 NA
ATOM      5  C   UNL     1      30.427 -23.068 -15.781  0.00  0.00    +0.104 C 
ATOM      6  C   UNL     1      33.051 -23.156 -15.064  0.00  0.00    +0.187 A 
ATOM      7  C   UNL     1      33.674 -23.450 -17.132  0.00  0.00    +0.217 A 
ATOM      8  C   UNL     1      30.806 -22.903 -14.340  0.00  0.00    +0.024 C 
ATOM      9  C   UNL     1      32.109 -22.956 -14.036  0.00  0.00    +0.042 C 
ENDROOT
BRANCH   5  12
ATOM     10  N   UNL     1      26.851 -22.504 -16.074  0.00  0.00    -0.208 N 
ATOM     11  N   UNL     1      26.945 -23.404 -17.068  0.00  0.00    -0.176 NA
ATOM     12  C   UNL     1      28.976 -23.013 -16.097  0.00  0.00    +0.056 C 
ATOM     13  C   UNL     1      28.040 -22.236 -15.461  0.00  0.00    +0.087 C 
ATOM     14  C   UNL     1      28.245 -23.711 -17.078  0.00  0.00    +0.121 C 
ATOM     15  C   UNL     1      25.570 -21.924 -15.751  0.00  0.00    +0.140 C 
ENDBRANCH   5  12
BRANCH   7  16
ATOM     16  S   UNL     1      33.600 -23.659 -18.905  0.00  0.00    -0.051 S 
BRANCH  16  19
ATOM     17  N   UNL     1      36.285 -18.687 -20.761  0.00  0.00    -0.248 NA
ATOM     18  C   UNL     1      34.356 -20.130 -20.784  0.00  0.00    -0.003 C 
ATOM     19  C   UNL     1      34.394 -22.168 -19.466  0.00  0.00    +0.011 C 
ATOM     20  C   UNL     1      35.659 -19.806 -20.353  0.00  0.00    +0.060 C 
ATOM     21  C   UNL     1      33.733 -21.307 -20.337  0.00  0.00    +0.060 C 
ATOM     22  C   UNL     1      35.678 -21.856 -19.038  0.00  0.00    -0.017 C 
ATOM     23  C   UNL     1      36.298 -20.685 -19.481  0.00  0.00    +0.072 C 
ATOM     24  C   UNL     1      33.713 -19.246 -21.661  0.00  0.00    -0.001 C 
ATOM     25  C   UNL     1      34.355 -18.091 -22.083  0.00  0.00    +0.020 C 
ATOM     26  C   UNL     1      35.630 -17.860 -21.607  0.00  0.00    +0.098 C 
ENDBRANCH  16  19
ENDBRANCH   7  16
TORSDOF 3
ENDMDL
MODEL 7
REMARK VINA RESULT:     -10.4      1.775      9.158
REMARK  Name = 24779724
REMARK  3 active torsions:
REMARK  status: ('A' for Active; 'I' for Inactive)
REMARK    1  A    between atoms: C_5  and  C_12
REMARK    2  A    between atoms: C_7  and  S_16
REMARK    3  A    between atoms: S_16  and  C_19
REMARK                            x       y       z     vdW  Elec       q    Type
REMARK                         _______ _______ _______ _____ _____    ______ ____
ROOT
ATOM      1  N   UNL     1      34.195 -21.190 -19.355  0.00  0.00    -0.186 N 
ATOM      2  N   UNL     1      34.728 -20.163 -20.062  0.00  0.00    -0.162 NA
ATOM      3  N   UNL     1      32.791 -22.705 -18.607  0.00  0.00    -0.126 NA
ATOM      4  N   UNL     1      33.985 -22.840 -17.928  0.00  0.00    -0.120 NA
ATOM      5  C   UNL     1      33.910 -19.644 -20.934  0.00  0.00    +0.104 C 
ATOM      6  C   UNL     1      32.927 -21.712 -19.461  0.00  0.00    +0.187 A 
ATOM      7  C   UNL     1      34.812 -21.927 -18.386  0.00  0.00    +0.217 A 
ATOM      8  C   UNL     1      32.497 -20.098 -21.146  0.00  0.00    +0.024 C 
ATOM      9  C   UNL     1      32.059 -21.120 -20.400  0.00  0.00    +0.042 C 
ENDROOT
BRANCH   5  12
ATOM     10  N   UNL     1      34.761 -17.191 -23.473  0.00  0.00    -0.208 N 
ATOM     11  N   UNL     1      35.367 -16.567 -22.449  0.00  0.00    -0.176 NA
ATOM     12  C   UNL     1      34.378 -18.513 -21.776  0.00  0.00    +0.056 C 
ATOM     13  C   UNL     1      34.154 -18.362 -23.122  0.00  0.00    +0.087 C 
ATOM     14  C   UNL     1      35.130 -17.378 -21.415  0.00  0.00    +0.121 C 
ATOM     15  C   UNL     1      34.797 -16.607 -24.792  0.00  0.00    +0.140 C 
ENDBRANCH   5  12
BRANCH   7  16
ATOM     16  S   UNL     1      36.495 -21.651 -17.858  0.00  0.00    -0.051 S 
BRANCH  16  19
ATOM     17  N   UNL     1      36.640 -24.804 -12.815  0.00  0.00    -0.248 NA
ATOM     18  C   UNL     1      37.669 -24.197 -14.908  0.00  0.00    -0.003 C 
ATOM     19  C   UNL     1      36.549 -22.599 -16.351  0.00  0.00    +0.011 C 
ATOM     20  C   UNL     1      36.627 -24.099 -13.962  0.00  0.00    +0.060 C 
ATOM     21  C   UNL     1      37.622 -23.447 -16.095  0.00  0.00    +0.060 C 
ATOM     22  C   UNL     1      35.519 -22.498 -15.424  0.00  0.00    -0.017 C 
ATOM     23  C   UNL     1      35.565 -23.243 -14.244  0.00  0.00    +0.072 C 
ATOM     24  C   UNL     1      38.737 -25.058 -14.624  0.00  0.00    -0.001 C 
ATOM     25  C   UNL     1      38.754 -25.786 -13.444  0.00  0.00    +0.020 C 
ATOM     26  C   UNL     1      37.689 -25.623 -12.580  0.00  0.00    +0.098 C 
ENDBRANCH  16  19
ENDBRANCH   7  16
TORSDOF 3
ENDMDL
MODEL 8
REMARK VINA RESULT:     -10.3      6.192      9.317
REMARK  Name = 24779724
REMARK  3 active torsions:
REMARK  status: ('A' for Active; 'I' for Inactive)
REMARK    1  A    between atoms: C_5  and  C_12
REMARK    2  A    between atoms: C_7  and  S_16
REMARK    3  A    between atoms: S_16  and  C_19
REMARK                            x       y       z     vdW  Elec       q    Type
REMARK                         _______ _______ _______ _____ _____    ______ ____
ROOT
ATOM      1  N   UNL     1      32.590 -14.883 -26.638  0.00  0.00    -0.186 N 
ATOM      2  N   UNL     1      33.401 -15.589 -25.811  0.00  0.00    -0.162 NA
ATOM      3  N   UNL     1      30.963 -14.350 -28.014  0.00  0.00    -0.126 NA
ATOM      4  N   UNL     1      31.735 -13.228 -27.792  0.00  0.00    -0.120 NA
ATOM      5  C   UNL     1      33.051 -16.836 -25.669  0.00  0.00    +0.104 C 
ATOM      6  C   UNL     1      31.484 -15.338 -27.317  0.00  0.00    +0.187 A 
ATOM      7  C   UNL     1      32.703 -13.564 -26.970  0.00  0.00    +0.217 A 
ATOM      8  C   UNL     1      31.882 -17.472 -26.359  0.00  0.00    +0.024 C 
ATOM      9  C   UNL     1      31.139 -16.695 -27.158  0.00  0.00    +0.042 C 
ENDROOT
BRANCH   5  12
ATOM     10  N   UNL     1      35.175 -18.435 -23.195  0.00  0.00    -0.208 N 
ATOM     11  N   UNL     1      34.840 -19.556 -23.857  0.00  0.00    -0.176 NA
ATOM     12  C   UNL     1      33.857 -17.713 -24.782  0.00  0.00    +0.056 C 
ATOM     13  C   UNL     1      34.612 -17.303 -23.711  0.00  0.00    +0.087 C 
ATOM     14  C   UNL     1      34.036 -19.110 -24.824  0.00  0.00    +0.121 C 
ATOM     15  C   UNL     1      36.055 -18.510 -22.054  0.00  0.00    +0.140 C 
ENDBRANCH   5  12
BRANCH   7  16
ATOM     16  S   UNL     1      33.994 -12.497 -26.348  0.00  0.00    -0.051 S 
BRANCH  16  19
ATOM     17  N   UNL     1      31.472 -10.360 -21.402  0.00  0.00    -0.248 NA
ATOM     18  C   UNL     1      32.403 -12.224 -22.613  0.00  0.00    -0.003 C 
ATOM     19  C   UNL     1      33.240 -11.868 -24.863  0.00  0.00    +0.011 C 
ATOM     20  C   UNL     1      32.044 -10.864 -22.512  0.00  0.00    +0.060 C 
ATOM     21  C   UNL     1      32.998 -12.716 -23.786  0.00  0.00    +0.060 C 
ATOM     22  C   UNL     1      32.889 -10.527 -24.771  0.00  0.00    -0.017 C 
ATOM     23  C   UNL     1      32.297 -10.037 -23.604  0.00  0.00    +0.072 C 
ATOM     24  C   UNL     1      32.148 -13.056 -21.514  0.00  0.00    -0.001 C 
ATOM     25  C   UNL     1      31.559 -12.540 -20.369  0.00  0.00    +0.020 C 
ATOM     26  C   UNL     1      31.244 -11.196 -20.365  0.00  0.00    +0.098 C 
ENDBRANCH  16  19
ENDBRANCH   7  16
TORSDOF 3
ENDMDL
MODEL 9
REMARK VINA RESULT:     -10.1      4.049      8.114
REMARK  Name = 24779724
REMARK  3 active torsions:
REMARK  status: ('A' for Active; 'I' for Inactive)
REMARK    1  A    between atoms: C_5  and  C_12
REMARK    2  A    between atoms: C_7  and  S_16
REMARK    3  A    between atoms: S_16  and  C_19
REMARK                            x       y       z     vdW  Elec       q    Type
REMARK                         _______ _______ _______ _____ _____    ______ ____
ROOT
ATOM      1  N   UNL     1      33.803 -15.764 -24.255  0.00  0.00    -0.186 N 
ATOM      2  N   UNL     1      34.155 -16.480 -23.158  0.00  0.00    -0.162 NA
ATOM      3  N   UNL     1      33.358 -15.209 -26.333  0.00  0.00    -0.126 NA
ATOM      4  N   UNL     1      33.154 -14.104 -25.531  0.00  0.00    -0.120 NA
ATOM      5  C   UNL     1      34.462 -17.720 -23.416  0.00  0.00    +0.104 C 
ATOM      6  C   UNL     1      33.746 -16.200 -25.558  0.00  0.00    +0.187 A 
ATOM      7  C   UNL     1      33.426 -14.453 -24.294  0.00  0.00    +0.217 A 
ATOM      8  C   UNL     1      34.462 -18.326 -24.787  0.00  0.00    +0.024 C 
ATOM      9  C   UNL     1      34.101 -17.540 -25.809  0.00  0.00    +0.042 C 
ENDROOT
BRANCH   5  12
ATOM     10  N   UNL     1      34.846 -20.150 -20.745  0.00  0.00    -0.208 N 
ATOM     11  N   UNL     1      36.066 -19.598 -20.625  0.00  0.00    -0.176 NA
ATOM     12  C   UNL     1      34.860 -18.610 -22.295  0.00  0.00    +0.056 C 
ATOM     13  C   UNL     1      34.084 -19.593 -21.730  0.00  0.00    +0.087 C 
ATOM     14  C   UNL     1      36.069 -18.660 -21.575  0.00  0.00    +0.121 C 
ATOM     15  C   UNL     1      34.458 -21.228 -19.868  0.00  0.00    +0.140 C 
ENDBRANCH   5  12
BRANCH   7  16
ATOM     16  S   UNL     1      33.332 -13.410 -22.846  0.00  0.00    -0.051 S 
BRANCH  16  19
ATOM     17  N   UNL     1      33.277  -7.986 -25.287  0.00  0.00    -0.248 NA
ATOM     18  C   UNL     1      34.324 -10.144 -25.061  0.00  0.00    -0.003 C 
ATOM     19  C   UNL     1      33.324 -11.789 -23.583  0.00  0.00    +0.011 C 
ATOM     20  C   UNL     1      33.307  -9.218 -24.747  0.00  0.00    +0.060 C 
ATOM     21  C   UNL     1      34.325 -11.422 -24.478  0.00  0.00    +0.060 C 
ATOM     22  C   UNL     1      32.320 -10.882 -23.268  0.00  0.00    -0.017 C 
ATOM     23  C   UNL     1      32.319  -9.612 -23.848  0.00  0.00    +0.072 C 
ATOM     24  C   UNL     1      35.319  -9.748 -25.965  0.00  0.00    -0.001 C 
ATOM     25  C   UNL     1      35.290  -8.479 -26.524  0.00  0.00    +0.020 C 
ATOM     26  C   UNL     1      34.256  -7.643 -26.155  0.00  0.00    +0.098 C 
ENDBRANCH  16  19
ENDBRANCH   7  16
TORSDOF 3
ENDMDL
