MODEL 1
REMARK VINA RESULT:     -13.1      0.000      0.000
REMARK  Name = 24941249
REMARK  6 active torsions:
REMARK  status: ('A' for Active; 'I' for Inactive)
REMARK    1  A    between atoms: N_1  and  C_13
REMARK    2  A    between atoms: N_2  and  C_26
REMARK    3  A    between atoms: C_14  and  C_19
REMARK    4  A    between atoms: C_19  and  C_20
REMARK    5  A    between atoms: C_20  and  C_23
REMARK    6  A    between atoms: C_26  and  C_28
REMARK                            x       y       z     vdW  Elec       q    Type
REMARK                         _______ _______ _______ _____ _____    ______ ____
ROOT
ATOM      1  N   UNL     1      33.572 -24.250 -13.798  0.00  0.00    -0.230 N 
ATOM      2  N   UNL     1      34.265 -22.312 -18.230  0.00  0.00    -0.316 N 
ATOM      3  N   UNL     1      32.485 -24.680 -13.134  0.00  0.00    -0.169 NA
ATOM      4  N   UNL     1      32.134 -22.961 -17.395  0.00  0.00    -0.229 NA
ATOM      5  C   UNL     1      33.309 -23.768 -15.050  0.00  0.00    +0.088 A 
ATOM      6  C   UNL     1      31.935 -23.896 -15.212  0.00  0.00    +0.052 A 
ATOM      7  C   UNL     1      31.491 -24.462 -13.999  0.00  0.00    +0.082 A 
ATOM      8  C   UNL     1      34.138 -23.241 -16.035  0.00  0.00    +0.053 C 
ATOM      9  C   UNL     1      33.469 -22.858 -17.188  0.00  0.00    +0.130 C 
ATOM     10  C   UNL     1      31.357 -23.480 -16.411  0.00  0.00    +0.103 C 
ATOM     11  C   UNL     1      30.111 -24.815 -13.623  0.00  0.00    +0.054 C 
ATOM     12  H   UNL     1      35.236 -22.231 -18.090  0.00  0.00    +0.148 HD
ENDROOT
BRANCH   1  13
ATOM     13  C   UNL     1      34.825 -24.326 -13.188  0.00  0.00    +0.082 C 
ATOM     14  C   UNL     1      37.021 -25.323 -13.036  0.00  0.00    -0.020 C 
ATOM     15  C   UNL     1      35.768 -25.247 -13.645  0.00  0.00    +0.015 C 
ATOM     16  C   UNL     1      35.134 -23.481 -12.123  0.00  0.00    +0.019 C 
ATOM     17  C   UNL     1      37.330 -24.478 -11.970  0.00  0.00    -0.004 C 
ATOM     18  C   UNL     1      36.387 -23.557 -11.514  0.00  0.00    +0.001 C 
BRANCH  14  19
ATOM     19  C   UNL     1      38.028 -26.308 -13.523  0.00  0.00    +0.036 C 
BRANCH  19  20
ATOM     20  C   UNL     1      39.383 -25.654 -13.820  0.00  0.00    +0.089 C 
BRANCH  20  23
ATOM     21  O   UNL     1      40.272 -26.145 -16.024  0.00  0.00    -0.275 OA
ATOM     22  N   UNL     1      38.975 -24.267 -15.743  0.00  0.00    -0.329 N 
ATOM     23  C   UNL     1      39.606 -25.410 -15.301  0.00  0.00    +0.220 C 
ATOM     24  H   UNL     1      39.045 -24.001 -16.688  0.00  0.00    +0.145 HD
ATOM     25  H   UNL     1      38.454 -23.718 -15.114  0.00  0.00    +0.145 HD
ENDBRANCH  20  23
ENDBRANCH  19  20
ENDBRANCH  14  19
ENDBRANCH   1  13
BRANCH   2  26
ATOM     26  C   UNL     1      33.714 -21.878 -19.470  0.00  0.00    +0.093 C 
ATOM     27  C   UNL     1      32.296 -21.357 -19.240  0.00  0.00    +0.026 C 
BRANCH  26  28
ATOM     28  C   UNL     1      34.622 -20.855 -20.116  0.00  0.00    -0.005 C 
ATOM     29  C   UNL     1      35.992 -20.872 -19.852  0.00  0.00    -0.003 C 
ATOM     30  C   UNL     1      34.090 -19.894 -20.976  0.00  0.00    -0.003 C 
ATOM     31  C   UNL     1      36.829 -19.928 -20.448  0.00  0.00    -0.000 C 
ATOM     32  C   UNL     1      34.926 -18.950 -21.571  0.00  0.00    -0.000 C 
ATOM     33  C   UNL     1      36.296 -18.968 -21.308  0.00  0.00    -0.000 C 
ENDBRANCH  26  28
ENDBRANCH   2  26
TORSDOF 6
ENDMDL
MODEL 2
REMARK VINA RESULT:     -12.3      7.514     13.305
REMARK  Name = 24941249
REMARK  6 active torsions:
REMARK  status: ('A' for Active; 'I' for Inactive)
REMARK    1  A    between atoms: N_1  and  C_13
REMARK    2  A    between atoms: N_2  and  C_26
REMARK    3  A    between atoms: C_14  and  C_19
REMARK    4  A    between atoms: C_19  and  C_20
REMARK    5  A    between atoms: C_20  and  C_23
REMARK    6  A    between atoms: C_26  and  C_28
REMARK                            x       y       z     vdW  Elec       q    Type
REMARK                         _______ _______ _______ _____ _____    ______ ____
ROOT
ATOM      1  N   UNL     1      32.995 -14.076 -25.064  0.00  0.00    -0.230 N 
ATOM      2  N   UNL     1      35.184 -17.524 -22.381  0.00  0.00    -0.316 N 
ATOM      3  N   UNL     1      32.493 -14.052 -26.311  0.00  0.00    -0.169 NA
ATOM      4  N   UNL     1      34.416 -17.876 -24.606  0.00  0.00    -0.229 NA
ATOM      5  C   UNL     1      33.532 -15.280 -24.700  0.00  0.00    +0.088 A 
ATOM      6  C   UNL     1      33.363 -16.106 -25.804  0.00  0.00    +0.052 A 
ATOM      7  C   UNL     1      32.719 -15.290 -26.758  0.00  0.00    +0.082 A 
ATOM      8  C   UNL     1      34.138 -15.709 -23.525  0.00  0.00    +0.053 C 
ATOM      9  C   UNL     1      34.557 -17.030 -23.556  0.00  0.00    +0.130 C 
ATOM     10  C   UNL     1      33.820 -17.422 -25.736  0.00  0.00    +0.103 C 
ATOM     11  C   UNL     1      32.298 -15.658 -28.120  0.00  0.00    +0.054 C 
ATOM     12  H   UNL     1      35.292 -16.918 -21.613  0.00  0.00    +0.148 HD
ENDROOT
BRANCH   1  13
ATOM     13  C   UNL     1      32.932 -12.927 -24.275  0.00  0.00    +0.082 C 
ATOM     14  C   UNL     1      32.221 -11.816 -22.251  0.00  0.00    -0.020 C 
ATOM     15  C   UNL     1      32.284 -12.964 -23.040  0.00  0.00    +0.015 C 
ATOM     16  C   UNL     1      33.518 -11.743 -24.720  0.00  0.00    +0.019 C 
ATOM     17  C   UNL     1      32.807 -10.631 -22.696  0.00  0.00    -0.004 C 
ATOM     18  C   UNL     1      33.456 -10.594 -23.930  0.00  0.00    +0.001 C 
BRANCH  14  19
ATOM     19  C   UNL     1      31.527 -11.854 -20.932  0.00  0.00    +0.036 C 
BRANCH  19  20
ATOM     20  C   UNL     1      31.016 -10.473 -20.504  0.00  0.00    +0.089 C 
BRANCH  20  23
ATOM     21  O   UNL     1      31.570 -10.391 -18.143  0.00  0.00    -0.275 OA
ATOM     22  N   UNL     1      32.562  -8.884 -19.570  0.00  0.00    -0.329 N 
ATOM     23  C   UNL     1      31.724  -9.939 -19.274  0.00  0.00    +0.220 C 
ATOM     24  H   UNL     1      33.079  -8.451 -18.853  0.00  0.00    +0.145 HD
ATOM     25  H   UNL     1      32.643  -8.566 -20.497  0.00  0.00    +0.145 HD
ENDBRANCH  20  23
ENDBRANCH  19  20
ENDBRANCH  14  19
ENDBRANCH   1  13
BRANCH   2  26
ATOM     26  C   UNL     1      35.662 -18.862 -22.271  0.00  0.00    +0.093 C 
ATOM     27  C   UNL     1      37.115 -18.844 -21.800  0.00  0.00    +0.026 C 
BRANCH  26  28
ATOM     28  C   UNL     1      34.757 -19.668 -21.365  0.00  0.00    -0.005 C 
ATOM     29  C   UNL     1      33.373 -19.508 -21.440  0.00  0.00    -0.003 C 
ATOM     30  C   UNL     1      35.305 -20.571 -20.455  0.00  0.00    -0.003 C 
ATOM     31  C   UNL     1      32.538 -20.251 -20.605  0.00  0.00    -0.000 C 
ATOM     32  C   UNL     1      34.471 -21.313 -19.620  0.00  0.00    -0.000 C 
ATOM     33  C   UNL     1      33.087 -21.154 -19.695  0.00  0.00    -0.000 C 
ENDBRANCH  26  28
ENDBRANCH   2  26
TORSDOF 6
ENDMDL
MODEL 3
REMARK VINA RESULT:     -12.2      8.321     13.854
REMARK  Name = 24941249
REMARK  6 active torsions:
REMARK  status: ('A' for Active; 'I' for Inactive)
REMARK    1  A    between atoms: N_1  and  C_13
REMARK    2  A    between atoms: N_2  and  C_26
REMARK    3  A    between atoms: C_14  and  C_19
REMARK    4  A    between atoms: C_19  and  C_20
REMARK    5  A    between atoms: C_20  and  C_23
REMARK    6  A    between atoms: C_26  and  C_28
REMARK                            x       y       z     vdW  Elec       q    Type
REMARK                         _______ _______ _______ _____ _____    ______ ____
ROOT
ATOM      1  N   UNL     1      32.913 -13.453 -24.304  0.00  0.00    -0.230 N 
ATOM      2  N   UNL     1      34.784 -17.397 -22.107  0.00  0.00    -0.316 N 
ATOM      3  N   UNL     1      32.699 -13.122 -25.589  0.00  0.00    -0.169 NA
ATOM      4  N   UNL     1      34.568 -17.182 -24.467  0.00  0.00    -0.229 NA
ATOM      5  C   UNL     1      33.473 -14.688 -24.129  0.00  0.00    +0.088 A 
ATOM      6  C   UNL     1      33.636 -15.202 -25.410  0.00  0.00    +0.052 A 
ATOM      7  C   UNL     1      33.141 -14.189 -26.259  0.00  0.00    +0.082 A 
ATOM      8  C   UNL     1      33.843 -15.387 -22.985  0.00  0.00    +0.053 C 
ATOM      9  C   UNL     1      34.387 -16.636 -23.239  0.00  0.00    +0.130 C 
ATOM     10  C   UNL     1      34.194 -16.471 -25.560  0.00  0.00    +0.103 C 
ATOM     11  C   UNL     1      33.071 -14.203 -27.730  0.00  0.00    +0.054 C 
ATOM     12  H   UNL     1      34.658 -17.010 -21.211  0.00  0.00    +0.148 HD
ENDROOT
BRANCH   1  13
ATOM     13  C   UNL     1      32.562 -12.555 -23.295  0.00  0.00    +0.082 C 
ATOM     14  C   UNL     1      32.345 -10.284 -22.497  0.00  0.00    -0.020 C 
ATOM     15  C   UNL     1      32.695 -11.182 -23.506  0.00  0.00    +0.015 C 
ATOM     16  C   UNL     1      32.079 -13.029 -22.076  0.00  0.00    +0.019 C 
ATOM     17  C   UNL     1      31.861 -10.759 -21.278  0.00  0.00    -0.004 C 
ATOM     18  C   UNL     1      31.728 -12.132 -21.067  0.00  0.00    +0.001 C 
BRANCH  14  19
ATOM     19  C   UNL     1      32.488  -8.817 -22.722  0.00  0.00    +0.036 C 
BRANCH  19  20
ATOM     20  C   UNL     1      31.609  -7.996 -21.772  0.00  0.00    +0.089 C 
BRANCH  20  23
ATOM     21  O   UNL     1      32.377  -5.787 -21.126  0.00  0.00    -0.275 OA
ATOM     22  N   UNL     1      33.160  -7.616 -19.972  0.00  0.00    -0.329 N 
ATOM     23  C   UNL     1      32.403  -7.001 -20.947  0.00  0.00    +0.220 C 
ATOM     24  H   UNL     1      33.720  -7.074 -19.371  0.00  0.00    +0.145 HD
ATOM     25  H   UNL     1      33.139  -8.595 -19.879  0.00  0.00    +0.145 HD
ENDBRANCH  20  23
ENDBRANCH  19  20
ENDBRANCH  14  19
ENDBRANCH   1  13
BRANCH   2  26
ATOM     26  C   UNL     1      35.356 -18.697 -22.218  0.00  0.00    +0.093 C 
ATOM     27  C   UNL     1      36.862 -18.611 -21.974  0.00  0.00    +0.026 C 
BRANCH  26  28
ATOM     28  C   UNL     1      34.659 -19.657 -21.279  0.00  0.00    -0.005 C 
ATOM     29  C   UNL     1      35.409 -20.516 -20.476  0.00  0.00    -0.003 C 
ATOM     30  C   UNL     1      33.266 -19.682 -21.216  0.00  0.00    -0.003 C 
ATOM     31  C   UNL     1      34.766 -21.402 -19.611  0.00  0.00    -0.000 C 
ATOM     32  C   UNL     1      32.623 -20.567 -20.351  0.00  0.00    -0.000 C 
ATOM     33  C   UNL     1      33.373 -21.427 -19.548  0.00  0.00    -0.000 C 
ENDBRANCH  26  28
ENDBRANCH   2  26
TORSDOF 6
ENDMDL
MODEL 4
REMARK VINA RESULT:     -11.9      8.017     13.750
REMARK  Name = 24941249
REMARK  6 active torsions:
REMARK  status: ('A' for Active; 'I' for Inactive)
REMARK    1  A    between atoms: N_1  and  C_13
REMARK    2  A    between atoms: N_2  and  C_26
REMARK    3  A    between atoms: C_14  and  C_19
REMARK    4  A    between atoms: C_19  and  C_20
REMARK    5  A    between atoms: C_20  and  C_23
REMARK    6  A    between atoms: C_26  and  C_28
REMARK                            x       y       z     vdW  Elec       q    Type
REMARK                         _______ _______ _______ _____ _____    ______ ____
ROOT
ATOM      1  N   UNL     1      32.979 -13.832 -24.723  0.00  0.00    -0.230 N 
ATOM      2  N   UNL     1      34.957 -17.502 -22.173  0.00  0.00    -0.316 N 
ATOM      3  N   UNL     1      32.677 -13.664 -26.023  0.00  0.00    -0.169 NA
ATOM      4  N   UNL     1      34.573 -17.586 -24.520  0.00  0.00    -0.229 NA
ATOM      5  C   UNL     1      33.535 -15.047 -24.430  0.00  0.00    +0.088 A 
ATOM      6  C   UNL     1      33.599 -15.723 -25.643  0.00  0.00    +0.052 A 
ATOM      7  C   UNL     1      33.056 -14.817 -26.578  0.00  0.00    +0.082 A 
ATOM      8  C   UNL     1      33.979 -15.601 -23.235  0.00  0.00    +0.053 C 
ATOM      9  C   UNL     1      34.488 -16.884 -23.363  0.00  0.00    +0.130 C 
ATOM     10  C   UNL     1      34.130 -17.012 -25.667  0.00  0.00    +0.103 C 
ATOM     11  C   UNL     1      32.880 -15.017 -28.027  0.00  0.00    +0.054 C 
ATOM     12  H   UNL     1      34.902 -17.001 -21.328  0.00  0.00    +0.148 HD
ENDROOT
BRANCH   1  13
ATOM     13  C   UNL     1      32.714 -12.805 -23.817  0.00  0.00    +0.082 C 
ATOM     14  C   UNL     1      32.682 -10.451 -23.272  0.00  0.00    -0.020 C 
ATOM     15  C   UNL     1      32.947 -11.478 -24.178  0.00  0.00    +0.015 C 
ATOM     16  C   UNL     1      32.215 -13.105 -22.549  0.00  0.00    +0.019 C 
ATOM     17  C   UNL     1      32.183 -10.751 -22.004  0.00  0.00    -0.004 C 
ATOM     18  C   UNL     1      31.949 -12.078 -21.643  0.00  0.00    +0.001 C 
BRANCH  14  19
ATOM     19  C   UNL     1      32.932  -9.033 -23.657  0.00  0.00    +0.036 C 
BRANCH  19  20
ATOM     20  C   UNL     1      34.418  -8.662 -23.575  0.00  0.00    +0.089 C 
BRANCH  20  23
ATOM     21  O   UNL     1      35.012  -7.866 -25.788  0.00  0.00    -0.275 OA
ATOM     22  N   UNL     1      35.882  -9.865 -25.057  0.00  0.00    -0.329 N 
ATOM     23  C   UNL     1      35.116  -8.727 -24.920  0.00  0.00    +0.220 C 
ATOM     24  H   UNL     1      36.385 -10.022 -25.888  0.00  0.00    +0.145 HD
ATOM     25  H   UNL     1      35.925 -10.520 -24.324  0.00  0.00    +0.145 HD
ENDBRANCH  20  23
ENDBRANCH  19  20
ENDBRANCH  14  19
ENDBRANCH   1  13
BRANCH   2  26
ATOM     26  C   UNL     1      35.504 -18.817 -22.156  0.00  0.00    +0.093 C 
ATOM     27  C   UNL     1      36.979 -18.748 -21.764  0.00  0.00    +0.026 C 
BRANCH  26  28
ATOM     28  C   UNL     1      34.691 -19.709 -21.242  0.00  0.00    -0.005 C 
ATOM     29  C   UNL     1      33.299 -19.619 -21.237  0.00  0.00    -0.003 C 
ATOM     30  C   UNL     1      35.334 -20.622 -20.406  0.00  0.00    -0.003 C 
ATOM     31  C   UNL     1      32.550 -20.440 -20.394  0.00  0.00    -0.000 C 
ATOM     32  C   UNL     1      34.585 -21.443 -19.564  0.00  0.00    -0.000 C 
ATOM     33  C   UNL     1      33.193 -21.353 -19.558  0.00  0.00    -0.000 C 
ENDBRANCH  26  28
ENDBRANCH   2  26
TORSDOF 6
ENDMDL
MODEL 5
REMARK VINA RESULT:     -11.9      3.181      6.241
REMARK  Name = 24941249
REMARK  6 active torsions:
REMARK  status: ('A' for Active; 'I' for Inactive)
REMARK    1  A    between atoms: N_1  and  C_13
REMARK    2  A    between atoms: N_2  and  C_26
REMARK    3  A    between atoms: C_14  and  C_19
REMARK    4  A    between atoms: C_19  and  C_20
REMARK    5  A    between atoms: C_20  and  C_23
REMARK    6  A    between atoms: C_26  and  C_28
REMARK                            x       y       z     vdW  Elec       q    Type
REMARK                         _______ _______ _______ _____ _____    ______ ____
ROOT
ATOM      1  N   UNL     1      33.968 -23.794 -14.592  0.00  0.00    -0.230 N 
ATOM      2  N   UNL     1      35.085 -21.545 -18.785  0.00  0.00    -0.316 N 
ATOM      3  N   UNL     1      34.697 -24.209 -13.541  0.00  0.00    -0.169 NA
ATOM      4  N   UNL     1      36.696 -22.128 -17.133  0.00  0.00    -0.229 NA
ATOM      5  C   UNL     1      34.701 -23.195 -15.579  0.00  0.00    +0.088 A 
ATOM      6  C   UNL     1      36.016 -23.224 -15.129  0.00  0.00    +0.052 A 
ATOM      7  C   UNL     1      35.942 -23.860 -13.872  0.00  0.00    +0.082 A 
ATOM      8  C   UNL     1      34.336 -22.642 -16.801  0.00  0.00    +0.053 C 
ATOM      9  C   UNL     1      35.398 -22.124 -17.526  0.00  0.00    +0.130 C 
ATOM     10  C   UNL     1      37.014 -22.677 -15.934  0.00  0.00    +0.103 C 
ATOM     11  C   UNL     1      37.049 -24.155 -12.947  0.00  0.00    +0.054 C 
ATOM     12  H   UNL     1      34.146 -21.538 -19.080  0.00  0.00    +0.148 HD
ENDROOT
BRANCH   1  13
ATOM     13  C   UNL     1      32.588 -23.995 -14.595  0.00  0.00    +0.082 C 
ATOM     14  C   UNL     1      30.405 -23.514 -15.513  0.00  0.00    -0.020 C 
ATOM     15  C   UNL     1      31.786 -23.313 -15.510  0.00  0.00    +0.015 C 
ATOM     16  C   UNL     1      32.010 -24.878 -13.683  0.00  0.00    +0.019 C 
ATOM     17  C   UNL     1      29.827 -24.398 -14.602  0.00  0.00    -0.004 C 
ATOM     18  C   UNL     1      30.629 -25.080 -13.687  0.00  0.00    +0.001 C 
BRANCH  14  19
ATOM     19  C   UNL     1      29.547 -22.785 -16.490  0.00  0.00    +0.036 C 
BRANCH  19  20
ATOM     20  C   UNL     1      28.120 -22.580 -15.970  0.00  0.00    +0.089 C 
BRANCH  20  23
ATOM     21  O   UNL     1      27.079 -23.582 -17.919  0.00  0.00    -0.275 OA
ATOM     22  N   UNL     1      26.109 -21.722 -16.976  0.00  0.00    -0.329 N 
ATOM     23  C   UNL     1      27.072 -22.706 -17.060  0.00  0.00    +0.220 C 
ATOM     24  H   UNL     1      25.374 -21.698 -17.629  0.00  0.00    +0.145 HD
ATOM     25  H   UNL     1      26.158 -21.046 -16.263  0.00  0.00    +0.145 HD
ENDBRANCH  20  23
ENDBRANCH  19  20
ENDBRANCH  14  19
ENDBRANCH   1  13
BRANCH   2  26
ATOM     26  C   UNL     1      36.075 -20.974 -19.635  0.00  0.00    +0.093 C 
ATOM     27  C   UNL     1      36.869 -22.092 -20.310  0.00  0.00    +0.026 C 
BRANCH  26  28
ATOM     28  C   UNL     1      35.432 -20.026 -20.623  0.00  0.00    -0.005 C 
ATOM     29  C   UNL     1      36.201 -19.046 -21.251  0.00  0.00    -0.003 C 
ATOM     30  C   UNL     1      34.071 -20.133 -20.908  0.00  0.00    -0.003 C 
ATOM     31  C   UNL     1      35.608 -18.171 -22.162  0.00  0.00    -0.000 C 
ATOM     32  C   UNL     1      33.478 -19.259 -21.819  0.00  0.00    -0.000 C 
ATOM     33  C   UNL     1      34.247 -18.278 -22.446  0.00  0.00    -0.000 C 
ENDBRANCH  26  28
ENDBRANCH   2  26
TORSDOF 6
ENDMDL
MODEL 6
REMARK VINA RESULT:     -11.6      2.957      8.279
REMARK  Name = 24941249
REMARK  6 active torsions:
REMARK  status: ('A' for Active; 'I' for Inactive)
REMARK    1  A    between atoms: N_1  and  C_13
REMARK    2  A    between atoms: N_2  and  C_26
REMARK    3  A    between atoms: C_14  and  C_19
REMARK    4  A    between atoms: C_19  and  C_20
REMARK    5  A    between atoms: C_20  and  C_23
REMARK    6  A    between atoms: C_26  and  C_28
REMARK                            x       y       z     vdW  Elec       q    Type
REMARK                         _______ _______ _______ _____ _____    ______ ____
ROOT
ATOM      1  N   UNL     1      33.030 -22.311 -17.986  0.00  0.00    -0.230 N 
ATOM      2  N   UNL     1      36.134 -24.713 -15.076  0.00  0.00    -0.316 N 
ATOM      3  N   UNL     1      31.694 -22.162 -17.993  0.00  0.00    -0.169 NA
ATOM      4  N   UNL     1      33.777 -24.689 -14.752  0.00  0.00    -0.229 NA
ATOM      5  C   UNL     1      33.501 -23.088 -16.963  0.00  0.00    +0.088 A 
ATOM      6  C   UNL     1      32.375 -23.474 -16.248  0.00  0.00    +0.052 A 
ATOM      7  C   UNL     1      31.299 -22.872 -16.933  0.00  0.00    +0.082 A 
ATOM      8  C   UNL     1      34.788 -23.478 -16.611  0.00  0.00    +0.053 C 
ATOM      9  C   UNL     1      34.844 -24.284 -15.484  0.00  0.00    +0.130 C 
ATOM     10  C   UNL     1      32.536 -24.288 -15.127  0.00  0.00    +0.103 C 
ATOM     11  C   UNL     1      29.865 -22.949 -16.605  0.00  0.00    +0.054 C 
ATOM     12  H   UNL     1      36.916 -24.426 -15.601  0.00  0.00    +0.148 HD
ENDROOT
BRANCH   1  13
ATOM     13  C   UNL     1      33.797 -21.691 -18.973  0.00  0.00    +0.082 C 
ATOM     14  C   UNL     1      33.951 -20.247 -20.904  0.00  0.00    -0.020 C 
ATOM     15  C   UNL     1      33.184 -20.867 -19.917  0.00  0.00    +0.015 C 
ATOM     16  C   UNL     1      35.176 -21.895 -19.015  0.00  0.00    +0.019 C 
ATOM     17  C   UNL     1      35.330 -20.451 -20.946  0.00  0.00    -0.004 C 
ATOM     18  C   UNL     1      35.943 -21.274 -20.002  0.00  0.00    +0.001 C 
BRANCH  14  19
ATOM     19  C   UNL     1      33.296 -19.367 -21.914  0.00  0.00    +0.036 C 
BRANCH  19  20
ATOM     20  C   UNL     1      34.238 -19.010 -23.071  0.00  0.00    +0.089 C 
BRANCH  20  23
ATOM     21  O   UNL     1      34.741 -16.886 -22.013  0.00  0.00    -0.275 OA
ATOM     22  N   UNL     1      35.043 -17.095 -24.284  0.00  0.00    -0.329 N 
ATOM     23  C   UNL     1      34.692 -17.564 -23.035  0.00  0.00    +0.220 C 
ATOM     24  H   UNL     1      35.355 -16.168 -24.390  0.00  0.00    +0.145 HD
ATOM     25  H   UNL     1      34.981 -17.688 -25.067  0.00  0.00    +0.145 HD
ENDBRANCH  20  23
ENDBRANCH  19  20
ENDBRANCH  14  19
ENDBRANCH   1  13
BRANCH   2  26
ATOM     26  C   UNL     1      36.342 -25.543 -13.936  0.00  0.00    +0.093 C 
ATOM     27  C   UNL     1      37.638 -26.333 -14.113  0.00  0.00    +0.026 C 
BRANCH  26  28
ATOM     28  C   UNL     1      36.325 -24.710 -12.673  0.00  0.00    -0.005 C 
ATOM     29  C   UNL     1      35.492 -25.067 -11.613  0.00  0.00    -0.003 C 
ATOM     30  C   UNL     1      37.143 -23.585 -12.568  0.00  0.00    -0.003 C 
ATOM     31  C   UNL     1      35.475 -24.299 -10.449  0.00  0.00    -0.000 C 
ATOM     32  C   UNL     1      37.127 -22.818 -11.404  0.00  0.00    -0.000 C 
ATOM     33  C   UNL     1      36.293 -23.175 -10.344  0.00  0.00    -0.000 C 
ENDBRANCH  26  28
ENDBRANCH   2  26
TORSDOF 6
ENDMDL
MODEL 7
REMARK VINA RESULT:     -11.4      6.530     11.194
REMARK  Name = 24941249
REMARK  6 active torsions:
REMARK  status: ('A' for Active; 'I' for Inactive)
REMARK    1  A    between atoms: N_1  and  C_13
REMARK    2  A    between atoms: N_2  and  C_26
REMARK    3  A    between atoms: C_14  and  C_19
REMARK    4  A    between atoms: C_19  and  C_20
REMARK    5  A    between atoms: C_20  and  C_23
REMARK    6  A    between atoms: C_26  and  C_28
REMARK                            x       y       z     vdW  Elec       q    Type
REMARK                         _______ _______ _______ _____ _____    ______ ____
ROOT
ATOM      1  N   UNL     1      33.678 -17.721 -24.180  0.00  0.00    -0.230 N 
ATOM      2  N   UNL     1      34.212 -12.901 -23.572  0.00  0.00    -0.316 N 
ATOM      3  N   UNL     1      33.067 -18.475 -25.111  0.00  0.00    -0.169 NA
ATOM      4  N   UNL     1      33.031 -13.876 -25.394  0.00  0.00    -0.229 NA
ATOM      5  C   UNL     1      33.582 -16.374 -24.400  0.00  0.00    +0.088 A 
ATOM      6  C   UNL     1      32.846 -16.245 -25.572  0.00  0.00    +0.052 A 
ATOM      7  C   UNL     1      32.562 -17.573 -25.956  0.00  0.00    +0.082 A 
ATOM      8  C   UNL     1      34.064 -15.281 -23.689  0.00  0.00    +0.053 C 
ATOM      9  C   UNL     1      33.745 -14.056 -24.256  0.00  0.00    +0.130 C 
ATOM     10  C   UNL     1      32.578 -14.967 -26.060  0.00  0.00    +0.103 C 
ATOM     11  C   UNL     1      31.805 -18.027 -27.134  0.00  0.00    +0.054 C 
ATOM     12  H   UNL     1      34.730 -13.020 -22.744  0.00  0.00    +0.148 HD
ENDROOT
BRANCH   1  13
ATOM     13  C   UNL     1      34.333 -18.339 -23.114  0.00  0.00    +0.082 C 
ATOM     14  C   UNL     1      34.270 -19.754 -21.157  0.00  0.00    -0.020 C 
ATOM     15  C   UNL     1      33.615 -19.136 -22.223  0.00  0.00    +0.015 C 
ATOM     16  C   UNL     1      35.705 -18.160 -22.941  0.00  0.00    +0.019 C 
ATOM     17  C   UNL     1      35.642 -19.576 -20.984  0.00  0.00    -0.004 C 
ATOM     18  C   UNL     1      36.360 -18.779 -21.876  0.00  0.00    +0.001 C 
BRANCH  14  19
ATOM     19  C   UNL     1      33.502 -20.605 -20.203  0.00  0.00    +0.036 C 
BRANCH  19  20
ATOM     20  C   UNL     1      34.397 -21.620 -19.482  0.00  0.00    +0.089 C 
BRANCH  20  23
ATOM     21  O   UNL     1      34.180 -23.199 -17.653  0.00  0.00    -0.275 OA
ATOM     22  N   UNL     1      32.276 -22.274 -18.553  0.00  0.00    -0.329 N 
ATOM     23  C   UNL     1      33.640 -22.452 -18.463  0.00  0.00    +0.220 C 
ATOM     24  H   UNL     1      31.677 -22.762 -17.943  0.00  0.00    +0.145 HD
ATOM     25  H   UNL     1      31.903 -21.661 -19.226  0.00  0.00    +0.145 HD
ENDBRANCH  20  23
ENDBRANCH  19  20
ENDBRANCH  14  19
ENDBRANCH   1  13
BRANCH   2  26
ATOM     26  C   UNL     1      33.961 -11.579 -24.040  0.00  0.00    +0.093 C 
ATOM     27  C   UNL     1      33.757 -11.606 -25.554  0.00  0.00    +0.026 C 
BRANCH  26  28
ATOM     28  C   UNL     1      32.789 -10.976 -23.296  0.00  0.00    -0.005 C 
ATOM     29  C   UNL     1      32.417  -9.653 -23.535  0.00  0.00    -0.003 C 
ATOM     30  C   UNL     1      32.080 -11.743 -22.372  0.00  0.00    -0.003 C 
ATOM     31  C   UNL     1      31.337  -9.097 -22.850  0.00  0.00    -0.000 C 
ATOM     32  C   UNL     1      31.000 -11.187 -21.686  0.00  0.00    -0.000 C 
ATOM     33  C   UNL     1      30.628  -9.864 -21.925  0.00  0.00    -0.000 C 
ENDBRANCH  26  28
ENDBRANCH   2  26
TORSDOF 6
ENDMDL
MODEL 8
REMARK VINA RESULT:     -11.0      8.934     13.630
REMARK  Name = 24941249
REMARK  6 active torsions:
REMARK  status: ('A' for Active; 'I' for Inactive)
REMARK    1  A    between atoms: N_1  and  C_13
REMARK    2  A    between atoms: N_2  and  C_26
REMARK    3  A    between atoms: C_14  and  C_19
REMARK    4  A    between atoms: C_19  and  C_20
REMARK    5  A    between atoms: C_20  and  C_23
REMARK    6  A    between atoms: C_26  and  C_28
REMARK                            x       y       z     vdW  Elec       q    Type
REMARK                         _______ _______ _______ _____ _____    ______ ____
ROOT
ATOM      1  N   UNL     1      33.623 -14.443 -24.351  0.00  0.00    -0.230 N 
ATOM      2  N   UNL     1      33.332  -9.659 -23.398  0.00  0.00    -0.316 N 
ATOM      3  N   UNL     1      33.413 -15.182 -25.454  0.00  0.00    -0.169 NA
ATOM      4  N   UNL     1      32.871 -10.607 -25.532  0.00  0.00    -0.229 NA
ATOM      5  C   UNL     1      33.423 -13.102 -24.530  0.00  0.00    +0.088 A 
ATOM      6  C   UNL     1      33.052 -12.960 -25.861  0.00  0.00    +0.052 A 
ATOM      7  C   UNL     1      33.066 -14.275 -26.371  0.00  0.00    +0.082 A 
ATOM      8  C   UNL     1      33.531 -12.023 -23.660  0.00  0.00    +0.053 C 
ATOM      9  C   UNL     1      33.237 -10.799 -24.241  0.00  0.00    +0.130 C 
ATOM     10  C   UNL     1      32.776 -11.684 -26.351  0.00  0.00    +0.103 C 
ATOM     11  C   UNL     1      32.751 -14.713 -27.742  0.00  0.00    +0.054 C 
ATOM     12  H   UNL     1      33.595  -9.786 -22.459  0.00  0.00    +0.148 HD
ENDROOT
BRANCH   1  13
ATOM     13  C   UNL     1      34.011 -15.069 -23.167  0.00  0.00    +0.082 C 
ATOM     14  C   UNL     1      34.742 -17.048 -21.988  0.00  0.00    -0.020 C 
ATOM     15  C   UNL     1      34.354 -16.421 -23.173  0.00  0.00    +0.015 C 
ATOM     16  C   UNL     1      34.057 -14.343 -21.977  0.00  0.00    +0.019 C 
ATOM     17  C   UNL     1      34.788 -16.322 -20.798  0.00  0.00    -0.004 C 
ATOM     18  C   UNL     1      34.446 -14.969 -20.792  0.00  0.00    +0.001 C 
BRANCH  14  19
ATOM     19  C   UNL     1      35.108 -18.493 -21.994  0.00  0.00    +0.036 C 
BRANCH  19  20
ATOM     20  C   UNL     1      33.875 -19.404 -21.954  0.00  0.00    +0.089 C 
BRANCH  20  23
ATOM     21  O   UNL     1      34.699 -20.430 -19.916  0.00  0.00    -0.275 OA
ATOM     22  N   UNL     1      32.450 -20.544 -20.386  0.00  0.00    -0.329 N 
ATOM     23  C   UNL     1      33.751 -20.170 -20.651  0.00  0.00    +0.220 C 
ATOM     24  H   UNL     1      32.242 -21.049 -19.567  0.00  0.00    +0.145 HD
ATOM     25  H   UNL     1      31.733 -20.307 -21.016  0.00  0.00    +0.145 HD
ENDBRANCH  20  23
ENDBRANCH  19  20
ENDBRANCH  14  19
ENDBRANCH   1  13
BRANCH   2  26
ATOM     26  C   UNL     1      33.060  -8.339 -23.860  0.00  0.00    +0.093 C 
ATOM     27  C   UNL     1      31.920  -8.382 -24.877  0.00  0.00    +0.026 C 
BRANCH  26  28
ATOM     28  C   UNL     1      32.773  -7.424 -22.690  0.00  0.00    -0.005 C 
ATOM     29  C   UNL     1      32.353  -6.113 -22.915  0.00  0.00    -0.003 C 
ATOM     30  C   UNL     1      32.928  -7.891 -21.385  0.00  0.00    -0.003 C 
ATOM     31  C   UNL     1      32.089  -5.269 -21.836  0.00  0.00    -0.000 C 
ATOM     32  C   UNL     1      32.664  -7.048 -20.306  0.00  0.00    -0.000 C 
ATOM     33  C   UNL     1      32.244  -5.737 -20.531  0.00  0.00    -0.000 C 
ENDBRANCH  26  28
ENDBRANCH   2  26
TORSDOF 6
ENDMDL
MODEL 9
REMARK VINA RESULT:     -11.0      1.995      2.752
REMARK  Name = 24941249
REMARK  6 active torsions:
REMARK  status: ('A' for Active; 'I' for Inactive)
REMARK    1  A    between atoms: N_1  and  C_13
REMARK    2  A    between atoms: N_2  and  C_26
REMARK    3  A    between atoms: C_14  and  C_19
REMARK    4  A    between atoms: C_19  and  C_20
REMARK    5  A    between atoms: C_20  and  C_23
REMARK    6  A    between atoms: C_26  and  C_28
REMARK                            x       y       z     vdW  Elec       q    Type
REMARK                         _______ _______ _______ _____ _____    ______ ____
ROOT
ATOM      1  N   UNL     1      33.780 -24.505 -15.056  0.00  0.00    -0.230 N 
ATOM      2  N   UNL     1      34.130 -22.032 -19.257  0.00  0.00    -0.316 N 
ATOM      3  N   UNL     1      32.760 -24.781 -14.226  0.00  0.00    -0.169 NA
ATOM      4  N   UNL     1      32.094 -22.307 -18.056  0.00  0.00    -0.229 NA
ATOM      5  C   UNL     1      33.428 -23.762 -16.150  0.00  0.00    +0.088 A 
ATOM      6  C   UNL     1      32.063 -23.539 -16.016  0.00  0.00    +0.052 A 
ATOM      7  C   UNL     1      31.716 -24.191 -14.814  0.00  0.00    +0.082 A 
ATOM      8  C   UNL     1      34.169 -23.277 -17.221  0.00  0.00    +0.053 C 
ATOM      9  C   UNL     1      33.424 -22.553 -18.140  0.00  0.00    +0.130 C 
ATOM     10  C   UNL     1      31.404 -22.797 -16.996  0.00  0.00    +0.103 C 
ATOM     11  C   UNL     1      30.386 -24.275 -14.187  0.00  0.00    +0.054 C 
ATOM     12  H   UNL     1      35.097 -22.204 -19.327  0.00  0.00    +0.148 HD
ENDROOT
BRANCH   1  13
ATOM     13  C   UNL     1      35.059 -24.974 -14.755  0.00  0.00    +0.082 C 
ATOM     14  C   UNL     1      37.088 -24.830 -13.450  0.00  0.00    -0.020 C 
ATOM     15  C   UNL     1      35.809 -24.360 -13.752  0.00  0.00    +0.015 C 
ATOM     16  C   UNL     1      35.587 -26.059 -15.455  0.00  0.00    +0.019 C 
ATOM     17  C   UNL     1      37.615 -25.914 -14.151  0.00  0.00    -0.004 C 
ATOM     18  C   UNL     1      36.865 -26.529 -15.153  0.00  0.00    +0.001 C 
BRANCH  14  19
ATOM     19  C   UNL     1      37.891 -24.172 -12.380  0.00  0.00    +0.036 C 
BRANCH  19  20
ATOM     20  C   UNL     1      37.105 -23.072 -11.658  0.00  0.00    +0.089 C 
BRANCH  20  23
ATOM     21  O   UNL     1      36.097 -24.176  -9.747  0.00  0.00    -0.275 OA
ATOM     22  N   UNL     1      34.733 -23.410 -11.433  0.00  0.00    -0.329 N 
ATOM     23  C   UNL     1      35.956 -23.616 -10.830  0.00  0.00    +0.220 C 
ATOM     24  H   UNL     1      33.910 -23.719 -10.992  0.00  0.00    +0.145 HD
ATOM     25  H   UNL     1      34.685 -22.954 -12.304  0.00  0.00    +0.145 HD
ENDBRANCH  20  23
ENDBRANCH  19  20
ENDBRANCH  14  19
ENDBRANCH   1  13
BRANCH   2  26
ATOM     26  C   UNL     1      33.493 -21.272 -20.280  0.00  0.00    +0.093 C 
ATOM     27  C   UNL     1      32.254 -20.587 -19.706  0.00  0.00    +0.026 C 
BRANCH  26  28
ATOM     28  C   UNL     1      34.475 -20.298 -20.895  0.00  0.00    -0.005 C 
ATOM     29  C   UNL     1      35.775 -20.210 -20.397  0.00  0.00    -0.003 C 
ATOM     30  C   UNL     1      34.080 -19.489 -21.960  0.00  0.00    -0.003 C 
ATOM     31  C   UNL     1      36.680 -19.313 -20.964  0.00  0.00    -0.000 C 
ATOM     32  C   UNL     1      34.985 -18.591 -22.527  0.00  0.00    -0.000 C 
ATOM     33  C   UNL     1      36.285 -18.503 -22.029  0.00  0.00    -0.000 C 
ENDBRANCH  26  28
ENDBRANCH   2  26
TORSDOF 6
ENDMDL
