MODEL 1
REMARK VINA RESULT:     -12.4      0.000      0.000
REMARK  Name = 66555680
REMARK  4 active torsions:
REMARK  status: ('A' for Active; 'I' for Inactive)
REMARK    1  A    between atoms: N_1  and  C_8
REMARK    2  A    between atoms: C_3  and  C_22
REMARK    3  A    between atoms: C_4  and  N_18
REMARK    4  A    between atoms: C_22  and  C_24
REMARK                            x       y       z     vdW  Elec       q    Type
REMARK                         _______ _______ _______ _____ _____    ______ ____
ROOT
ATOM      1  N   UNL     1      34.779 -19.803 -20.632  0.00  0.00    -0.177 N 
ATOM      2  N   UNL     1      35.973 -20.122 -20.105  0.00  0.00    -0.171 NA
ATOM      3  C   UNL     1      34.404 -21.718 -19.652  0.00  0.00    +0.090 C 
ATOM      4  C   UNL     1      33.804 -20.726 -20.389  0.00  0.00    +0.122 C 
ATOM      5  C   UNL     1      35.738 -21.293 -19.507  0.00  0.00    +0.124 C 
ENDROOT
BRANCH   1   8
ATOM      6  N   UNL     1      33.715 -17.119 -24.624  0.00  0.00    -0.318 N 
ATOM      7  N   UNL     1      34.174 -15.181 -23.637  0.00  0.00    -0.318 N 
ATOM      8  C   UNL     1      34.641 -18.612 -21.349  0.00  0.00    +0.077 C 
ATOM      9  C   UNL     1      34.096 -17.440 -23.346  0.00  0.00    +0.060 C 
ATOM     10  C   UNL     1      34.215 -18.660 -22.680  0.00  0.00    +0.032 C 
ATOM     11  C   UNL     1      34.377 -16.214 -22.751  0.00  0.00    +0.059 C 
ATOM     12  C   UNL     1      34.931 -17.397 -20.725  0.00  0.00    +0.018 C 
ATOM     13  C   UNL     1      34.805 -16.184 -21.413  0.00  0.00    +0.017 C 
ATOM     14  C   UNL     1      33.778 -15.759 -24.749  0.00  0.00    +0.144 C 
ATOM     15  C   UNL     1      33.426 -15.090 -26.015  0.00  0.00    +0.044 C 
ATOM     16  H   UNL     1      33.443 -17.755 -25.325  0.00  0.00    +0.148 HD
ATOM     17  H   UNL     1      34.299 -14.218 -23.475  0.00  0.00    +0.148 HD
ENDBRANCH   1   8
BRANCH   4  18
ATOM     18  N   UNL     1      32.541 -20.573 -20.843  0.00  0.00    -0.344 N 
ATOM     19  H   UNL     1      31.779 -20.749 -20.246  0.00  0.00    +0.144 HD
ATOM     20  H   UNL     1      32.383 -20.286 -21.771  0.00  0.00    +0.144 HD
ENDBRANCH   4  18
BRANCH   3  22
ATOM     21  O   UNL     1      33.829 -23.974 -19.877  0.00  0.00    -0.285 OA
ATOM     22  C   UNL     1      33.744 -22.970 -19.131  0.00  0.00    +0.213 C 
BRANCH  22  24
ATOM     23  N   UNL     1      31.716 -22.819 -17.734  0.00  0.00    -0.310 N 
ATOM     24  C   UNL     1      33.061 -23.033 -17.878  0.00  0.00    +0.088 C 
ATOM     25  C   UNL     1      31.354 -22.946 -16.411  0.00  0.00    +0.048 C 
ATOM     26  C   UNL     1      32.514 -23.252 -15.695  0.00  0.00    +0.015 C 
ATOM     27  C   UNL     1      33.583 -23.303 -16.634  0.00  0.00    +0.019 C 
ATOM     28  C   UNL     1      30.103 -22.816 -15.800  0.00  0.00    +0.015 C 
ATOM     29  C   UNL     1      32.422 -23.437 -14.302  0.00  0.00    +0.001 C 
ATOM     30  C   UNL     1      30.036 -23.004 -14.417  0.00  0.00    +0.001 C 
ATOM     31  C   UNL     1      31.177 -23.310 -13.677  0.00  0.00    +0.000 C 
ATOM     32  H   UNL     1      31.097 -22.605 -18.469  0.00  0.00    +0.152 HD
ENDBRANCH  22  24
ENDBRANCH   3  22
TORSDOF 4
ENDMDL
MODEL 2
REMARK VINA RESULT:     -12.0      1.611      2.285
REMARK  Name = 66555680
REMARK  4 active torsions:
REMARK  status: ('A' for Active; 'I' for Inactive)
REMARK    1  A    between atoms: N_1  and  C_8
REMARK    2  A    between atoms: C_3  and  C_22
REMARK    3  A    between atoms: C_4  and  N_18
REMARK    4  A    between atoms: C_22  and  C_24
REMARK                            x       y       z     vdW  Elec       q    Type
REMARK                         _______ _______ _______ _____ _____    ______ ____
ROOT
ATOM      1  N   UNL     1      34.903 -19.918 -20.571  0.00  0.00    -0.177 N 
ATOM      2  N   UNL     1      36.143 -20.231 -20.156  0.00  0.00    -0.171 NA
ATOM      3  C   UNL     1      34.584 -21.657 -19.287  0.00  0.00    +0.090 C 
ATOM      4  C   UNL     1      33.933 -20.742 -20.079  0.00  0.00    +0.122 C 
ATOM      5  C   UNL     1      35.941 -21.294 -19.372  0.00  0.00    +0.124 C 
ENDROOT
BRANCH   1   8
ATOM      6  N   UNL     1      33.697 -17.785 -24.843  0.00  0.00    -0.318 N 
ATOM      7  N   UNL     1      34.119 -15.727 -24.116  0.00  0.00    -0.318 N 
ATOM      8  C   UNL     1      34.720 -18.831 -21.427  0.00  0.00    +0.077 C 
ATOM      9  C   UNL     1      34.109 -17.933 -23.544  0.00  0.00    +0.060 C 
ATOM     10  C   UNL     1      34.272 -19.056 -22.733  0.00  0.00    +0.032 C 
ATOM     11  C   UNL     1      34.366 -16.635 -23.112  0.00  0.00    +0.059 C 
ATOM     12  C   UNL     1      34.987 -17.540 -20.966  0.00  0.00    +0.018 C 
ATOM     13  C   UNL     1      34.815 -16.427 -21.797  0.00  0.00    +0.017 C 
ATOM     14  C   UNL     1      33.720 -16.450 -25.139  0.00  0.00    +0.144 C 
ATOM     15  C   UNL     1      33.328 -15.954 -26.471  0.00  0.00    +0.044 C 
ATOM     16  H   UNL     1      33.431 -18.510 -25.454  0.00  0.00    +0.148 HD
ATOM     17  H   UNL     1      34.220 -14.748 -24.078  0.00  0.00    +0.148 HD
ENDBRANCH   1   8
BRANCH   4  18
ATOM     18  N   UNL     1      32.628 -20.579 -20.389  0.00  0.00    -0.344 N 
ATOM     19  H   UNL     1      32.334 -19.778 -20.880  0.00  0.00    +0.144 HD
ATOM     20  H   UNL     1      31.971 -21.262 -20.123  0.00  0.00    +0.144 HD
ENDBRANCH   4  18
BRANCH   3  22
ATOM     21  O   UNL     1      33.154 -23.504 -19.166  0.00  0.00    -0.285 OA
ATOM     22  C   UNL     1      33.949 -22.786 -18.515  0.00  0.00    +0.213 C 
BRANCH  22  24
ATOM     23  N   UNL     1      35.424 -22.792 -16.537  0.00  0.00    -0.310 N 
ATOM     24  C   UNL     1      34.217 -23.039 -17.135  0.00  0.00    +0.088 C 
ATOM     25  C   UNL     1      35.374 -23.139 -15.205  0.00  0.00    +0.048 C 
ATOM     26  C   UNL     1      34.088 -23.621 -14.954  0.00  0.00    +0.015 C 
ATOM     27  C   UNL     1      33.369 -23.553 -16.181  0.00  0.00    +0.019 C 
ATOM     28  C   UNL     1      36.358 -23.062 -14.214  0.00  0.00    +0.015 C 
ATOM     29  C   UNL     1      33.767 -24.049 -13.651  0.00  0.00    +0.001 C 
ATOM     30  C   UNL     1      36.017 -23.491 -12.929  0.00  0.00    +0.001 C 
ATOM     31  C   UNL     1      34.741 -23.978 -12.650  0.00  0.00    +0.000 C 
ATOM     32  H   UNL     1      36.213 -22.421 -16.993  0.00  0.00    +0.152 HD
ENDBRANCH  22  24
ENDBRANCH   3  22
TORSDOF 4
ENDMDL
MODEL 3
REMARK VINA RESULT:     -11.7      1.865      2.585
REMARK  Name = 66555680
REMARK  4 active torsions:
REMARK  status: ('A' for Active; 'I' for Inactive)
REMARK    1  A    between atoms: N_1  and  C_8
REMARK    2  A    between atoms: C_3  and  C_22
REMARK    3  A    between atoms: C_4  and  N_18
REMARK    4  A    between atoms: C_22  and  C_24
REMARK                            x       y       z     vdW  Elec       q    Type
REMARK                         _______ _______ _______ _____ _____    ______ ____
ROOT
ATOM      1  N   UNL     1      35.139 -19.462 -20.876  0.00  0.00    -0.177 N 
ATOM      2  N   UNL     1      36.373 -19.685 -20.390  0.00  0.00    -0.171 NA
ATOM      3  C   UNL     1      34.867 -21.199 -19.580  0.00  0.00    +0.090 C 
ATOM      4  C   UNL     1      34.201 -20.342 -20.422  0.00  0.00    +0.122 C 
ATOM      5  C   UNL     1      36.200 -20.747 -19.599  0.00  0.00    +0.124 C 
ENDROOT
BRANCH   1   8
ATOM      6  N   UNL     1      34.309 -14.750 -22.045  0.00  0.00    -0.318 N 
ATOM      7  N   UNL     1      34.295 -15.131 -24.235  0.00  0.00    -0.318 N 
ATOM      8  C   UNL     1      34.931 -18.403 -21.762  0.00  0.00    +0.077 C 
ATOM      9  C   UNL     1      34.529 -16.096 -22.184  0.00  0.00    +0.060 C 
ATOM     10  C   UNL     1      34.734 -17.115 -21.253  0.00  0.00    +0.032 C 
ATOM     11  C   UNL     1      34.516 -16.309 -23.559  0.00  0.00    +0.059 C 
ATOM     12  C   UNL     1      34.923 -18.647 -23.137  0.00  0.00    +0.018 C 
ATOM     13  C   UNL     1      34.716 -17.609 -24.053  0.00  0.00    +0.017 C 
ATOM     14  C   UNL     1      34.175 -14.218 -23.298  0.00  0.00    +0.144 C 
ATOM     15  C   UNL     1      33.928 -12.778 -23.495  0.00  0.00    +0.044 C 
ATOM     16  H   UNL     1      34.257 -14.255 -21.195  0.00  0.00    +0.148 HD
ATOM     17  H   UNL     1      34.238 -15.000 -25.209  0.00  0.00    +0.148 HD
ENDBRANCH   1   8
BRANCH   4  18
ATOM     18  N   UNL     1      32.907 -20.272 -20.804  0.00  0.00    -0.344 N 
ATOM     19  H   UNL     1      32.337 -19.536 -20.483  0.00  0.00    +0.144 HD
ATOM     20  H   UNL     1      32.533 -20.959 -21.403  0.00  0.00    +0.144 HD
ENDBRANCH   4  18
BRANCH   3  22
ATOM     21  O   UNL     1      33.420 -23.033 -19.452  0.00  0.00    -0.285 OA
ATOM     22  C   UNL     1      34.267 -22.357 -18.822  0.00  0.00    +0.213 C 
BRANCH  22  24
ATOM     23  N   UNL     1      33.767 -23.269 -16.584  0.00  0.00    -0.310 N 
ATOM     24  C   UNL     1      34.623 -22.680 -17.476  0.00  0.00    +0.088 C 
ATOM     25  C   UNL     1      34.397 -23.453 -15.373  0.00  0.00    +0.048 C 
ATOM     26  C   UNL     1      35.698 -22.962 -15.507  0.00  0.00    +0.015 C 
ATOM     27  C   UNL     1      35.826 -22.477 -16.840  0.00  0.00    +0.019 C 
ATOM     28  C   UNL     1      33.920 -24.010 -14.182  0.00  0.00    +0.015 C 
ATOM     29  C   UNL     1      36.565 -23.030 -14.400  0.00  0.00    +0.001 C 
ATOM     30  C   UNL     1      34.798 -24.068 -13.098  0.00  0.00    +0.001 C 
ATOM     31  C   UNL     1      36.102 -23.585 -13.203  0.00  0.00    +0.000 C 
ATOM     32  H   UNL     1      32.837 -23.524 -16.780  0.00  0.00    +0.152 HD
ENDBRANCH  22  24
ENDBRANCH   3  22
TORSDOF 4
ENDMDL
MODEL 4
REMARK VINA RESULT:     -11.6      3.950      6.897
REMARK  Name = 66555680
REMARK  4 active torsions:
REMARK  status: ('A' for Active; 'I' for Inactive)
REMARK    1  A    between atoms: N_1  and  C_8
REMARK    2  A    between atoms: C_3  and  C_22
REMARK    3  A    between atoms: C_4  and  N_18
REMARK    4  A    between atoms: C_22  and  C_24
REMARK                            x       y       z     vdW  Elec       q    Type
REMARK                         _______ _______ _______ _____ _____    ______ ____
ROOT
ATOM      1  N   UNL     1      33.873 -13.823 -23.240  0.00  0.00    -0.177 N 
ATOM      2  N   UNL     1      34.454 -13.991 -22.040  0.00  0.00    -0.171 NA
ATOM      3  C   UNL     1      34.224 -15.977 -23.145  0.00  0.00    +0.090 C 
ATOM      4  C   UNL     1      33.713 -14.982 -23.942  0.00  0.00    +0.122 C 
ATOM      5  C   UNL     1      34.667 -15.309 -21.988  0.00  0.00    +0.124 C 
ENDROOT
BRANCH   1   8
ATOM      6  N   UNL     1      31.446  -9.558 -22.816  0.00  0.00    -0.318 N 
ATOM      7  N   UNL     1      32.276  -8.717 -24.700  0.00  0.00    -0.318 N 
ATOM      8  C   UNL     1      33.501 -12.541 -23.648  0.00  0.00    +0.077 C 
ATOM      9  C   UNL     1      32.271 -10.531 -23.320  0.00  0.00    +0.060 C 
ATOM     10  C   UNL     1      32.608 -11.805 -22.862  0.00  0.00    +0.032 C 
ATOM     11  C   UNL     1      32.776  -9.982 -24.495  0.00  0.00    +0.059 C 
ATOM     12  C   UNL     1      34.024 -12.017 -24.832  0.00  0.00    +0.018 C 
ATOM     13  C   UNL     1      33.672 -10.736 -25.272  0.00  0.00    +0.017 C 
ATOM     14  C   UNL     1      31.483  -8.494 -23.676  0.00  0.00    +0.144 C 
ATOM     15  C   UNL     1      30.697  -7.274 -23.417  0.00  0.00    +0.044 C 
ATOM     16  H   UNL     1      30.922  -9.614 -21.985  0.00  0.00    +0.148 HD
ATOM     17  H   UNL     1      32.470  -8.110 -25.450  0.00  0.00    +0.148 HD
ENDBRANCH   1   8
BRANCH   4  18
ATOM     18  N   UNL     1      33.147 -15.005 -25.169  0.00  0.00    -0.344 N 
ATOM     19  H   UNL     1      32.186 -14.821 -25.272  0.00  0.00    +0.144 HD
ATOM     20  H   UNL     1      33.697 -15.207 -25.960  0.00  0.00    +0.144 HD
ENDBRANCH   4  18
BRANCH   3  22
ATOM     21  O   UNL     1      34.272 -17.727 -24.696  0.00  0.00    -0.285 OA
ATOM     22  C   UNL     1      34.282 -17.448 -23.475  0.00  0.00    +0.213 C 
BRANCH  22  24
ATOM     23  N   UNL     1      33.238 -19.084 -21.952  0.00  0.00    -0.310 N 
ATOM     24  C   UNL     1      34.342 -18.471 -22.480  0.00  0.00    +0.088 C 
ATOM     25  C   UNL     1      33.616 -20.023 -21.018  0.00  0.00    +0.048 C 
ATOM     26  C   UNL     1      35.011 -20.001 -20.955  0.00  0.00    +0.015 C 
ATOM     27  C   UNL     1      35.456 -19.017 -21.883  0.00  0.00    +0.019 C 
ATOM     28  C   UNL     1      32.839 -20.881 -20.232  0.00  0.00    +0.015 C 
ATOM     29  C   UNL     1      35.664 -20.877 -20.067  0.00  0.00    +0.001 C 
ATOM     30  C   UNL     1      33.508 -21.741 -19.359  0.00  0.00    +0.001 C 
ATOM     31  C   UNL     1      34.900 -21.741 -19.275  0.00  0.00    +0.000 C 
ATOM     32  H   UNL     1      32.307 -18.882 -22.203  0.00  0.00    +0.152 HD
ENDBRANCH  22  24
ENDBRANCH   3  22
TORSDOF 4
ENDMDL
MODEL 5
REMARK VINA RESULT:     -11.4      2.446      9.322
REMARK  Name = 66555680
REMARK  4 active torsions:
REMARK  status: ('A' for Active; 'I' for Inactive)
REMARK    1  A    between atoms: N_1  and  C_8
REMARK    2  A    between atoms: C_3  and  C_22
REMARK    3  A    between atoms: C_4  and  N_18
REMARK    4  A    between atoms: C_22  and  C_24
REMARK                            x       y       z     vdW  Elec       q    Type
REMARK                         _______ _______ _______ _____ _____    ______ ____
ROOT
ATOM      1  N   UNL     1      33.888 -20.923 -19.850  0.00  0.00    -0.177 N 
ATOM      2  N   UNL     1      32.669 -20.739 -20.386  0.00  0.00    -0.171 NA
ATOM      3  C   UNL     1      34.269 -19.563 -21.516  0.00  0.00    +0.090 C 
ATOM      4  C   UNL     1      34.881 -20.240 -20.490  0.00  0.00    +0.122 C 
ATOM      5  C   UNL     1      32.909 -19.907 -21.404  0.00  0.00    +0.124 C 
ENDROOT
BRANCH   1   8
ATOM      6  N   UNL     1      36.373 -22.963 -16.118  0.00  0.00    -0.318 N 
ATOM      7  N   UNL     1      34.643 -24.171 -15.419  0.00  0.00    -0.318 N 
ATOM      8  C   UNL     1      34.030 -21.755 -18.738  0.00  0.00    +0.077 C 
ATOM      9  C   UNL     1      35.347 -22.664 -16.977  0.00  0.00    +0.060 C 
ATOM     10  C   UNL     1      35.263 -21.815 -18.080  0.00  0.00    +0.032 C 
ATOM     11  C   UNL     1      34.279 -23.431 -16.520  0.00  0.00    +0.059 C 
ATOM     12  C   UNL     1      32.940 -22.513 -18.303  0.00  0.00    +0.018 C 
ATOM     13  C   UNL     1      33.047 -23.358 -17.192  0.00  0.00    +0.017 C 
ATOM     14  C   UNL     1      35.903 -23.867 -15.205  0.00  0.00    +0.144 C 
ATOM     15  C   UNL     1      36.769 -24.394 -14.135  0.00  0.00    +0.044 C 
ATOM     16  H   UNL     1      37.284 -22.592 -16.151  0.00  0.00    +0.148 HD
ATOM     17  H   UNL     1      34.081 -24.794 -14.903  0.00  0.00    +0.148 HD
ENDBRANCH   1   8
BRANCH   4  18
ATOM     18  N   UNL     1      36.170 -20.305 -20.090  0.00  0.00    -0.344 N 
ATOM     19  H   UNL     1      36.622 -19.500 -19.752  0.00  0.00    +0.144 HD
ATOM     20  H   UNL     1      36.657 -21.160 -20.138  0.00  0.00    +0.144 HD
ENDBRANCH   4  18
BRANCH   3  22
ATOM     21  O   UNL     1      36.155 -18.432 -22.313  0.00  0.00    -0.285 OA
ATOM     22  C   UNL     1      34.940 -18.660 -22.520  0.00  0.00    +0.213 C 
BRANCH  22  24
ATOM     23  N   UNL     1      33.249 -18.718 -24.316  0.00  0.00    -0.310 N 
ATOM     24  C   UNL     1      34.259 -18.089 -23.639  0.00  0.00    +0.088 C 
ATOM     25  C   UNL     1      32.795 -17.919 -25.341  0.00  0.00    +0.048 C 
ATOM     26  C   UNL     1      33.547 -16.742 -25.309  0.00  0.00    +0.015 C 
ATOM     27  C   UNL     1      34.467 -16.864 -24.229  0.00  0.00    +0.019 C 
ATOM     28  C   UNL     1      31.787 -18.144 -26.285  0.00  0.00    +0.015 C 
ATOM     29  C   UNL     1      33.281 -15.741 -26.263  0.00  0.00    +0.001 C 
ATOM     30  C   UNL     1      31.541 -17.138 -27.221  0.00  0.00    +0.001 C 
ATOM     31  C   UNL     1      32.276 -15.953 -27.213  0.00  0.00    +0.000 C 
ATOM     32  H   UNL     1      32.898 -19.612 -24.101  0.00  0.00    +0.152 HD
ENDBRANCH  22  24
ENDBRANCH   3  22
TORSDOF 4
ENDMDL
MODEL 6
REMARK VINA RESULT:     -11.4      2.679     10.040
REMARK  Name = 66555680
REMARK  4 active torsions:
REMARK  status: ('A' for Active; 'I' for Inactive)
REMARK    1  A    between atoms: N_1  and  C_8
REMARK    2  A    between atoms: C_3  and  C_22
REMARK    3  A    between atoms: C_4  and  N_18
REMARK    4  A    between atoms: C_22  and  C_24
REMARK                            x       y       z     vdW  Elec       q    Type
REMARK                         _______ _______ _______ _____ _____    ______ ____
ROOT
ATOM      1  N   UNL     1      34.587 -18.263 -22.218  0.00  0.00    -0.177 N 
ATOM      2  N   UNL     1      34.835 -17.001 -21.827  0.00  0.00    -0.171 NA
ATOM      3  C   UNL     1      34.320 -17.103 -24.050  0.00  0.00    +0.090 C 
ATOM      4  C   UNL     1      34.273 -18.378 -23.541  0.00  0.00    +0.122 C 
ATOM      5  C   UNL     1      34.670 -16.297 -22.951  0.00  0.00    +0.124 C 
ENDROOT
BRANCH   1   8
ATOM      6  N   UNL     1      32.713 -21.670 -19.194  0.00  0.00    -0.318 N 
ATOM      7  N   UNL     1      34.704 -22.384 -18.509  0.00  0.00    -0.318 N 
ATOM      8  C   UNL     1      34.667 -19.299 -21.285  0.00  0.00    +0.077 C 
ATOM      9  C   UNL     1      33.629 -20.901 -19.866  0.00  0.00    +0.060 C 
ATOM     10  C   UNL     1      33.488 -19.871 -20.796  0.00  0.00    +0.032 C 
ATOM     11  C   UNL     1      34.863 -21.366 -19.421  0.00  0.00    +0.059 C 
ATOM     12  C   UNL     1      35.920 -19.744 -20.858  0.00  0.00    +0.018 C 
ATOM     13  C   UNL     1      36.037 -20.779 -19.923  0.00  0.00    +0.017 C 
ATOM     14  C   UNL     1      33.404 -22.540 -18.396  0.00  0.00    +0.144 C 
ATOM     15  C   UNL     1      32.703 -23.512 -17.538  0.00  0.00    +0.044 C 
ATOM     16  H   UNL     1      31.734 -21.607 -19.273  0.00  0.00    +0.148 HD
ATOM     17  H   UNL     1      35.410 -22.886 -18.041  0.00  0.00    +0.148 HD
ENDBRANCH   1   8
BRANCH   4  18
ATOM     18  N   UNL     1      33.993 -19.571 -24.110  0.00  0.00    -0.344 N 
ATOM     19  H   UNL     1      33.142 -20.024 -23.911  0.00  0.00    +0.144 HD
ATOM     20  H   UNL     1      34.639 -19.986 -24.725  0.00  0.00    +0.144 HD
ENDBRANCH   4  18
BRANCH   3  22
ATOM     21  O   UNL     1      34.227 -17.594 -26.335  0.00  0.00    -0.285 OA
ATOM     22  C   UNL     1      34.048 -16.698 -25.477  0.00  0.00    +0.213 C 
BRANCH  22  24
ATOM     23  N   UNL     1      33.717 -14.293 -25.034  0.00  0.00    -0.310 N 
ATOM     24  C   UNL     1      33.617 -15.388 -25.850  0.00  0.00    +0.088 C 
ATOM     25  C   UNL     1      33.219 -13.179 -25.671  0.00  0.00    +0.048 C 
ATOM     26  C   UNL     1      32.790 -13.586 -26.936  0.00  0.00    +0.015 C 
ATOM     27  C   UNL     1      33.048 -14.982 -27.035  0.00  0.00    +0.019 C 
ATOM     28  C   UNL     1      33.117 -11.855 -25.229  0.00  0.00    +0.015 C 
ATOM     29  C   UNL     1      32.233 -12.627 -27.804  0.00  0.00    +0.001 C 
ATOM     30  C   UNL     1      32.560 -10.922 -26.107  0.00  0.00    +0.001 C 
ATOM     31  C   UNL     1      32.124 -11.299 -27.376  0.00  0.00    +0.000 C 
ATOM     32  H   UNL     1      34.090 -14.302 -24.123  0.00  0.00    +0.152 HD
ENDBRANCH  22  24
ENDBRANCH   3  22
TORSDOF 4
ENDMDL
MODEL 7
REMARK VINA RESULT:     -11.3      2.651      5.428
REMARK  Name = 66555680
REMARK  4 active torsions:
REMARK  status: ('A' for Active; 'I' for Inactive)
REMARK    1  A    between atoms: N_1  and  C_8
REMARK    2  A    between atoms: C_3  and  C_22
REMARK    3  A    between atoms: C_4  and  N_18
REMARK    4  A    between atoms: C_22  and  C_24
REMARK                            x       y       z     vdW  Elec       q    Type
REMARK                         _______ _______ _______ _____ _____    ______ ____
ROOT
ATOM      1  N   UNL     1      33.654 -16.777 -24.696  0.00  0.00    -0.177 N 
ATOM      2  N   UNL     1      33.027 -17.929 -24.991  0.00  0.00    -0.171 NA
ATOM      3  C   UNL     1      34.533 -18.204 -23.295  0.00  0.00    +0.090 C 
ATOM      4  C   UNL     1      34.566 -16.888 -23.687  0.00  0.00    +0.122 C 
ATOM      5  C   UNL     1      33.568 -18.797 -24.131  0.00  0.00    +0.124 C 
ENDROOT
BRANCH   1   8
ATOM      6  N   UNL     1      33.025 -11.921 -25.234  0.00  0.00    -0.318 N 
ATOM      7  N   UNL     1      32.427 -12.076 -27.370  0.00  0.00    -0.318 N 
ATOM      8  C   UNL     1      33.336 -15.620 -25.411  0.00  0.00    +0.077 C 
ATOM      9  C   UNL     1      33.070 -13.259 -25.531  0.00  0.00    +0.060 C 
ATOM     10  C   UNL     1      33.399 -14.379 -24.768  0.00  0.00    +0.032 C 
ATOM     11  C   UNL     1      32.693 -13.329 -26.869  0.00  0.00    +0.059 C 
ATOM     12  C   UNL     1      32.961 -15.722 -26.752  0.00  0.00    +0.018 C 
ATOM     13  C   UNL     1      32.635 -14.584 -27.499  0.00  0.00    +0.017 C 
ATOM     14  C   UNL     1      32.635 -11.256 -26.364  0.00  0.00    +0.144 C 
ATOM     15  C   UNL     1      32.489  -9.789 -26.376  0.00  0.00    +0.044 C 
ATOM     16  H   UNL     1      33.235 -11.512 -24.363  0.00  0.00    +0.148 HD
ATOM     17  H   UNL     1      32.141 -11.843 -28.283  0.00  0.00    +0.148 HD
ENDBRANCH   1   8
BRANCH   4  18
ATOM     18  N   UNL     1      35.291 -15.833 -23.256  0.00  0.00    -0.344 N 
ATOM     19  H   UNL     1      34.882 -14.938 -23.213  0.00  0.00    +0.144 HD
ATOM     20  H   UNL     1      36.229 -15.959 -22.984  0.00  0.00    +0.144 HD
ENDBRANCH   4  18
BRANCH   3  22
ATOM     21  O   UNL     1      36.580 -18.536 -22.212  0.00  0.00    -0.285 OA
ATOM     22  C   UNL     1      35.362 -18.835 -22.205  0.00  0.00    +0.213 C 
BRANCH  22  24
ATOM     23  N   UNL     1      35.586 -20.456 -20.359  0.00  0.00    -0.310 N 
ATOM     24  C   UNL     1      34.821 -19.718 -21.221  0.00  0.00    +0.088 C 
ATOM     25  C   UNL     1      34.780 -21.209 -19.534  0.00  0.00    +0.048 C 
ATOM     26  C   UNL     1      33.457 -20.934 -19.889  0.00  0.00    +0.015 C 
ATOM     27  C   UNL     1      33.499 -19.992 -20.956  0.00  0.00    +0.019 C 
ATOM     28  C   UNL     1      35.116 -22.101 -18.511  0.00  0.00    +0.015 C 
ATOM     29  C   UNL     1      32.419 -21.580 -19.191  0.00  0.00    +0.001 C 
ATOM     30  C   UNL     1      34.070 -22.731 -17.831  0.00  0.00    +0.001 C 
ATOM     31  C   UNL     1      32.741 -22.476 -18.165  0.00  0.00    +0.000 C 
ATOM     32  H   UNL     1      36.570 -20.451 -20.332  0.00  0.00    +0.152 HD
ENDBRANCH  22  24
ENDBRANCH   3  22
TORSDOF 4
ENDMDL
MODEL 8
REMARK VINA RESULT:     -11.2      3.188      4.845
REMARK  Name = 66555680
REMARK  4 active torsions:
REMARK  status: ('A' for Active; 'I' for Inactive)
REMARK    1  A    between atoms: N_1  and  C_8
REMARK    2  A    between atoms: C_3  and  C_22
REMARK    3  A    between atoms: C_4  and  N_18
REMARK    4  A    between atoms: C_22  and  C_24
REMARK                            x       y       z     vdW  Elec       q    Type
REMARK                         _______ _______ _______ _____ _____    ______ ____
ROOT
ATOM      1  N   UNL     1      33.234 -22.104 -18.317  0.00  0.00    -0.177 N 
ATOM      2  N   UNL     1      31.907 -22.313 -18.347  0.00  0.00    -0.171 NA
ATOM      3  C   UNL     1      32.868 -23.284 -16.516  0.00  0.00    +0.090 C 
ATOM      4  C   UNL     1      33.857 -22.665 -17.240  0.00  0.00    +0.122 C 
ATOM      5  C   UNL     1      31.689 -23.034 -17.243  0.00  0.00    +0.124 C 
ENDROOT
BRANCH   1   8
ATOM      6  N   UNL     1      33.228 -19.144 -22.254  0.00  0.00    -0.318 N 
ATOM      7  N   UNL     1      35.443 -19.123 -22.439  0.00  0.00    -0.318 N 
ATOM      8  C   UNL     1      33.836 -21.367 -19.339  0.00  0.00    +0.077 C 
ATOM      9  C   UNL     1      33.688 -19.936 -21.234  0.00  0.00    +0.060 C 
ATOM     10  C   UNL     1      33.032 -20.652 -20.233  0.00  0.00    +0.032 C 
ATOM     11  C   UNL     1      35.072 -19.906 -21.370  0.00  0.00    +0.059 C 
ATOM     12  C   UNL     1      35.228 -21.357 -19.451  0.00  0.00    +0.018 C 
ATOM     13  C   UNL     1      35.866 -20.630 -20.464  0.00  0.00    +0.017 C 
ATOM     14  C   UNL     1      34.313 -18.682 -22.946  0.00  0.00    +0.144 C 
ATOM     15  C   UNL     1      34.157 -17.796 -24.114  0.00  0.00    +0.044 C 
ATOM     16  H   UNL     1      32.285 -18.943 -22.453  0.00  0.00    +0.148 HD
ATOM     17  H   UNL     1      36.356 -18.934 -22.756  0.00  0.00    +0.148 HD
ENDBRANCH   1   8
BRANCH   4  18
ATOM     18  N   UNL     1      35.189 -22.557 -17.045  0.00  0.00    -0.344 N 
ATOM     19  H   UNL     1      35.750 -22.100 -17.712  0.00  0.00    +0.144 HD
ATOM     20  H   UNL     1      35.600 -22.936 -16.234  0.00  0.00    +0.144 HD
ENDBRANCH   4  18
BRANCH   3  22
ATOM     21  O   UNL     1      31.988 -24.460 -14.695  0.00  0.00    -0.285 OA
ATOM     22  C   UNL     1      33.045 -24.051 -15.229  0.00  0.00    +0.213 C 
BRANCH  22  24
ATOM     23  N   UNL     1      34.861 -23.543 -13.637  0.00  0.00    -0.310 N 
ATOM     24  C   UNL     1      34.322 -24.304 -14.639  0.00  0.00    +0.088 C 
ATOM     25  C   UNL     1      36.097 -24.034 -13.280  0.00  0.00    +0.048 C 
ATOM     26  C   UNL     1      36.346 -25.147 -14.087  0.00  0.00    +0.015 C 
ATOM     27  C   UNL     1      35.217 -25.305 -14.940  0.00  0.00    +0.019 C 
ATOM     28  C   UNL     1      37.003 -23.584 -12.314  0.00  0.00    +0.015 C 
ATOM     29  C   UNL     1      37.557 -25.845 -13.923  0.00  0.00    +0.001 C 
ATOM     30  C   UNL     1      38.199 -24.293 -12.170  0.00  0.00    +0.001 C 
ATOM     31  C   UNL     1      38.474 -25.406 -12.961  0.00  0.00    +0.000 C 
ATOM     32  H   UNL     1      34.428 -22.758 -13.231  0.00  0.00    +0.152 HD
ENDBRANCH  22  24
ENDBRANCH   3  22
TORSDOF 4
ENDMDL
MODEL 9
REMARK VINA RESULT:     -11.1      4.712      7.965
REMARK  Name = 66555680
REMARK  4 active torsions:
REMARK  status: ('A' for Active; 'I' for Inactive)
REMARK    1  A    between atoms: N_1  and  C_8
REMARK    2  A    between atoms: C_3  and  C_22
REMARK    3  A    between atoms: C_4  and  N_18
REMARK    4  A    between atoms: C_22  and  C_24
REMARK                            x       y       z     vdW  Elec       q    Type
REMARK                         _______ _______ _______ _____ _____    ______ ____
ROOT
ATOM      1  N   UNL     1      33.066 -13.735 -24.830  0.00  0.00    -0.177 N 
ATOM      2  N   UNL     1      32.602 -13.846 -26.087  0.00  0.00    -0.171 NA
ATOM      3  C   UNL     1      33.620 -15.771 -25.396  0.00  0.00    +0.090 C 
ATOM      4  C   UNL     1      33.684 -14.860 -24.369  0.00  0.00    +0.122 C 
ATOM      5  C   UNL     1      32.944 -15.092 -26.427  0.00  0.00    +0.124 C 
ENDROOT
BRANCH   1   8
ATOM      6  N   UNL     1      31.479 -10.976 -21.071  0.00  0.00    -0.318 N 
ATOM      7  N   UNL     1      32.254  -9.079 -21.930  0.00  0.00    -0.318 N 
ATOM      8  C   UNL     1      32.886 -12.537 -24.136  0.00  0.00    +0.077 C 
ATOM      9  C   UNL     1      32.066 -11.326 -22.259  0.00  0.00    +0.060 C 
ATOM     10  C   UNL     1      32.217 -12.552 -22.907  0.00  0.00    +0.032 C 
ATOM     11  C   UNL     1      32.542 -10.124 -22.776  0.00  0.00    +0.059 C 
ATOM     12  C   UNL     1      33.374 -11.347 -24.680  0.00  0.00    +0.018 C 
ATOM     13  C   UNL     1      33.211 -10.128 -24.012  0.00  0.00    +0.017 C 
ATOM     14  C   UNL     1      31.617  -9.624 -20.918  0.00  0.00    +0.144 C 
ATOM     15  C   UNL     1      31.087  -8.930 -19.731  0.00  0.00    +0.044 C 
ATOM     16  H   UNL     1      31.037 -11.590 -20.439  0.00  0.00    +0.148 HD
ATOM     17  H   UNL     1      32.477  -8.127 -22.054  0.00  0.00    +0.148 HD
ENDBRANCH   1   8
BRANCH   4  18
ATOM     18  N   UNL     1      34.211 -14.932 -23.127  0.00  0.00    -0.344 N 
ATOM     19  H   UNL     1      34.660 -14.148 -22.737  0.00  0.00    +0.144 HD
ATOM     20  H   UNL     1      34.147 -15.769 -22.613  0.00  0.00    +0.144 HD
ENDBRANCH   4  18
BRANCH   3  22
ATOM     21  O   UNL     1      34.375 -17.685 -26.508  0.00  0.00    -0.285 OA
ATOM     22  C   UNL     1      34.165 -17.177 -25.382  0.00  0.00    +0.213 C 
BRANCH  22  24
ATOM     23  N   UNL     1      35.648 -17.913 -23.552  0.00  0.00    -0.310 N 
ATOM     24  C   UNL     1      34.431 -17.901 -24.179  0.00  0.00    +0.088 C 
ATOM     25  C   UNL     1      35.593 -18.699 -22.422  0.00  0.00    +0.048 C 
ATOM     26  C   UNL     1      34.292 -19.201 -22.335  0.00  0.00    +0.015 C 
ATOM     27  C   UNL     1      33.571 -18.690 -23.450  0.00  0.00    +0.019 C 
ATOM     28  C   UNL     1      36.583 -19.000 -21.482  0.00  0.00    +0.015 C 
ATOM     29  C   UNL     1      33.963 -20.045 -21.256  0.00  0.00    +0.001 C 
ATOM     30  C   UNL     1      36.233 -19.839 -20.421  0.00  0.00    +0.001 C 
ATOM     31  C   UNL     1      34.944 -20.355 -20.308  0.00  0.00    +0.000 C 
ATOM     32  H   UNL     1      36.447 -17.430 -23.863  0.00  0.00    +0.152 HD
ENDBRANCH  22  24
ENDBRANCH   3  22
TORSDOF 4
ENDMDL
