MODEL 1
REMARK VINA RESULT:     -13.3      0.000      0.000
REMARK  Name = 11974440
REMARK  4 active torsions:
REMARK  status: ('A' for Active; 'I' for Inactive)
REMARK    1  A    between atoms: C_1  and  C_25
REMARK    2  A    between atoms: C_2  and  N_31
REMARK    3  A    between atoms: C_5  and  C_12
REMARK    4  A    between atoms: C_17  and  C_21
REMARK                            x       y       z     vdW  Elec       q    Type
REMARK                         _______ _______ _______ _____ _____    ______ ____
ROOT
ATOM      1  C   UNL     1      34.370 -19.902 -20.371  0.00  0.00    +0.009 C 
ATOM      2  C   UNL     1      35.429 -21.021 -20.193  0.00  0.00    -0.057 C 
ATOM      3  C   UNL     1      35.231 -21.743 -18.845  0.00  0.00    +0.009 C 
ATOM      4  C   UNL     1      32.941 -20.492 -20.301  0.00  0.00    +0.028 C 
ATOM      5  C   UNL     1      33.794 -22.064 -18.563  0.00  0.00    +0.025 C 
ATOM      6  C   UNL     1      32.762 -21.516 -19.219  0.00  0.00    -0.026 C 
ENDROOT
BRANCH   5  12
ATOM      7  O   UNL     1      32.476 -23.743 -17.649  0.00  0.00    -0.270 OA
ATOM      8  N   UNL     1      34.374 -23.155 -16.442  0.00  0.00    -0.267 N 
ATOM      9  N   UNL     1      36.600 -24.310 -15.300  0.00  0.00    -0.292 N 
ATOM     10  N   UNL     1      35.533 -25.859 -14.195  0.00  0.00    -0.132 NA
ATOM     11  N   UNL     1      36.894 -26.067 -14.054  0.00  0.00    -0.125 NA
ATOM     12  C   UNL     1      33.489 -23.056 -17.512  0.00  0.00    +0.245 C 
ATOM     13  C   UNL     1      35.553 -22.299 -16.207  0.00  0.00    +0.119 C 
ATOM     14  C   UNL     1      34.104 -24.142 -15.385  0.00  0.00    +0.160 C 
ATOM     15  C   UNL     1      36.814 -23.159 -16.150  0.00  0.00    +0.130 C 
ATOM     16  C   UNL     1      35.368 -24.795 -14.953  0.00  0.00    +0.164 A 
ATOM     17  C   UNL     1      37.517 -25.125 -14.726  0.00  0.00    +0.238 A 
BRANCH  17  21
ATOM     18  F   UNL     1      39.624 -26.034 -15.403  0.00  0.00    -0.163 F 
ATOM     19  F   UNL     1      39.339 -23.902 -15.678  0.00  0.00    -0.163 F 
ATOM     20  F   UNL     1      39.611 -24.711 -13.678  0.00  0.00    -0.163 F 
ATOM     21  C   UNL     1      38.973 -24.950 -14.869  0.00  0.00    +0.452 C 
ENDBRANCH  17  21
ENDBRANCH   5  12
BRANCH   1  25
ATOM     22  F   UNL     1      35.118 -17.165 -20.376  0.00  0.00    -0.204 F 
ATOM     23  F   UNL     1      34.260 -19.512 -25.241  0.00  0.00    -0.202 F 
ATOM     24  F   UNL     1      34.987 -16.880 -25.097  0.00  0.00    -0.202 F 
ATOM     25  C   UNL     1      34.538 -19.086 -21.644  0.00  0.00    +0.006 C 
ATOM     26  C   UNL     1      34.908 -17.747 -21.565  0.00  0.00    +0.138 C 
ATOM     27  C   UNL     1      34.318 -19.686 -22.880  0.00  0.00    +0.030 C 
ATOM     28  C   UNL     1      34.471 -18.940 -24.048  0.00  0.00    +0.167 C 
ATOM     29  C   UNL     1      35.061 -17.001 -22.733  0.00  0.00    +0.061 C 
ATOM     30  C   UNL     1      34.843 -17.598 -23.975  0.00  0.00    +0.170 C 
ENDBRANCH   1  25
BRANCH   2  31
ATOM     31  N   UNL     1      36.791 -20.485 -20.261  0.00  0.00    +0.382 N 
ATOM     32  H   UNL     1      37.392 -21.003 -19.619  0.00  0.00    -0.089 HD
ATOM     33  H   UNL     1      36.782 -19.501 -19.998  0.00  0.00    -0.089 HD
ATOM     34  H   UNL     1      37.148 -20.582 -21.211  0.00  0.00    -0.089 HD
ENDBRANCH   2  31
TORSDOF 4
ENDMDL
MODEL 2
REMARK VINA RESULT:     -12.7      3.844      4.615
REMARK  Name = 11974440
REMARK  4 active torsions:
REMARK  status: ('A' for Active; 'I' for Inactive)
REMARK    1  A    between atoms: C_1  and  C_25
REMARK    2  A    between atoms: C_2  and  N_31
REMARK    3  A    between atoms: C_5  and  C_12
REMARK    4  A    between atoms: C_17  and  C_21
REMARK                            x       y       z     vdW  Elec       q    Type
REMARK                         _______ _______ _______ _____ _____    ______ ____
ROOT
ATOM      1  C   UNL     1      34.700 -20.031 -21.569  0.00  0.00    +0.009 C 
ATOM      2  C   UNL     1      33.546 -20.005 -20.534  0.00  0.00    -0.057 C 
ATOM      3  C   UNL     1      33.711 -21.147 -19.511  0.00  0.00    +0.009 C 
ATOM      4  C   UNL     1      36.068 -19.900 -20.859  0.00  0.00    +0.028 C 
ATOM      5  C   UNL     1      35.119 -21.281 -19.013  0.00  0.00    +0.025 C 
ATOM      6  C   UNL     1      36.179 -20.716 -19.605  0.00  0.00    -0.026 C 
ENDROOT
BRANCH   5  12
ATOM      7  O   UNL     1      36.414 -21.879 -17.180  0.00  0.00    -0.270 OA
ATOM      8  N   UNL     1      34.369 -22.964 -17.392  0.00  0.00    -0.267 N 
ATOM      9  N   UNL     1      32.093 -23.498 -15.932  0.00  0.00    -0.292 N 
ATOM     10  N   UNL     1      33.111 -24.283 -14.169  0.00  0.00    -0.132 NA
ATOM     11  N   UNL     1      31.755 -24.204 -13.903  0.00  0.00    -0.125 NA
ATOM     12  C   UNL     1      35.358 -22.068 -17.786  0.00  0.00    +0.245 C 
ATOM     13  C   UNL     1      33.129 -23.272 -18.132  0.00  0.00    +0.119 C 
ATOM     14  C   UNL     1      34.572 -23.755 -16.167  0.00  0.00    +0.160 C 
ATOM     15  C   UNL     1      31.915 -22.955 -17.261  0.00  0.00    +0.130 C 
ATOM     16  C   UNL     1      33.303 -23.850 -15.398  0.00  0.00    +0.164 A 
ATOM     17  C   UNL     1      31.162 -23.730 -14.976  0.00  0.00    +0.238 A 
BRANCH  17  21
ATOM     18  F   UNL     1      29.318 -23.390 -16.462  0.00  0.00    -0.163 F 
ATOM     19  F   UNL     1      28.903 -24.417 -14.598  0.00  0.00    -0.163 F 
ATOM     20  F   UNL     1      29.314 -22.283 -14.591  0.00  0.00    -0.163 F 
ATOM     21  C   UNL     1      29.723 -23.466 -15.152  0.00  0.00    +0.452 C 
ENDBRANCH  17  21
ENDBRANCH   5  12
BRANCH   1  25
ATOM     22  F   UNL     1      34.942 -17.244 -21.091  0.00  0.00    -0.204 F 
ATOM     23  F   UNL     1      33.970 -18.802 -26.242  0.00  0.00    -0.202 F 
ATOM     24  F   UNL     1      34.227 -16.148 -25.638  0.00  0.00    -0.202 F 
ATOM     25  C   UNL     1      34.574 -18.982 -22.664  0.00  0.00    +0.006 C 
ATOM     26  C   UNL     1      34.706 -17.633 -22.351  0.00  0.00    +0.138 C 
ATOM     27  C   UNL     1      34.326 -19.382 -23.974  0.00  0.00    +0.030 C 
ATOM     28  C   UNL     1      34.210 -18.423 -24.980  0.00  0.00    +0.167 C 
ATOM     29  C   UNL     1      34.590 -16.675 -23.357  0.00  0.00    +0.061 C 
ATOM     30  C   UNL     1      34.342 -17.070 -24.672  0.00  0.00    +0.170 C 
ENDBRANCH   1  25
BRANCH   2  31
ATOM     31  N   UNL     1      32.238 -20.124 -21.185  0.00  0.00    +0.382 N 
ATOM     32  H   UNL     1      31.525 -19.691 -20.597  0.00  0.00    -0.089 HD
ATOM     33  H   UNL     1      32.014 -21.109 -21.320  0.00  0.00    -0.089 HD
ATOM     34  H   UNL     1      32.264 -19.653 -22.089  0.00  0.00    -0.089 HD
ENDBRANCH   2  31
TORSDOF 4
ENDMDL
MODEL 3
REMARK VINA RESULT:     -12.6      3.900      4.867
REMARK  Name = 11974440
REMARK  4 active torsions:
REMARK  status: ('A' for Active; 'I' for Inactive)
REMARK    1  A    between atoms: C_1  and  C_25
REMARK    2  A    between atoms: C_2  and  N_31
REMARK    3  A    between atoms: C_5  and  C_12
REMARK    4  A    between atoms: C_17  and  C_21
REMARK                            x       y       z     vdW  Elec       q    Type
REMARK                         _______ _______ _______ _____ _____    ______ ____
ROOT
ATOM      1  C   UNL     1      34.769 -19.686 -21.897  0.00  0.00    +0.009 C 
ATOM      2  C   UNL     1      33.609 -19.756 -20.870  0.00  0.00    -0.057 C 
ATOM      3  C   UNL     1      33.829 -20.921 -19.884  0.00  0.00    +0.009 C 
ATOM      4  C   UNL     1      36.124 -19.506 -21.173  0.00  0.00    +0.028 C 
ATOM      5  C   UNL     1      35.239 -20.997 -19.380  0.00  0.00    +0.025 C 
ATOM      6  C   UNL     1      36.271 -20.357 -19.945  0.00  0.00    -0.026 C 
ENDROOT
BRANCH   5  12
ATOM      7  O   UNL     1      36.590 -21.641 -17.604  0.00  0.00    -0.270 OA
ATOM      8  N   UNL     1      34.530 -22.707 -17.768  0.00  0.00    -0.267 N 
ATOM      9  N   UNL     1      32.301 -23.254 -16.244  0.00  0.00    -0.292 N 
ATOM     10  N   UNL     1      33.371 -24.081 -14.533  0.00  0.00    -0.132 NA
ATOM     11  N   UNL     1      32.025 -23.999 -14.220  0.00  0.00    -0.125 NA
ATOM     12  C   UNL     1      35.513 -21.810 -18.178  0.00  0.00    +0.245 C 
ATOM     13  C   UNL     1      33.264 -22.990 -18.473  0.00  0.00    +0.119 C 
ATOM     14  C   UNL     1      34.768 -23.523 -16.568  0.00  0.00    +0.160 C 
ATOM     15  C   UNL     1      32.082 -22.683 -17.555  0.00  0.00    +0.130 C 
ATOM     16  C   UNL     1      33.525 -23.625 -15.759  0.00  0.00    +0.164 A 
ATOM     17  C   UNL     1      31.400 -23.498 -15.262  0.00  0.00    +0.238 A 
BRANCH  17  21
ATOM     18  F   UNL     1      29.154 -24.321 -15.223  0.00  0.00    -0.163 F 
ATOM     19  F   UNL     1      29.478 -22.312 -14.474  0.00  0.00    -0.163 F 
ATOM     20  F   UNL     1      29.605 -22.707 -16.608  0.00  0.00    -0.163 F 
ATOM     21  C   UNL     1      29.958 -23.220 -15.385  0.00  0.00    +0.452 C 
ENDBRANCH  17  21
ENDBRANCH   5  12
BRANCH   1  25
ATOM     22  F   UNL     1      34.354 -20.262 -24.644  0.00  0.00    -0.204 F 
ATOM     23  F   UNL     1      34.519 -14.986 -23.213  0.00  0.00    -0.202 F 
ATOM     24  F   UNL     1      34.125 -15.686 -25.826  0.00  0.00    -0.202 F 
ATOM     25  C   UNL     1      34.594 -18.610 -22.958  0.00  0.00    +0.006 C 
ATOM     26  C   UNL     1      34.393 -18.971 -24.286  0.00  0.00    +0.138 C 
ATOM     27  C   UNL     1      34.637 -17.268 -22.590  0.00  0.00    +0.030 C 
ATOM     28  C   UNL     1      34.477 -16.280 -23.560  0.00  0.00    +0.167 C 
ATOM     29  C   UNL     1      34.234 -17.983 -25.256  0.00  0.00    +0.061 C 
ATOM     30  C   UNL     1      34.276 -16.636 -24.893  0.00  0.00    +0.170 C 
ENDBRANCH   1  25
BRANCH   2  31
ATOM     31  N   UNL     1      32.313 -19.922 -21.535  0.00  0.00    +0.382 N 
ATOM     32  H   UNL     1      32.160 -20.911 -21.737  0.00  0.00    -0.089 HD
ATOM     33  H   UNL     1      32.307 -19.393 -22.405  0.00  0.00    -0.089 HD
ATOM     34  H   UNL     1      31.571 -19.583 -20.923  0.00  0.00    -0.089 HD
ENDBRANCH   2  31
TORSDOF 4
ENDMDL
MODEL 4
REMARK VINA RESULT:     -12.2      3.908      4.584
REMARK  Name = 11974440
REMARK  4 active torsions:
REMARK  status: ('A' for Active; 'I' for Inactive)
REMARK    1  A    between atoms: C_1  and  C_25
REMARK    2  A    between atoms: C_2  and  N_31
REMARK    3  A    between atoms: C_5  and  C_12
REMARK    4  A    between atoms: C_17  and  C_21
REMARK                            x       y       z     vdW  Elec       q    Type
REMARK                         _______ _______ _______ _____ _____    ______ ____
ROOT
ATOM      1  C   UNL     1      34.900 -19.266 -21.129  0.00  0.00    +0.009 C 
ATOM      2  C   UNL     1      36.252 -20.016 -21.019  0.00  0.00    -0.057 C 
ATOM      3  C   UNL     1      36.461 -20.548 -19.586  0.00  0.00    +0.009 C 
ATOM      4  C   UNL     1      33.729 -20.201 -20.745  0.00  0.00    +0.028 C 
ATOM      5  C   UNL     1      35.233 -21.198 -19.023  0.00  0.00    +0.025 C 
ATOM      6  C   UNL     1      34.006 -21.056 -19.543  0.00  0.00    -0.026 C 
ENDROOT
BRANCH   5  12
ATOM      7  O   UNL     1      36.428 -21.986 -17.194  0.00  0.00    -0.270 OA
ATOM      8  N   UNL     1      34.311 -22.894 -17.508  0.00  0.00    -0.267 N 
ATOM      9  N   UNL     1      31.963 -23.318 -16.129  0.00  0.00    -0.292 N 
ATOM     10  N   UNL     1      32.869 -24.266 -14.387  0.00  0.00    -0.132 NA
ATOM     11  N   UNL     1      31.517 -24.094 -14.148  0.00  0.00    -0.125 NA
ATOM     12  C   UNL     1      35.377 -22.061 -17.834  0.00  0.00    +0.245 C 
ATOM     13  C   UNL     1      33.071 -23.066 -18.291  0.00  0.00    +0.119 C 
ATOM     14  C   UNL     1      34.419 -23.758 -16.321  0.00  0.00    +0.160 C 
ATOM     15  C   UNL     1      31.862 -22.697 -17.432  0.00  0.00    +0.130 C 
ATOM     16  C   UNL     1      33.127 -23.790 -15.587  0.00  0.00    +0.164 A 
ATOM     17  C   UNL     1      30.991 -23.521 -15.208  0.00  0.00    +0.238 A 
BRANCH  17  21
ATOM     18  F   UNL     1      29.177 -22.067 -14.643  0.00  0.00    -0.163 F 
ATOM     19  F   UNL     1      29.268 -22.776 -16.691  0.00  0.00    -0.163 F 
ATOM     20  F   UNL     1      28.697 -24.139 -15.096  0.00  0.00    -0.163 F 
ATOM     21  C   UNL     1      29.582 -23.137 -15.403  0.00  0.00    +0.452 C 
ENDBRANCH  17  21
ENDBRANCH   5  12
BRANCH   1  25
ATOM     22  F   UNL     1      34.923 -16.465 -21.584  0.00  0.00    -0.204 F 
ATOM     23  F   UNL     1      33.900 -19.672 -25.895  0.00  0.00    -0.202 F 
ATOM     24  F   UNL     1      33.954 -16.955 -26.189  0.00  0.00    -0.202 F 
ATOM     25  C   UNL     1      34.646 -18.640 -22.492  0.00  0.00    +0.006 C 
ATOM     26  C   UNL     1      34.675 -17.257 -22.636  0.00  0.00    +0.138 C 
ATOM     27  C   UNL     1      34.386 -19.460 -23.586  0.00  0.00    +0.030 C 
ATOM     28  C   UNL     1      34.153 -18.889 -24.837  0.00  0.00    +0.167 C 
ATOM     29  C   UNL     1      34.442 -16.687 -23.887  0.00  0.00    +0.061 C 
ATOM     30  C   UNL     1      34.181 -17.503 -24.988  0.00  0.00    +0.170 C 
ENDBRANCH   1  25
BRANCH   2  31
ATOM     31  N   UNL     1      37.377 -19.149 -21.382  0.00  0.00    +0.382 N 
ATOM     32  H   UNL     1      38.246 -19.556 -21.032  0.00  0.00    -0.089 HD
ATOM     33  H   UNL     1      37.243 -18.227 -20.968  0.00  0.00    -0.089 HD
ATOM     34  H   UNL     1      37.427 -19.064 -22.397  0.00  0.00    -0.089 HD
ENDBRANCH   2  31
TORSDOF 4
ENDMDL
MODEL 5
REMARK VINA RESULT:     -12.0      1.167      2.212
REMARK  Name = 11974440
REMARK  4 active torsions:
REMARK  status: ('A' for Active; 'I' for Inactive)
REMARK    1  A    between atoms: C_1  and  C_25
REMARK    2  A    between atoms: C_2  and  N_31
REMARK    3  A    between atoms: C_5  and  C_12
REMARK    4  A    between atoms: C_17  and  C_21
REMARK                            x       y       z     vdW  Elec       q    Type
REMARK                         _______ _______ _______ _____ _____    ______ ____
ROOT
ATOM      1  C   UNL     1      34.330 -20.511 -20.640  0.00  0.00    +0.009 C 
ATOM      2  C   UNL     1      32.966 -20.449 -19.904  0.00  0.00    -0.057 C 
ATOM      3  C   UNL     1      32.695 -21.770 -19.155  0.00  0.00    +0.009 C 
ATOM      4  C   UNL     1      35.475 -20.785 -19.636  0.00  0.00    +0.028 C 
ATOM      5  C   UNL     1      33.893 -22.268 -18.404  0.00  0.00    +0.025 C 
ATOM      6  C   UNL     1      35.140 -21.824 -18.606  0.00  0.00    -0.026 C 
ENDROOT
BRANCH   5  12
ATOM      7  O   UNL     1      32.716 -24.042 -17.477  0.00  0.00    -0.270 OA
ATOM      8  N   UNL     1      34.626 -23.368 -16.337  0.00  0.00    -0.267 N 
ATOM      9  N   UNL     1      36.963 -24.412 -15.317  0.00  0.00    -0.292 N 
ATOM     10  N   UNL     1      36.038 -26.046 -14.206  0.00  0.00    -0.132 NA
ATOM     11  N   UNL     1      37.414 -26.175 -14.126  0.00  0.00    -0.125 NA
ATOM     12  C   UNL     1      33.692 -23.299 -17.366  0.00  0.00    +0.245 C 
ATOM     13  C   UNL     1      35.762 -22.448 -16.130  0.00  0.00    +0.119 C 
ATOM     14  C   UNL     1      34.461 -24.392 -15.293  0.00  0.00    +0.160 C 
ATOM     15  C   UNL     1      37.073 -23.232 -16.147  0.00  0.00    +0.130 C 
ATOM     16  C   UNL     1      35.779 -24.977 -14.931  0.00  0.00    +0.164 A 
ATOM     17  C   UNL     1      37.951 -25.183 -14.801  0.00  0.00    +0.238 A 
BRANCH  17  21
ATOM     18  F   UNL     1      39.657 -23.783 -15.724  0.00  0.00    -0.163 F 
ATOM     19  F   UNL     1      40.097 -24.757 -13.837  0.00  0.00    -0.163 F 
ATOM     20  F   UNL     1      40.037 -25.923 -15.671  0.00  0.00    -0.163 F 
ATOM     21  C   UNL     1      39.386 -24.918 -15.000  0.00  0.00    +0.452 C 
ENDBRANCH  17  21
ENDBRANCH   5  12
BRANCH   1  25
ATOM     22  F   UNL     1      34.860 -20.601 -23.426  0.00  0.00    -0.204 F 
ATOM     23  F   UNL     1      35.007 -15.687 -21.029  0.00  0.00    -0.202 F 
ATOM     24  F   UNL     1      35.498 -15.921 -23.708  0.00  0.00    -0.202 F 
ATOM     25  C   UNL     1      34.644 -19.275 -21.469  0.00  0.00    +0.006 C 
ATOM     26  C   UNL     1      34.892 -19.400 -22.832  0.00  0.00    +0.138 C 
ATOM     27  C   UNL     1      34.681 -18.027 -20.856  0.00  0.00    +0.030 C 
ATOM     28  C   UNL     1      34.969 -16.892 -21.613  0.00  0.00    +0.167 C 
ATOM     29  C   UNL     1      35.180 -18.265 -23.590  0.00  0.00    +0.061 C 
ATOM     30  C   UNL     1      35.219 -17.011 -22.980  0.00  0.00    +0.170 C 
ENDBRANCH   1  25
BRANCH   2  31
ATOM     31  N   UNL     1      31.865 -20.186 -20.836  0.00  0.00    +0.382 N 
ATOM     32  H   UNL     1      32.243 -20.031 -21.771  0.00  0.00    -0.089 HD
ATOM     33  H   UNL     1      31.355 -19.357 -20.534  0.00  0.00    -0.089 HD
ATOM     34  H   UNL     1      31.235 -20.988 -20.853  0.00  0.00    -0.089 HD
ENDBRANCH   2  31
TORSDOF 4
ENDMDL
MODEL 6
REMARK VINA RESULT:     -11.0      4.670     10.482
REMARK  Name = 11974440
REMARK  4 active torsions:
REMARK  status: ('A' for Active; 'I' for Inactive)
REMARK    1  A    between atoms: C_1  and  C_25
REMARK    2  A    between atoms: C_2  and  N_31
REMARK    3  A    between atoms: C_5  and  C_12
REMARK    4  A    between atoms: C_17  and  C_21
REMARK                            x       y       z     vdW  Elec       q    Type
REMARK                         _______ _______ _______ _____ _____    ______ ____
ROOT
ATOM      1  C   UNL     1      34.961 -20.524 -20.526  0.00  0.00    +0.009 C 
ATOM      2  C   UNL     1      36.075 -19.445 -20.498  0.00  0.00    -0.057 C 
ATOM      3  C   UNL     1      36.098 -18.657 -21.823  0.00  0.00    +0.009 C 
ATOM      4  C   UNL     1      33.580 -19.870 -20.766  0.00  0.00    +0.028 C 
ATOM      5  C   UNL     1      34.728 -18.261 -22.287  0.00  0.00    +0.025 C 
ATOM      6  C   UNL     1      33.594 -18.792 -21.810  0.00  0.00    -0.026 C 
ENDROOT
BRANCH   5  12
ATOM      7  O   UNL     1      34.552 -17.569 -24.497  0.00  0.00    -0.270 OA
ATOM      8  N   UNL     1      34.568 -15.888 -22.891  0.00  0.00    -0.267 N 
ATOM      9  N   UNL     1      33.097 -13.693 -22.108  0.00  0.00    -0.292 N 
ATOM     10  N   UNL     1      32.975 -12.764 -24.078  0.00  0.00    -0.132 NA
ATOM     11  N   UNL     1      32.198 -12.036 -23.193  0.00  0.00    -0.125 NA
ATOM     12  C   UNL     1      34.612 -17.211 -23.319  0.00  0.00    +0.245 C 
ATOM     13  C   UNL     1      34.713 -15.419 -21.499  0.00  0.00    +0.119 C 
ATOM     14  C   UNL     1      34.440 -14.819 -23.895  0.00  0.00    +0.160 C 
ATOM     15  C   UNL     1      33.466 -14.643 -21.081  0.00  0.00    +0.130 C 
ATOM     16  C   UNL     1      33.511 -13.764 -23.410  0.00  0.00    +0.164 A 
ATOM     17  C   UNL     1      32.285 -12.612 -22.015  0.00  0.00    +0.238 A 
BRANCH  17  21
ATOM     18  F   UNL     1      31.198 -13.231 -19.975  0.00  0.00    -0.163 F 
ATOM     19  F   UNL     1      32.401 -11.427 -19.941  0.00  0.00    -0.163 F 
ATOM     20  F   UNL     1      30.493 -11.438 -20.983  0.00  0.00    -0.163 F 
ATOM     21  C   UNL     1      31.619 -12.193 -20.770  0.00  0.00    +0.452 C 
ENDBRANCH  17  21
ENDBRANCH   5  12
BRANCH   1  25
ATOM     22  F   UNL     1      32.700 -22.076 -19.799  0.00  0.00    -0.204 F 
ATOM     23  F   UNL     1      37.052 -22.331 -16.496  0.00  0.00    -0.202 F 
ATOM     24  F   UNL     1      34.805 -23.776 -15.917  0.00  0.00    -0.202 F 
ATOM     25  C   UNL     1      34.917 -21.402 -19.285  0.00  0.00    +0.006 C 
ATOM     26  C   UNL     1      33.771 -22.136 -18.995  0.00  0.00    +0.138 C 
ATOM     27  C   UNL     1      36.026 -21.464 -18.447  0.00  0.00    +0.030 C 
ATOM     28  C   UNL     1      35.988 -22.268 -17.308  0.00  0.00    +0.167 C 
ATOM     29  C   UNL     1      33.733 -22.940 -17.856  0.00  0.00    +0.061 C 
ATOM     30  C   UNL     1      34.843 -23.006 -17.013  0.00  0.00    +0.170 C 
ENDBRANCH   1  25
BRANCH   2  31
ATOM     31  N   UNL     1      37.394 -20.043 -20.267  0.00  0.00    +0.382 N 
ATOM     32  H   UNL     1      37.392 -20.536 -19.374  0.00  0.00    -0.089 HD
ATOM     33  H   UNL     1      38.101 -19.309 -20.249  0.00  0.00    -0.089 HD
ATOM     34  H   UNL     1      37.604 -20.701 -21.018  0.00  0.00    -0.089 HD
ENDBRANCH   2  31
TORSDOF 4
ENDMDL
MODEL 7
REMARK VINA RESULT:     -10.7     10.884     16.682
REMARK  Name = 11974440
REMARK  4 active torsions:
REMARK  status: ('A' for Active; 'I' for Inactive)
REMARK    1  A    between atoms: C_1  and  C_25
REMARK    2  A    between atoms: C_2  and  N_31
REMARK    3  A    between atoms: C_5  and  C_12
REMARK    4  A    between atoms: C_17  and  C_21
REMARK                            x       y       z     vdW  Elec       q    Type
REMARK                         _______ _______ _______ _____ _____    ______ ____
ROOT
ATOM      1  C   UNL     1      32.919 -11.640 -23.921  0.00  0.00    +0.009 C 
ATOM      2  C   UNL     1      34.147 -10.693 -23.924  0.00  0.00    -0.057 C 
ATOM      3  C   UNL     1      33.704  -9.233 -23.697  0.00  0.00    +0.009 C 
ATOM      4  C   UNL     1      32.154 -11.531 -22.581  0.00  0.00    +0.028 C 
ATOM      5  C   UNL     1      32.695  -9.097 -22.597  0.00  0.00    +0.025 C 
ATOM      6  C   UNL     1      32.005 -10.123 -22.083  0.00  0.00    -0.026 C 
ENDROOT
BRANCH   5  12
ATOM      7  O   UNL     1      33.238  -7.349 -21.166  0.00  0.00    -0.270 OA
ATOM      8  N   UNL     1      31.365  -7.036 -22.507  0.00  0.00    -0.267 N 
ATOM      9  N   UNL     1      30.321  -5.219 -24.297  0.00  0.00    -0.292 N 
ATOM     10  N   UNL     1      30.565  -3.460 -23.031  0.00  0.00    -0.132 NA
ATOM     11  N   UNL     1      30.119  -3.054 -24.277  0.00  0.00    -0.125 NA
ATOM     12  C   UNL     1      32.455  -7.755 -22.026  0.00  0.00    +0.245 C 
ATOM     13  C   UNL     1      30.364  -7.520 -23.479  0.00  0.00    +0.119 C 
ATOM     14  C   UNL     1      31.106  -5.691 -21.968  0.00  0.00    +0.160 C 
ATOM     15  C   UNL     1      30.349  -6.607 -24.703  0.00  0.00    +0.130 C 
ATOM     16  C   UNL     1      30.685  -4.771 -23.056  0.00  0.00    +0.164 A 
ATOM     17  C   UNL     1      29.980  -4.128 -25.023  0.00  0.00    +0.238 A 
BRANCH  17  21
ATOM     18  F   UNL     1      30.411  -4.822 -27.271  0.00  0.00    -0.163 F 
ATOM     19  F   UNL     1      28.343  -4.832 -26.618  0.00  0.00    -0.163 F 
ATOM     20  F   UNL     1      29.354  -2.944 -26.988  0.00  0.00    -0.163 F 
ATOM     21  C   UNL     1      29.538  -4.182 -26.427  0.00  0.00    +0.452 C 
ENDBRANCH  17  21
ENDBRANCH   5  12
BRANCH   1  25
ATOM     22  F   UNL     1      32.283 -12.920 -26.372  0.00  0.00    -0.204 F 
ATOM     23  F   UNL     1      34.845 -15.930 -22.593  0.00  0.00    -0.202 F 
ATOM     24  F   UNL     1      34.172 -17.035 -25.001  0.00  0.00    -0.202 F 
ATOM     25  C   UNL     1      33.257 -13.094 -24.215  0.00  0.00    +0.006 C 
ATOM     26  C   UNL     1      32.912 -13.651 -25.442  0.00  0.00    +0.138 C 
ATOM     27  C   UNL     1      33.908 -13.857 -23.251  0.00  0.00    +0.030 C 
ATOM     28  C   UNL     1      34.218 -15.190 -23.517  0.00  0.00    +0.167 C 
ATOM     29  C   UNL     1      33.223 -14.984 -25.709  0.00  0.00    +0.061 C 
ATOM     30  C   UNL     1      33.876 -15.754 -24.746  0.00  0.00    +0.170 C 
ENDBRANCH   1  25
BRANCH   2  31
ATOM     31  N   UNL     1      34.890 -10.783 -25.185  0.00  0.00    +0.382 N 
ATOM     32  H   UNL     1      35.851 -10.472 -25.035  0.00  0.00    -0.089 HD
ATOM     33  H   UNL     1      34.446 -10.189 -25.884  0.00  0.00    -0.089 HD
ATOM     34  H   UNL     1      34.893 -11.750 -25.509  0.00  0.00    -0.089 HD
ENDBRANCH   2  31
TORSDOF 4
ENDMDL
MODEL 8
REMARK VINA RESULT:     -10.6      8.651     13.016
REMARK  Name = 11974440
REMARK  4 active torsions:
REMARK  status: ('A' for Active; 'I' for Inactive)
REMARK    1  A    between atoms: C_1  and  C_25
REMARK    2  A    between atoms: C_2  and  N_31
REMARK    3  A    between atoms: C_5  and  C_12
REMARK    4  A    between atoms: C_17  and  C_21
REMARK                            x       y       z     vdW  Elec       q    Type
REMARK                         _______ _______ _______ _____ _____    ______ ____
ROOT
ATOM      1  C   UNL     1      32.965  -8.882 -24.789  0.00  0.00    +0.009 C 
ATOM      2  C   UNL     1      34.414  -9.321 -25.123  0.00  0.00    -0.057 C 
ATOM      3  C   UNL     1      34.463 -10.830 -25.439  0.00  0.00    +0.009 C 
ATOM      4  C   UNL     1      32.017  -9.197 -25.970  0.00  0.00    +0.028 C 
ATOM      5  C   UNL     1      33.353 -11.269 -26.346  0.00  0.00    +0.025 C 
ATOM      6  C   UNL     1      32.259 -10.539 -26.598  0.00  0.00    -0.026 C 
ENDROOT
BRANCH   5  12
ATOM      7  O   UNL     1      33.861 -12.588 -28.189  0.00  0.00    -0.270 OA
ATOM      8  N   UNL     1      33.152 -13.715 -26.283  0.00  0.00    -0.267 N 
ATOM      9  N   UNL     1      33.935 -15.770 -24.623  0.00  0.00    -0.292 N 
ATOM     10  N   UNL     1      34.290 -17.236 -26.199  0.00  0.00    -0.132 NA
ATOM     11  N   UNL     1      34.689 -17.777 -24.989  0.00  0.00    -0.125 NA
ATOM     12  C   UNL     1      33.474 -12.578 -27.020  0.00  0.00    +0.245 C 
ATOM     13  C   UNL     1      32.614 -13.736 -24.908  0.00  0.00    +0.119 C 
ATOM     14  C   UNL     1      33.273 -15.035 -26.922  0.00  0.00    +0.160 C 
ATOM     15  C   UNL     1      33.554 -14.523 -23.998  0.00  0.00    +0.130 C 
ATOM     16  C   UNL     1      33.838 -16.022 -25.965  0.00  0.00    +0.164 A 
ATOM     17  C   UNL     1      34.467 -16.878 -24.055  0.00  0.00    +0.238 A 
BRANCH  17  21
ATOM     18  F   UNL     1      34.620 -15.838 -21.906  0.00  0.00    -0.163 F 
ATOM     19  F   UNL     1      33.927 -17.892 -21.958  0.00  0.00    -0.163 F 
ATOM     20  F   UNL     1      36.019 -17.444 -22.344  0.00  0.00    -0.163 F 
ATOM     21  C   UNL     1      34.746 -17.008 -22.615  0.00  0.00    +0.452 C 
ENDBRANCH  17  21
ENDBRANCH   5  12
BRANCH   1  25
ATOM     22  F   UNL     1      32.264  -8.041 -22.171  0.00  0.00    -0.204 F 
ATOM     23  F   UNL     1      33.168  -4.123 -25.878  0.00  0.00    -0.202 F 
ATOM     24  F   UNL     1      32.486  -3.455 -23.316  0.00  0.00    -0.202 F 
ATOM     25  C   UNL     1      32.836  -7.420 -24.389  0.00  0.00    +0.006 C 
ATOM     26  C   UNL     1      32.489  -7.086 -23.084  0.00  0.00    +0.138 C 
ATOM     27  C   UNL     1      33.066  -6.426 -25.335  0.00  0.00    +0.030 C 
ATOM     28  C   UNL     1      32.949  -5.085 -24.972  0.00  0.00    +0.167 C 
ATOM     29  C   UNL     1      32.371  -5.745 -22.721  0.00  0.00    +0.061 C 
ATOM     30  C   UNL     1      32.601  -4.744 -23.665  0.00  0.00    +0.170 C 
ENDBRANCH   1  25
BRANCH   2  31
ATOM     31  N   UNL     1      35.331  -9.028 -24.018  0.00  0.00    +0.382 N 
ATOM     32  H   UNL     1      35.415  -9.850 -23.419  0.00  0.00    -0.089 HD
ATOM     33  H   UNL     1      34.969  -8.246 -23.473  0.00  0.00    -0.089 HD
ATOM     34  H   UNL     1      36.249  -8.787 -24.392  0.00  0.00    -0.089 HD
ENDBRANCH   2  31
TORSDOF 4
ENDMDL
MODEL 9
REMARK VINA RESULT:     -10.6      9.422     14.675
REMARK  Name = 11974440
REMARK  4 active torsions:
REMARK  status: ('A' for Active; 'I' for Inactive)
REMARK    1  A    between atoms: C_1  and  C_25
REMARK    2  A    between atoms: C_2  and  N_31
REMARK    3  A    between atoms: C_5  and  C_12
REMARK    4  A    between atoms: C_17  and  C_21
REMARK                            x       y       z     vdW  Elec       q    Type
REMARK                         _______ _______ _______ _____ _____    ______ ____
ROOT
ATOM      1  C   UNL     1      33.752 -13.169 -24.078  0.00  0.00    +0.009 C 
ATOM      2  C   UNL     1      32.450 -12.609 -23.448  0.00  0.00    -0.057 C 
ATOM      3  C   UNL     1      32.448 -11.068 -23.491  0.00  0.00    +0.009 C 
ATOM      4  C   UNL     1      33.896 -12.688 -25.541  0.00  0.00    +0.028 C 
ATOM      5  C   UNL     1      32.897 -10.522 -24.813  0.00  0.00    +0.025 C 
ATOM      6  C   UNL     1      33.537 -11.245 -25.742  0.00  0.00    -0.026 C 
ENDROOT
BRANCH   5  12
ATOM      7  O   UNL     1      31.988  -8.866 -26.163  0.00  0.00    -0.270 OA
ATOM      8  N   UNL     1      33.040  -8.145 -24.219  0.00  0.00    -0.267 N 
ATOM      9  N   UNL     1      32.555  -6.577 -22.005  0.00  0.00    -0.292 N 
ATOM     10  N   UNL     1      31.846  -4.826 -23.096  0.00  0.00    -0.132 NA
ATOM     11  N   UNL     1      31.687  -4.601 -21.739  0.00  0.00    -0.125 NA
ATOM     12  C   UNL     1      32.606  -9.108 -25.125  0.00  0.00    +0.245 C 
ATOM     13  C   UNL     1      33.846  -8.392 -23.007  0.00  0.00    +0.119 C 
ATOM     14  C   UNL     1      32.754  -6.728 -24.496  0.00  0.00    +0.160 C 
ATOM     15  C   UNL     1      33.090  -7.901 -21.774  0.00  0.00    +0.130 C 
ATOM     16  C   UNL     1      32.369  -6.025 -23.244  0.00  0.00    +0.164 A 
ATOM     17  C   UNL     1      32.120  -5.667 -21.102  0.00  0.00    +0.238 A 
BRANCH  17  21
ATOM     18  F   UNL     1      32.978  -6.889 -19.233  0.00  0.00    -0.163 F 
ATOM     19  F   UNL     1      32.532  -4.790 -18.916  0.00  0.00    -0.163 F 
ATOM     20  F   UNL     1      30.911  -6.222 -19.131  0.00  0.00    -0.163 F 
ATOM     21  C   UNL     1      32.137  -5.884 -19.645  0.00  0.00    +0.452 C 
ENDBRANCH  17  21
ENDBRANCH   5  12
BRANCH   1  25
ATOM     22  F   UNL     1      34.981 -14.534 -21.916  0.00  0.00    -0.204 F 
ATOM     23  F   UNL     1      32.992 -17.605 -25.981  0.00  0.00    -0.202 F 
ATOM     24  F   UNL     1      34.201 -18.789 -23.834  0.00  0.00    -0.202 F 
ATOM     25  C   UNL     1      33.873 -14.683 -24.009  0.00  0.00    +0.006 C 
ATOM     26  C   UNL     1      34.489 -15.281 -22.914  0.00  0.00    +0.138 C 
ATOM     27  C   UNL     1      33.367 -15.461 -25.046  0.00  0.00    +0.030 C 
ATOM     28  C   UNL     1      33.477 -16.850 -24.986  0.00  0.00    +0.167 C 
ATOM     29  C   UNL     1      34.600 -16.669 -22.854  0.00  0.00    +0.061 C 
ATOM     30  C   UNL     1      34.093 -17.455 -23.890  0.00  0.00    +0.170 C 
ENDBRANCH   1  25
BRANCH   2  31
ATOM     31  N   UNL     1      32.291 -13.056 -22.061  0.00  0.00    +0.382 N 
ATOM     32  H   UNL     1      32.860 -12.470 -21.449  0.00  0.00    -0.089 HD
ATOM     33  H   UNL     1      32.592 -14.026 -21.980  0.00  0.00    -0.089 HD
ATOM     34  H   UNL     1      31.311 -12.978 -21.790  0.00  0.00    -0.089 HD
ENDBRANCH   2  31
TORSDOF 4
ENDMDL
