MODEL 1
REMARK VINA RESULT:     -12.0      0.000      0.000
REMARK  Name = 24812719
REMARK  3 active torsions:
REMARK  status: ('A' for Active; 'I' for Inactive)
REMARK    1  A    between atoms: N_2  and  C_22
REMARK    2  A    between atoms: C_3  and  C_12
REMARK    3  A    between atoms: C_25  and  C_31
REMARK                            x       y       z     vdW  Elec       q    Type
REMARK                         _______ _______ _______ _____ _____    ______ ____
ROOT
ATOM      1  O   UNL     1      34.133 -14.995 -22.302  0.00  0.00    -0.269 OA
ATOM      2  N   UNL     1      33.535 -14.341 -24.484  0.00  0.00    -0.233 N 
ATOM      3  C   UNL     1      34.112 -16.706 -23.920  0.00  0.00    +0.046 C 
ATOM      4  C   UNL     1      33.808 -17.074 -25.182  0.00  0.00    -0.016 C 
ATOM      5  C   UNL     1      33.945 -15.263 -23.490  0.00  0.00    +0.256 C 
ATOM      6  C   UNL     1      33.228 -14.797 -25.761  0.00  0.00    +0.072 C 
ATOM      7  C   UNL     1      33.340 -16.079 -26.118  0.00  0.00    +0.012 C 
ATOM      8  C   UNL     1      33.915 -18.463 -25.752  0.00  0.00    +0.031 C 
ENDROOT
BRANCH   3  12
ATOM      9  N   UNL     1      35.981 -20.432 -20.116  0.00  0.00    -0.342 NA
ATOM     10  N   UNL     1      33.729 -21.171 -19.685  0.00  0.00    -0.170 NA
ATOM     11  N   UNL     1      35.543 -22.123 -18.550  0.00  0.00    -0.293 N 
ATOM     12  C   UNL     1      34.594 -17.681 -22.924  0.00  0.00    -0.017 C 
ATOM     13  C   UNL     1      33.691 -18.499 -22.251  0.00  0.00    +0.056 C 
ATOM     14  C   UNL     1      35.953 -17.790 -22.652  0.00  0.00    -0.022 C 
ATOM     15  C   UNL     1      34.156 -19.428 -21.305  0.00  0.00    +0.029 C 
ATOM     16  C   UNL     1      35.526 -19.547 -21.021  0.00  0.00    +0.124 C 
ATOM     17  C   UNL     1      36.407 -18.716 -21.709  0.00  0.00    +0.085 C 
ATOM     18  C   UNL     1      33.306 -20.275 -20.597  0.00  0.00    +0.110 C 
ATOM     19  C   UNL     1      35.057 -21.195 -19.498  0.00  0.00    +0.141 C 
ATOM     20  H   UNL     1      36.509 -22.185 -18.372  0.00  0.00    +0.155 HD
ATOM     21  H   UNL     1      34.915 -22.708 -18.068  0.00  0.00    +0.155 HD
ENDBRANCH   3  12
BRANCH   2  22
ATOM     22  C   UNL     1      33.413 -12.933 -24.159  0.00  0.00    +0.058 C 
ATOM     23  C   UNL     1      34.300 -12.010 -24.710  0.00  0.00    +0.019 C 
ATOM     24  C   UNL     1      32.408 -12.503 -23.293  0.00  0.00    +0.015 C 
ATOM     25  C   UNL     1      34.182 -10.656 -24.397  0.00  0.00    +0.073 C 
ATOM     26  C   UNL     1      32.290 -11.148 -22.979  0.00  0.00    +0.001 C 
ATOM     27  C   UNL     1      33.178 -10.225 -23.531  0.00  0.00    +0.004 C 
BRANCH  25  31
ATOM     28  F   UNL     1      35.517  -8.690 -24.113  0.00  0.00    -0.166 F 
ATOM     29  F   UNL     1      36.297 -10.227 -25.429  0.00  0.00    -0.166 F 
ATOM     30  F   UNL     1      34.608  -9.013 -26.062  0.00  0.00    -0.166 F 
ATOM     31  C   UNL     1      35.132  -9.668 -24.986  0.00  0.00    +0.419 C 
ENDBRANCH  25  31
ENDBRANCH   2  22
TORSDOF 3
ENDMDL
MODEL 2
REMARK VINA RESULT:     -11.7      1.936      2.459
REMARK  Name = 24812719
REMARK  3 active torsions:
REMARK  status: ('A' for Active; 'I' for Inactive)
REMARK    1  A    between atoms: N_2  and  C_22
REMARK    2  A    between atoms: C_3  and  C_12
REMARK    3  A    between atoms: C_25  and  C_31
REMARK                            x       y       z     vdW  Elec       q    Type
REMARK                         _______ _______ _______ _____ _____    ______ ____
ROOT
ATOM      1  O   UNL     1      34.039 -15.387 -22.207  0.00  0.00    -0.269 OA
ATOM      2  N   UNL     1      33.501 -14.837 -24.433  0.00  0.00    -0.233 N 
ATOM      3  C   UNL     1      34.135 -17.158 -23.758  0.00  0.00    +0.046 C 
ATOM      4  C   UNL     1      33.889 -17.583 -25.014  0.00  0.00    -0.016 C 
ATOM      5  C   UNL     1      33.904 -15.706 -23.390  0.00  0.00    +0.256 C 
ATOM      6  C   UNL     1      33.256 -15.351 -25.701  0.00  0.00    +0.072 C 
ATOM      7  C   UNL     1      33.423 -16.641 -26.004  0.00  0.00    +0.012 C 
ATOM      8  C   UNL     1      34.063 -18.988 -25.526  0.00  0.00    +0.031 C 
ENDROOT
BRANCH   3  12
ATOM      9  N   UNL     1      35.985 -20.671 -19.748  0.00  0.00    -0.342 NA
ATOM     10  N   UNL     1      33.746 -21.478 -19.376  0.00  0.00    -0.170 NA
ATOM     11  N   UNL     1      35.547 -22.320 -18.137  0.00  0.00    -0.293 N 
ATOM     12  C   UNL     1      34.611 -18.078 -22.708  0.00  0.00    -0.017 C 
ATOM     13  C   UNL     1      33.713 -18.904 -22.040  0.00  0.00    +0.056 C 
ATOM     14  C   UNL     1      35.962 -18.126 -22.381  0.00  0.00    -0.022 C 
ATOM     15  C   UNL     1      34.173 -19.780 -21.042  0.00  0.00    +0.029 C 
ATOM     16  C   UNL     1      35.535 -19.838 -20.702  0.00  0.00    +0.124 C 
ATOM     17  C   UNL     1      36.411 -19.000 -21.387  0.00  0.00    +0.085 C 
ATOM     18  C   UNL     1      33.328 -20.631 -20.336  0.00  0.00    +0.110 C 
ATOM     19  C   UNL     1      35.066 -21.446 -19.137  0.00  0.00    +0.141 C 
ATOM     20  H   UNL     1      36.507 -22.339 -17.921  0.00  0.00    +0.155 HD
ATOM     21  H   UNL     1      34.922 -22.910 -17.658  0.00  0.00    +0.155 HD
ENDBRANCH   3  12
BRANCH   2  22
ATOM     22  C   UNL     1      33.319 -13.422 -24.167  0.00  0.00    +0.058 C 
ATOM     23  C   UNL     1      32.576 -13.010 -23.062  0.00  0.00    +0.019 C 
ATOM     24  C   UNL     1      33.887 -12.475 -25.019  0.00  0.00    +0.015 C 
ATOM     25  C   UNL     1      32.401 -11.650 -22.808  0.00  0.00    +0.073 C 
ATOM     26  C   UNL     1      33.712 -11.115 -24.765  0.00  0.00    +0.001 C 
ATOM     27  C   UNL     1      32.968 -10.702 -23.660  0.00  0.00    +0.004 C 
BRANCH  25  31
ATOM     28  F   UNL     1      32.005 -10.006 -21.115  0.00  0.00    -0.166 F 
ATOM     29  F   UNL     1      30.273 -11.057 -21.890  0.00  0.00    -0.166 F 
ATOM     30  F   UNL     1      31.674 -12.090 -20.587  0.00  0.00    -0.166 F 
ATOM     31  C   UNL     1      31.605 -11.208 -21.626  0.00  0.00    +0.419 C 
ENDBRANCH  25  31
ENDBRANCH   2  22
TORSDOF 3
ENDMDL
MODEL 3
REMARK VINA RESULT:     -11.5      1.683      2.096
REMARK  Name = 24812719
REMARK  3 active torsions:
REMARK  status: ('A' for Active; 'I' for Inactive)
REMARK    1  A    between atoms: N_2  and  C_22
REMARK    2  A    between atoms: C_3  and  C_12
REMARK    3  A    between atoms: C_25  and  C_31
REMARK                            x       y       z     vdW  Elec       q    Type
REMARK                         _______ _______ _______ _____ _____    ______ ____
ROOT
ATOM      1  O   UNL     1      34.262 -16.114 -22.328  0.00  0.00    -0.269 OA
ATOM      2  N   UNL     1      33.688 -15.929 -24.604  0.00  0.00    -0.233 N 
ATOM      3  C   UNL     1      34.415 -18.095 -23.593  0.00  0.00    +0.046 C 
ATOM      4  C   UNL     1      34.179 -18.715 -24.767  0.00  0.00    -0.016 C 
ATOM      5  C   UNL     1      34.131 -16.613 -23.446  0.00  0.00    +0.256 C 
ATOM      6  C   UNL     1      33.455 -16.639 -25.777  0.00  0.00    +0.072 C 
ATOM      7  C   UNL     1      33.670 -17.952 -25.883  0.00  0.00    +0.012 C 
ATOM      8  C   UNL     1      34.404 -20.174 -25.062  0.00  0.00    +0.031 C 
ENDROOT
BRANCH   3  12
ATOM      9  N   UNL     1      36.425 -20.884 -19.118  0.00  0.00    -0.342 NA
ATOM     10  N   UNL     1      34.267 -21.880 -18.728  0.00  0.00    -0.170 NA
ATOM     11  N   UNL     1      36.084 -22.368 -17.332  0.00  0.00    -0.293 N 
ATOM     12  C   UNL     1      34.934 -18.826 -22.422  0.00  0.00    -0.017 C 
ATOM     13  C   UNL     1      34.095 -19.660 -21.689  0.00  0.00    +0.056 C 
ATOM     14  C   UNL     1      36.265 -18.687 -22.044  0.00  0.00    -0.022 C 
ATOM     15  C   UNL     1      34.596 -20.356 -20.575  0.00  0.00    +0.029 C 
ATOM     16  C   UNL     1      35.938 -20.224 -20.182  0.00  0.00    +0.124 C 
ATOM     17  C   UNL     1      36.754 -19.383 -20.934  0.00  0.00    +0.085 C 
ATOM     18  C   UNL     1      33.810 -21.204 -19.799  0.00  0.00    +0.110 C 
ATOM     19  C   UNL     1      35.563 -21.676 -18.449  0.00  0.00    +0.141 C 
ATOM     20  H   UNL     1      37.029 -22.256 -17.082  0.00  0.00    +0.155 HD
ATOM     21  H   UNL     1      35.501 -22.961 -16.806  0.00  0.00    +0.155 HD
ENDBRANCH   3  12
BRANCH   2  22
ATOM     22  C   UNL     1      33.454 -14.498 -24.554  0.00  0.00    +0.058 C 
ATOM     23  C   UNL     1      33.247 -13.784 -25.733  0.00  0.00    +0.019 C 
ATOM     24  C   UNL     1      33.439 -13.837 -23.326  0.00  0.00    +0.015 C 
ATOM     25  C   UNL     1      33.023 -12.408 -25.685  0.00  0.00    +0.073 C 
ATOM     26  C   UNL     1      33.214 -12.461 -23.278  0.00  0.00    +0.001 C 
ATOM     27  C   UNL     1      33.008 -11.746 -24.458  0.00  0.00    +0.004 C 
BRANCH  25  31
ATOM     28  F   UNL     1      32.380 -10.360 -26.742  0.00  0.00    -0.166 F 
ATOM     29  F   UNL     1      33.923 -11.529 -27.720  0.00  0.00    -0.166 F 
ATOM     30  F   UNL     1      31.861 -12.216 -27.751  0.00  0.00    -0.166 F 
ATOM     31  C   UNL     1      32.803 -11.643 -26.947  0.00  0.00    +0.419 C 
ENDBRANCH  25  31
ENDBRANCH   2  22
TORSDOF 3
ENDMDL
MODEL 4
REMARK VINA RESULT:     -11.5      4.655      8.713
REMARK  Name = 24812719
REMARK  3 active torsions:
REMARK  status: ('A' for Active; 'I' for Inactive)
REMARK    1  A    between atoms: N_2  and  C_22
REMARK    2  A    between atoms: C_3  and  C_12
REMARK    3  A    between atoms: C_25  and  C_31
REMARK                            x       y       z     vdW  Elec       q    Type
REMARK                         _______ _______ _______ _____ _____    ______ ____
ROOT
ATOM      1  O   UNL     1      34.424 -15.556 -22.137  0.00  0.00    -0.269 OA
ATOM      2  N   UNL     1      34.277 -17.480 -23.486  0.00  0.00    -0.233 N 
ATOM      3  C   UNL     1      33.621 -15.220 -24.326  0.00  0.00    +0.046 C 
ATOM      4  C   UNL     1      33.395 -15.747 -25.547  0.00  0.00    -0.016 C 
ATOM      5  C   UNL     1      34.131 -16.100 -23.202  0.00  0.00    +0.256 C 
ATOM      6  C   UNL     1      34.036 -17.948 -24.773  0.00  0.00    +0.072 C 
ATOM      7  C   UNL     1      33.626 -17.155 -25.766  0.00  0.00    +0.012 C 
ATOM      8  C   UNL     1      32.898 -15.002 -26.757  0.00  0.00    +0.031 C 
ENDROOT
BRANCH   3  12
ATOM      9  N   UNL     1      32.803  -9.736 -23.278  0.00  0.00    -0.342 NA
ATOM     10  N   UNL     1      31.217 -10.270 -21.546  0.00  0.00    -0.170 NA
ATOM     11  N   UNL     1      31.735  -8.042 -22.055  0.00  0.00    -0.293 N 
ATOM     12  C   UNL     1      33.402 -13.788 -24.047  0.00  0.00    -0.017 C 
ATOM     13  C   UNL     1      32.510 -13.396 -23.054  0.00  0.00    +0.056 C 
ATOM     14  C   UNL     1      34.087 -12.822 -24.775  0.00  0.00    -0.022 C 
ATOM     15  C   UNL     1      32.306 -12.031 -22.793  0.00  0.00    +0.029 C 
ATOM     16  C   UNL     1      32.992 -11.045 -23.521  0.00  0.00    +0.124 C 
ATOM     17  C   UNL     1      33.878 -11.465 -24.509  0.00  0.00    +0.085 C 
ATOM     18  C   UNL     1      31.428 -11.572 -21.814  0.00  0.00    +0.110 C 
ATOM     19  C   UNL     1      31.926  -9.420 -22.305  0.00  0.00    +0.141 C 
ATOM     20  H   UNL     1      32.230  -7.374 -22.581  0.00  0.00    +0.155 HD
ATOM     21  H   UNL     1      31.107  -7.752 -21.354  0.00  0.00    +0.155 HD
ENDBRANCH   3  12
BRANCH   2  22
ATOM     22  C   UNL     1      34.703 -18.393 -22.442  0.00  0.00    +0.058 C 
ATOM     23  C   UNL     1      33.759 -19.150 -21.749  0.00  0.00    +0.019 C 
ATOM     24  C   UNL     1      36.057 -18.511 -22.129  0.00  0.00    +0.015 C 
ATOM     25  C   UNL     1      34.168 -20.026 -20.745  0.00  0.00    +0.073 C 
ATOM     26  C   UNL     1      36.467 -19.388 -21.125  0.00  0.00    +0.001 C 
ATOM     27  C   UNL     1      35.522 -20.145 -20.432  0.00  0.00    +0.004 C 
BRANCH  25  31
ATOM     28  F   UNL     1      32.680 -21.899 -20.713  0.00  0.00    -0.166 F 
ATOM     29  F   UNL     1      33.634 -21.369 -18.839  0.00  0.00    -0.166 F 
ATOM     30  F   UNL     1      32.060 -20.107 -19.648  0.00  0.00    -0.166 F 
ATOM     31  C   UNL     1      33.158 -20.835 -20.003  0.00  0.00    +0.419 C 
ENDBRANCH  25  31
ENDBRANCH   2  22
TORSDOF 3
ENDMDL
MODEL 5
REMARK VINA RESULT:     -11.4      4.130      8.478
REMARK  Name = 24812719
REMARK  3 active torsions:
REMARK  status: ('A' for Active; 'I' for Inactive)
REMARK    1  A    between atoms: N_2  and  C_22
REMARK    2  A    between atoms: C_3  and  C_12
REMARK    3  A    between atoms: C_25  and  C_31
REMARK                            x       y       z     vdW  Elec       q    Type
REMARK                         _______ _______ _______ _____ _____    ______ ____
ROOT
ATOM      1  O   UNL     1      34.199 -14.347 -23.605  0.00  0.00    -0.269 OA
ATOM      2  N   UNL     1      33.478 -15.728 -25.372  0.00  0.00    -0.233 N 
ATOM      3  C   UNL     1      33.144 -13.252 -25.404  0.00  0.00    +0.046 C 
ATOM      4  C   UNL     1      32.634 -13.344 -26.649  0.00  0.00    -0.016 C 
ATOM      5  C   UNL     1      33.645 -14.494 -24.696  0.00  0.00    +0.256 C 
ATOM      6  C   UNL     1      32.955 -15.742 -26.660  0.00  0.00    +0.072 C 
ATOM      7  C   UNL     1      32.554 -14.635 -27.290  0.00  0.00    +0.012 C 
ATOM      8  C   UNL     1      32.105 -12.204 -27.479  0.00  0.00    +0.031 C 
ENDROOT
BRANCH   3  12
ATOM      9  N   UNL     1      33.568  -8.297 -22.737  0.00  0.00    -0.342 NA
ATOM     10  N   UNL     1      31.543  -8.746 -21.511  0.00  0.00    -0.170 NA
ATOM     11  N   UNL     1      32.728  -6.751 -21.184  0.00  0.00    -0.293 N 
ATOM     12  C   UNL     1      33.248 -11.958 -24.704  0.00  0.00    -0.017 C 
ATOM     13  C   UNL     1      32.286 -11.587 -23.770  0.00  0.00    +0.056 C 
ATOM     14  C   UNL     1      34.310 -11.101 -24.973  0.00  0.00    -0.022 C 
ATOM     15  C   UNL     1      32.392 -10.354 -23.105  0.00  0.00    +0.029 C 
ATOM     16  C   UNL     1      33.459  -9.479 -23.368  0.00  0.00    +0.124 C 
ATOM     17  C   UNL     1      34.407  -9.876 -24.307  0.00  0.00    +0.085 C 
ATOM     18  C   UNL     1      31.463  -9.923 -22.160  0.00  0.00    +0.110 C 
ATOM     19  C   UNL     1      32.605  -7.995 -21.844  0.00  0.00    +0.141 C 
ATOM     20  H   UNL     1      33.487  -6.160 -21.389  0.00  0.00    +0.155 HD
ATOM     21  H   UNL     1      32.054  -6.478 -20.521  0.00  0.00    +0.155 HD
ENDBRANCH   3  12
BRANCH   2  22
ATOM     22  C   UNL     1      33.879 -16.965 -24.729  0.00  0.00    +0.058 C 
ATOM     23  C   UNL     1      34.280 -16.960 -23.394  0.00  0.00    +0.019 C 
ATOM     24  C   UNL     1      33.866 -18.160 -25.449  0.00  0.00    +0.015 C 
ATOM     25  C   UNL     1      34.667 -18.149 -22.777  0.00  0.00    +0.073 C 
ATOM     26  C   UNL     1      34.252 -19.350 -24.832  0.00  0.00    +0.001 C 
ATOM     27  C   UNL     1      34.654 -19.344 -23.496  0.00  0.00    +0.004 C 
BRANCH  25  31
ATOM     28  F   UNL     1      36.385 -18.559 -21.164  0.00  0.00    -0.166 F 
ATOM     29  F   UNL     1      35.033 -16.911 -20.763  0.00  0.00    -0.166 F 
ATOM     30  F   UNL     1      34.332 -18.960 -20.567  0.00  0.00    -0.166 F 
ATOM     31  C   UNL     1      35.097 -18.144 -21.349  0.00  0.00    +0.419 C 
ENDBRANCH  25  31
ENDBRANCH   2  22
TORSDOF 3
ENDMDL
MODEL 6
REMARK VINA RESULT:     -11.2      7.992     12.666
REMARK  Name = 24812719
REMARK  3 active torsions:
REMARK  status: ('A' for Active; 'I' for Inactive)
REMARK    1  A    between atoms: N_2  and  C_22
REMARK    2  A    between atoms: C_3  and  C_12
REMARK    3  A    between atoms: C_25  and  C_31
REMARK                            x       y       z     vdW  Elec       q    Type
REMARK                         _______ _______ _______ _____ _____    ______ ____
ROOT
ATOM      1  O   UNL     1      36.364 -23.014 -16.680  0.00  0.00    -0.269 OA
ATOM      2  N   UNL     1      34.945 -23.963 -15.058  0.00  0.00    -0.233 N 
ATOM      3  C   UNL     1      34.053 -22.787 -17.074  0.00  0.00    +0.046 C 
ATOM      4  C   UNL     1      32.799 -23.118 -16.705  0.00  0.00    -0.016 C 
ATOM      5  C   UNL     1      35.235 -23.249 -16.246  0.00  0.00    +0.256 C 
ATOM      6  C   UNL     1      33.626 -24.278 -14.749  0.00  0.00    +0.072 C 
ATOM      7  C   UNL     1      32.595 -23.900 -15.508  0.00  0.00    +0.012 C 
ATOM      8  C   UNL     1      31.532 -22.740 -17.425  0.00  0.00    +0.031 C 
ENDROOT
BRANCH   3  12
ATOM      9  N   UNL     1      35.095 -19.741 -21.709  0.00  0.00    -0.342 NA
ATOM     10  N   UNL     1      32.733 -19.467 -22.100  0.00  0.00    -0.170 NA
ATOM     11  N   UNL     1      34.308 -18.519 -23.552  0.00  0.00    -0.293 N 
ATOM     12  C   UNL     1      34.318 -21.990 -18.287  0.00  0.00    -0.017 C 
ATOM     13  C   UNL     1      33.262 -21.487 -19.040  0.00  0.00    +0.056 C 
ATOM     14  C   UNL     1      35.626 -21.737 -18.686  0.00  0.00    -0.022 C 
ATOM     15  C   UNL     1      33.520 -20.728 -20.194  0.00  0.00    +0.029 C 
ATOM     16  C   UNL     1      34.837 -20.465 -20.607  0.00  0.00    +0.124 C 
ATOM     17  C   UNL     1      35.875 -20.981 -19.835  0.00  0.00    +0.085 C 
ATOM     18  C   UNL     1      32.509 -20.196 -20.990  0.00  0.00    +0.110 C 
ATOM     19  C   UNL     1      34.029 -19.281 -22.395  0.00  0.00    +0.141 C 
ATOM     20  H   UNL     1      35.241 -18.351 -23.817  0.00  0.00    +0.155 HD
ATOM     21  H   UNL     1      33.570 -18.157 -24.093  0.00  0.00    +0.155 HD
ENDBRANCH   3  12
BRANCH   2  22
ATOM     22  C   UNL     1      36.023 -24.385 -14.185  0.00  0.00    +0.058 C 
ATOM     23  C   UNL     1      37.255 -24.751 -14.724  0.00  0.00    +0.019 C 
ATOM     24  C   UNL     1      35.826 -24.427 -12.805  0.00  0.00    +0.015 C 
ATOM     25  C   UNL     1      38.292 -25.157 -13.885  0.00  0.00    +0.073 C 
ATOM     26  C   UNL     1      36.863 -24.833 -11.964  0.00  0.00    +0.001 C 
ATOM     27  C   UNL     1      38.096 -25.199 -12.505  0.00  0.00    +0.004 C 
BRANCH  25  31
ATOM     28  F   UNL     1      39.908 -26.873 -14.298  0.00  0.00    -0.166 F 
ATOM     29  F   UNL     1      39.706 -25.328 -15.807  0.00  0.00    -0.166 F 
ATOM     30  F   UNL     1      40.652 -24.867 -13.904  0.00  0.00    -0.166 F 
ATOM     31  C   UNL     1      39.610 -25.550 -14.462  0.00  0.00    +0.419 C 
ENDBRANCH  25  31
ENDBRANCH   2  22
TORSDOF 3
ENDMDL
MODEL 7
REMARK VINA RESULT:     -10.9      2.046      3.250
REMARK  Name = 24812719
REMARK  3 active torsions:
REMARK  status: ('A' for Active; 'I' for Inactive)
REMARK    1  A    between atoms: N_2  and  C_22
REMARK    2  A    between atoms: C_3  and  C_12
REMARK    3  A    between atoms: C_25  and  C_31
REMARK                            x       y       z     vdW  Elec       q    Type
REMARK                         _______ _______ _______ _____ _____    ______ ____
ROOT
ATOM      1  O   UNL     1      34.164 -13.439 -23.490  0.00  0.00    -0.269 OA
ATOM      2  N   UNL     1      33.499 -12.218 -25.391  0.00  0.00    -0.233 N 
ATOM      3  C   UNL     1      33.377 -14.713 -25.308  0.00  0.00    +0.046 C 
ATOM      4  C   UNL     1      32.797 -14.718 -26.526  0.00  0.00    -0.016 C 
ATOM      5  C   UNL     1      33.735 -13.398 -24.644  0.00  0.00    +0.256 C 
ATOM      6  C   UNL     1      32.886 -12.302 -26.636  0.00  0.00    +0.072 C 
ATOM      7  C   UNL     1      32.537 -13.464 -27.194  0.00  0.00    +0.012 C 
ATOM      8  C   UNL     1      32.380 -15.936 -27.306  0.00  0.00    +0.031 C 
ENDROOT
BRANCH   3  12
ATOM      9  N   UNL     1      34.461 -19.514 -22.548  0.00  0.00    -0.342 NA
ATOM     10  N   UNL     1      35.356 -18.278 -20.684  0.00  0.00    -0.170 NA
ATOM     11  N   UNL     1      35.285 -20.620 -20.649  0.00  0.00    -0.293 N 
ATOM     12  C   UNL     1      33.664 -15.964 -24.582  0.00  0.00    -0.017 C 
ATOM     13  C   UNL     1      34.242 -15.923 -23.317  0.00  0.00    +0.056 C 
ATOM     14  C   UNL     1      33.356 -17.192 -25.156  0.00  0.00    -0.022 C 
ATOM     15  C   UNL     1      34.511 -17.118 -22.629  0.00  0.00    +0.029 C 
ATOM     16  C   UNL     1      34.206 -18.365 -23.198  0.00  0.00    +0.124 C 
ATOM     17  C   UNL     1      33.628 -18.376 -24.465  0.00  0.00    +0.085 C 
ATOM     18  C   UNL     1      35.089 -17.146 -21.362  0.00  0.00    +0.110 C 
ATOM     19  C   UNL     1      35.022 -19.408 -21.327  0.00  0.00    +0.141 C 
ATOM     20  H   UNL     1      35.060 -21.478 -21.074  0.00  0.00    +0.155 HD
ATOM     21  H   UNL     1      35.693 -20.604 -19.754  0.00  0.00    +0.155 HD
ENDBRANCH   3  12
BRANCH   2  22
ATOM     22  C   UNL     1      33.872 -10.928 -24.843  0.00  0.00    +0.058 C 
ATOM     23  C   UNL     1      33.036 -10.290 -23.929  0.00  0.00    +0.019 C 
ATOM     24  C   UNL     1      35.067 -10.325 -25.234  0.00  0.00    +0.015 C 
ATOM     25  C   UNL     1      33.394  -9.049 -23.404  0.00  0.00    +0.073 C 
ATOM     26  C   UNL     1      35.426  -9.083 -24.709  0.00  0.00    +0.001 C 
ATOM     27  C   UNL     1      34.589  -8.445 -23.794  0.00  0.00    +0.004 C 
BRANCH  25  31
ATOM     28  F   UNL     1      31.255  -8.092 -22.920  0.00  0.00    -0.166 F 
ATOM     29  F   UNL     1      32.279  -9.088 -21.288  0.00  0.00    -0.166 F 
ATOM     30  F   UNL     1      32.998  -7.166 -22.007  0.00  0.00    -0.166 F 
ATOM     31  C   UNL     1      32.499  -8.365 -22.426  0.00  0.00    +0.419 C 
ENDBRANCH  25  31
ENDBRANCH   2  22
TORSDOF 3
ENDMDL
MODEL 8
REMARK VINA RESULT:     -10.8      4.892      8.946
REMARK  Name = 24812719
REMARK  3 active torsions:
REMARK  status: ('A' for Active; 'I' for Inactive)
REMARK    1  A    between atoms: N_2  and  C_22
REMARK    2  A    between atoms: C_3  and  C_12
REMARK    3  A    between atoms: C_25  and  C_31
REMARK                            x       y       z     vdW  Elec       q    Type
REMARK                         _______ _______ _______ _____ _____    ______ ____
ROOT
ATOM      1  O   UNL     1      33.711 -12.832 -23.108  0.00  0.00    -0.269 OA
ATOM      2  N   UNL     1      33.270 -13.724 -25.242  0.00  0.00    -0.233 N 
ATOM      3  C   UNL     1      33.015 -11.289 -24.746  0.00  0.00    +0.046 C 
ATOM      4  C   UNL     1      32.727 -11.061 -26.044  0.00  0.00    -0.016 C 
ATOM      5  C   UNL     1      33.351 -12.691 -24.278  0.00  0.00    +0.256 C 
ATOM      6  C   UNL     1      32.978 -13.411 -26.565  0.00  0.00    +0.072 C 
ATOM      7  C   UNL     1      32.724 -12.166 -26.974  0.00  0.00    +0.012 C 
ATOM      8  C   UNL     1      32.383  -9.730 -26.657  0.00  0.00    +0.031 C 
ENDROOT
BRANCH   3  12
ATOM      9  N   UNL     1      33.105  -7.103 -20.962  0.00  0.00    -0.342 NA
ATOM     10  N   UNL     1      31.231  -8.072 -19.798  0.00  0.00    -0.170 NA
ATOM     11  N   UNL     1      32.219  -6.087 -19.041  0.00  0.00    -0.293 N 
ATOM     12  C   UNL     1      33.033 -10.197 -23.754  0.00  0.00    -0.017 C 
ATOM     13  C   UNL     1      32.106 -10.179 -22.716  0.00  0.00    +0.056 C 
ATOM     14  C   UNL     1      33.976  -9.180 -23.849  0.00  0.00    -0.022 C 
ATOM     15  C   UNL     1      32.128  -9.137 -21.773  0.00  0.00    +0.029 C 
ATOM     16  C   UNL     1      33.076  -8.105 -21.859  0.00  0.00    +0.124 C 
ATOM     17  C   UNL     1      33.991  -8.148 -22.907  0.00  0.00    +0.085 C 
ATOM     18  C   UNL     1      31.229  -9.060 -20.712  0.00  0.00    +0.110 C 
ATOM     19  C   UNL     1      32.181  -7.142 -19.981  0.00  0.00    +0.141 C 
ATOM     20  H   UNL     1      32.895  -5.377 -19.126  0.00  0.00    +0.155 HD
ATOM     21  H   UNL     1      31.569  -6.063 -18.302  0.00  0.00    +0.155 HD
ENDBRANCH   3  12
BRANCH   2  22
ATOM     22  C   UNL     1      33.519 -15.099 -24.852  0.00  0.00    +0.058 C 
ATOM     23  C   UNL     1      32.908 -16.142 -25.546  0.00  0.00    +0.019 C 
ATOM     24  C   UNL     1      34.368 -15.377 -23.781  0.00  0.00    +0.015 C 
ATOM     25  C   UNL     1      33.146 -17.464 -25.170  0.00  0.00    +0.073 C 
ATOM     26  C   UNL     1      34.607 -16.699 -23.405  0.00  0.00    +0.001 C 
ATOM     27  C   UNL     1      33.995 -17.743 -24.099  0.00  0.00    +0.004 C 
BRANCH  25  31
ATOM     28  F   UNL     1      31.345 -19.032 -25.321  0.00  0.00    -0.166 F 
ATOM     29  F   UNL     1      32.128 -18.252 -27.187  0.00  0.00    -0.166 F 
ATOM     30  F   UNL     1      33.298 -19.675 -26.031  0.00  0.00    -0.166 F 
ATOM     31  C   UNL     1      32.491 -18.581 -25.911  0.00  0.00    +0.419 C 
ENDBRANCH  25  31
ENDBRANCH   2  22
TORSDOF 3
ENDMDL
MODEL 9
REMARK VINA RESULT:     -10.7      7.428     11.746
REMARK  Name = 24812719
REMARK  3 active torsions:
REMARK  status: ('A' for Active; 'I' for Inactive)
REMARK    1  A    between atoms: N_2  and  C_22
REMARK    2  A    between atoms: C_3  and  C_12
REMARK    3  A    between atoms: C_25  and  C_31
REMARK                            x       y       z     vdW  Elec       q    Type
REMARK                         _______ _______ _______ _____ _____    ______ ____
ROOT
ATOM      1  O   UNL     1      31.922 -22.458 -17.824  0.00  0.00    -0.269 OA
ATOM      2  N   UNL     1      32.477 -23.634 -15.861  0.00  0.00    -0.233 N 
ATOM      3  C   UNL     1      34.211 -22.520 -17.273  0.00  0.00    +0.046 C 
ATOM      4  C   UNL     1      35.154 -22.857 -16.370  0.00  0.00    -0.016 C 
ATOM      5  C   UNL     1      32.760 -22.880 -17.025  0.00  0.00    +0.256 C 
ATOM      6  C   UNL     1      33.501 -23.934 -14.969  0.00  0.00    +0.072 C 
ATOM      7  C   UNL     1      34.770 -23.576 -15.178  0.00  0.00    +0.012 C 
ATOM      8  C   UNL     1      36.627 -22.565 -16.472  0.00  0.00    +0.031 C 
ENDROOT
BRANCH   3  12
ATOM      9  N   UNL     1      35.529 -19.710 -21.986  0.00  0.00    -0.342 NA
ATOM     10  N   UNL     1      33.200 -19.252 -22.403  0.00  0.00    -0.170 NA
ATOM     11  N   UNL     1      34.857 -18.483 -23.870  0.00  0.00    -0.293 N 
ATOM     12  C   UNL     1      34.548 -21.785 -18.507  0.00  0.00    -0.017 C 
ATOM     13  C   UNL     1      33.542 -21.218 -19.282  0.00  0.00    +0.056 C 
ATOM     14  C   UNL     1      35.875 -21.653 -18.902  0.00  0.00    -0.022 C 
ATOM     15  C   UNL     1      33.869 -20.517 -20.455  0.00  0.00    +0.029 C 
ATOM     16  C   UNL     1      35.205 -20.378 -20.865  0.00  0.00    +0.124 C 
ATOM     17  C   UNL     1      36.192 -20.955 -20.070  0.00  0.00    +0.085 C 
ATOM     18  C   UNL     1      32.911 -19.927 -21.275  0.00  0.00    +0.110 C 
ATOM     19  C   UNL     1      34.509 -19.184 -22.694  0.00  0.00    +0.141 C 
ATOM     20  H   UNL     1      35.802 -18.401 -24.132  0.00  0.00    +0.155 HD
ATOM     21  H   UNL     1      34.154 -18.076 -24.427  0.00  0.00    +0.155 HD
ENDBRANCH   3  12
BRANCH   2  22
ATOM     22  C   UNL     1      31.119 -24.066 -15.590  0.00  0.00    +0.058 C 
ATOM     23  C   UNL     1      30.045 -23.396 -16.174  0.00  0.00    +0.019 C 
ATOM     24  C   UNL     1      30.888 -25.150 -14.743  0.00  0.00    +0.015 C 
ATOM     25  C   UNL     1      28.739 -23.811 -15.913  0.00  0.00    +0.073 C 
ATOM     26  C   UNL     1      29.582 -25.565 -14.482  0.00  0.00    +0.001 C 
ATOM     27  C   UNL     1      28.507 -24.895 -15.066  0.00  0.00    +0.004 C 
BRANCH  25  31
ATOM     28  F   UNL     1      26.616 -22.741 -15.646  0.00  0.00    -0.166 F 
ATOM     29  F   UNL     1      27.942 -21.930 -17.158  0.00  0.00    -0.166 F 
ATOM     30  F   UNL     1      26.960 -23.841 -17.490  0.00  0.00    -0.166 F 
ATOM     31  C   UNL     1      27.589 -23.094 -16.537  0.00  0.00    +0.419 C 
ENDBRANCH  25  31
ENDBRANCH   2  22
TORSDOF 3
ENDMDL
