MODEL 1
REMARK VINA RESULT:     -12.0      0.000      0.000
REMARK  Name = 9801640
REMARK  6 active torsions:
REMARK  status: ('A' for Active; 'I' for Inactive)
REMARK    1  A    between atoms: C_1  and  C_2
REMARK    2  A    between atoms: C_1  and  C_16
REMARK    3  A    between atoms: C_2  and  N_3
REMARK    4  A    between atoms: C_7  and  C_11
REMARK    5  A    between atoms: C_16  and  C_17
REMARK    6  A    between atoms: C_17  and  N_21
REMARK                            x       y       z     vdW  Elec       q    Type
REMARK                         _______ _______ _______ _____ _____    ______ ____
ROOT
ATOM      1  C   UNL     1      35.289 -20.975 -20.089  0.00  0.00    -0.021 C 
ENDROOT
BRANCH   1   2
ATOM      2  C   UNL     1      34.301 -21.755 -19.223  0.00  0.00    -0.077 C 
BRANCH   2   3
ATOM      3  N   UNL     1      35.007 -22.451 -18.150  0.00  0.00    +0.390 N 
ATOM      4  C   UNL     1      36.095 -21.629 -17.611  0.00  0.00    -0.072 C 
ATOM      5  C   UNL     1      34.074 -22.844 -17.081  0.00  0.00    -0.051 C 
ATOM      6  C   UNL     1      36.919 -22.446 -16.606  0.00  0.00    +0.005 C 
ATOM      7  C   UNL     1      36.062 -23.178 -15.596  0.00  0.00    -0.013 C 
ATOM      8  C   UNL     1      34.749 -23.349 -15.834  0.00  0.00    -0.052 C 
ATOM      9  H   UNL     1      35.419 -23.297 -18.542  0.00  0.00    -0.079 HD
BRANCH   7  11
ATOM     10  N   UNL     1      36.255 -23.187 -13.197  0.00  0.00    -0.244 NA
ATOM     11  C   UNL     1      36.711 -23.693 -14.366  0.00  0.00    +0.077 C 
ATOM     12  C   UNL     1      37.722 -24.639 -14.457  0.00  0.00    +0.019 C 
ATOM     13  C   UNL     1      38.300 -25.092 -13.276  0.00  0.00    +0.003 C 
ATOM     14  C   UNL     1      36.842 -23.651 -12.070  0.00  0.00    +0.099 C 
ATOM     15  C   UNL     1      37.858 -24.593 -12.056  0.00  0.00    +0.021 C 
ENDBRANCH   7  11
ENDBRANCH   2   3
ENDBRANCH   1   2
BRANCH   1  16
ATOM     16  C   UNL     1      34.587 -19.838 -20.838  0.00  0.00    +0.020 C 
BRANCH  16  17
ATOM     17  C   UNL     1      35.569 -18.835 -21.436  0.00  0.00    +0.099 C 
BRANCH  17  21
ATOM     18 CL   UNL     1      34.750 -16.166 -20.525  0.00  0.00    -0.062 Cl
ATOM     19  O   UNL     1      34.621 -15.785 -24.461  0.00  0.00    -0.448 OA
ATOM     20  O   UNL     1      35.026 -19.781 -23.978  0.00  0.00    -0.269 OA
ATOM     21  N   UNL     1      34.952 -17.997 -22.474  0.00  0.00    -0.244 N 
ATOM     22  C   UNL     1      34.638 -18.646 -23.689  0.00  0.00    +0.256 C 
ATOM     23  C   UNL     1      34.730 -16.649 -22.197  0.00  0.00    +0.151 C 
ATOM     24  C   UNL     1      33.710 -18.022 -24.662  0.00  0.00    +0.088 C 
ATOM     25  C   UNL     1      33.743 -16.675 -25.010  0.00  0.00    +0.150 C 
ATOM     26  C   UNL     1      34.571 -15.673 -23.100  0.00  0.00    +0.206 C 
ATOM     27  C   UNL     1      32.791 -18.866 -25.307  0.00  0.00    +0.008 C 
ATOM     28  C   UNL     1      32.892 -16.175 -26.003  0.00  0.00    +0.038 C 
ATOM     29  C   UNL     1      31.927 -18.364 -26.283  0.00  0.00    +0.000 C 
ATOM     30  C   UNL     1      31.981 -17.019 -26.633  0.00  0.00    +0.003 C 
ENDBRANCH  17  21
ENDBRANCH  16  17
ENDBRANCH   1  16
TORSDOF 6
ENDMDL
MODEL 2
REMARK VINA RESULT:     -11.5      2.136      3.165
REMARK  Name = 9801640
REMARK  6 active torsions:
REMARK  status: ('A' for Active; 'I' for Inactive)
REMARK    1  A    between atoms: C_1  and  C_2
REMARK    2  A    between atoms: C_1  and  C_16
REMARK    3  A    between atoms: C_2  and  N_3
REMARK    4  A    between atoms: C_7  and  C_11
REMARK    5  A    between atoms: C_16  and  C_17
REMARK    6  A    between atoms: C_17  and  N_21
REMARK                            x       y       z     vdW  Elec       q    Type
REMARK                         _______ _______ _______ _____ _____    ______ ____
ROOT
ATOM      1  C   UNL     1      35.396 -21.108 -20.682  0.00  0.00    -0.021 C 
ENDROOT
BRANCH   1   2
ATOM      2  C   UNL     1      36.008 -21.359 -19.304  0.00  0.00    -0.077 C 
BRANCH   2   3
ATOM      3  N   UNL     1      34.963 -21.694 -18.339  0.00  0.00    +0.390 N 
ATOM      4  C   UNL     1      33.928 -22.535 -18.949  0.00  0.00    -0.072 C 
ATOM      5  C   UNL     1      35.537 -22.354 -17.156  0.00  0.00    -0.051 C 
ATOM      6  C   UNL     1      32.766 -22.731 -17.964  0.00  0.00    +0.005 C 
ATOM      7  C   UNL     1      33.227 -23.126 -16.579  0.00  0.00    -0.013 C 
ATOM      8  C   UNL     1      34.513 -22.946 -16.226  0.00  0.00    -0.052 C 
ATOM      9  H   UNL     1      34.522 -20.825 -18.039  0.00  0.00    -0.079 HD
BRANCH   7  11
ATOM     10  N   UNL     1      32.728 -24.321 -14.549  0.00  0.00    -0.244 NA
ATOM     11  C   UNL     1      32.230 -23.701 -15.644  0.00  0.00    +0.077 C 
ATOM     12  C   UNL     1      30.874 -23.585 -15.916  0.00  0.00    +0.019 C 
ATOM     13  C   UNL     1      29.977 -24.141 -15.010  0.00  0.00    +0.003 C 
ATOM     14  C   UNL     1      31.825 -24.849 -13.692  0.00  0.00    +0.099 C 
ATOM     15  C   UNL     1      30.454 -24.786 -13.875  0.00  0.00    +0.021 C 
ENDBRANCH   7  11
ENDBRANCH   2   3
ENDBRANCH   1   2
BRANCH   1  16
ATOM     16  C   UNL     1      34.768 -19.713 -20.760  0.00  0.00    +0.020 C 
BRANCH  16  17
ATOM     17  C   UNL     1      35.697 -18.686 -21.400  0.00  0.00    +0.099 C 
BRANCH  17  21
ATOM     18 CL   UNL     1      34.753 -16.054 -20.499  0.00  0.00    -0.062 Cl
ATOM     19  O   UNL     1      34.553 -15.716 -24.437  0.00  0.00    -0.448 OA
ATOM     20  O   UNL     1      35.170 -19.681 -23.926  0.00  0.00    -0.269 OA
ATOM     21  N   UNL     1      35.024 -17.890 -22.436  0.00  0.00    -0.244 N 
ATOM     22  C   UNL     1      34.728 -18.565 -23.641  0.00  0.00    +0.256 C 
ATOM     23  C   UNL     1      34.737 -16.553 -22.168  0.00  0.00    +0.151 C 
ATOM     24  C   UNL     1      33.756 -17.998 -24.606  0.00  0.00    +0.088 C 
ATOM     25  C   UNL     1      33.715 -16.655 -24.967  0.00  0.00    +0.150 C 
ATOM     26  C   UNL     1      34.515 -15.595 -23.076  0.00  0.00    +0.206 C 
ATOM     27  C   UNL     1      32.873 -18.894 -25.232  0.00  0.00    +0.008 C 
ATOM     28  C   UNL     1      32.826 -16.208 -25.952  0.00  0.00    +0.038 C 
ATOM     29  C   UNL     1      31.972 -18.447 -26.200  0.00  0.00    +0.000 C 
ATOM     30  C   UNL     1      31.951 -17.104 -26.562  0.00  0.00    +0.003 C 
ENDBRANCH  17  21
ENDBRANCH  16  17
ENDBRANCH   1  16
TORSDOF 6
ENDMDL
MODEL 3
REMARK VINA RESULT:     -11.3      4.744      8.004
REMARK  Name = 9801640
REMARK  6 active torsions:
REMARK  status: ('A' for Active; 'I' for Inactive)
REMARK    1  A    between atoms: C_1  and  C_2
REMARK    2  A    between atoms: C_1  and  C_16
REMARK    3  A    between atoms: C_2  and  N_3
REMARK    4  A    between atoms: C_7  and  C_11
REMARK    5  A    between atoms: C_16  and  C_17
REMARK    6  A    between atoms: C_17  and  N_21
REMARK                            x       y       z     vdW  Elec       q    Type
REMARK                         _______ _______ _______ _____ _____    ______ ____
ROOT
ATOM      1  C   UNL     1      33.622 -15.137 -24.064  0.00  0.00    -0.021 C 
ENDROOT
BRANCH   1   2
ATOM      2  C   UNL     1      34.940 -15.875 -24.295  0.00  0.00    -0.077 C 
BRANCH   2   3
ATOM      3  N   UNL     1      35.040 -17.028 -23.404  0.00  0.00    +0.390 N 
ATOM      4  C   UNL     1      34.893 -16.627 -22.001  0.00  0.00    -0.072 C 
ATOM      5  C   UNL     1      34.042 -18.050 -23.759  0.00  0.00    -0.051 C 
ATOM      6  C   UNL     1      35.167 -17.828 -21.083  0.00  0.00    +0.005 C 
ATOM      7  C   UNL     1      34.429 -19.077 -21.509  0.00  0.00    -0.013 C 
ATOM      8  C   UNL     1      33.914 -19.159 -22.750  0.00  0.00    -0.052 C 
ATOM      9  H   UNL     1      35.968 -17.433 -23.518  0.00  0.00    -0.079 HD
BRANCH   7  11
ATOM     10  N   UNL     1      35.457 -20.652 -20.007  0.00  0.00    -0.244 NA
ATOM     11  C   UNL     1      34.301 -20.186 -20.533  0.00  0.00    +0.077 C 
ATOM     12  C   UNL     1      33.048 -20.684 -20.208  0.00  0.00    +0.019 C 
ATOM     13  C   UNL     1      32.978 -21.725 -19.287  0.00  0.00    +0.003 C 
ATOM     14  C   UNL     1      35.349 -21.665 -19.117  0.00  0.00    +0.099 C 
ATOM     15  C   UNL     1      34.146 -22.230 -18.727  0.00  0.00    +0.021 C 
ENDBRANCH   7  11
ENDBRANCH   2   3
ENDBRANCH   1   2
BRANCH   1  16
ATOM     16  C   UNL     1      33.868 -13.723 -23.528  0.00  0.00    +0.020 C 
BRANCH  16  17
ATOM     17  C   UNL     1      33.160 -12.653 -24.351  0.00  0.00    +0.099 C 
BRANCH  17  21
ATOM     18 CL   UNL     1      34.892 -10.331 -24.838  0.00  0.00    -0.062 Cl
ATOM     19  O   UNL     1      31.845  -8.713 -22.900  0.00  0.00    -0.448 OA
ATOM     20  O   UNL     1      31.201 -12.675 -22.399  0.00  0.00    -0.269 OA
ATOM     21  N   UNL     1      32.826 -11.462 -23.556  0.00  0.00    -0.244 N 
ATOM     22  C   UNL     1      31.879 -11.653 -22.524  0.00  0.00    +0.256 C 
ATOM     23  C   UNL     1      33.446 -10.255 -23.870  0.00  0.00    +0.151 C 
ATOM     24  C   UNL     1      31.725 -10.648 -21.446  0.00  0.00    +0.088 C 
ATOM     25  C   UNL     1      31.698  -9.274 -21.663  0.00  0.00    +0.150 C 
ATOM     26  C   UNL     1      33.000  -9.032 -23.557  0.00  0.00    +0.206 C 
ATOM     27  C   UNL     1      31.532 -11.131 -20.140  0.00  0.00    +0.008 C 
ATOM     28  C   UNL     1      31.460  -8.389 -20.605  0.00  0.00    +0.038 C 
ATOM     29  C   UNL     1      31.315 -10.248 -19.080  0.00  0.00    +0.000 C 
ATOM     30  C   UNL     1      31.276  -8.877 -19.313  0.00  0.00    +0.003 C 
ENDBRANCH  17  21
ENDBRANCH  16  17
ENDBRANCH   1  16
TORSDOF 6
ENDMDL
MODEL 4
REMARK VINA RESULT:     -11.1      4.567      8.068
REMARK  Name = 9801640
REMARK  6 active torsions:
REMARK  status: ('A' for Active; 'I' for Inactive)
REMARK    1  A    between atoms: C_1  and  C_2
REMARK    2  A    between atoms: C_1  and  C_16
REMARK    3  A    between atoms: C_2  and  N_3
REMARK    4  A    between atoms: C_7  and  C_11
REMARK    5  A    between atoms: C_16  and  C_17
REMARK    6  A    between atoms: C_17  and  N_21
REMARK                            x       y       z     vdW  Elec       q    Type
REMARK                         _______ _______ _______ _____ _____    ______ ____
ROOT
ATOM      1  C   UNL     1      33.094 -15.158 -25.271  0.00  0.00    -0.021 C 
ENDROOT
BRANCH   1   2
ATOM      2  C   UNL     1      34.392 -15.631 -24.616  0.00  0.00    -0.077 C 
BRANCH   2   3
ATOM      3  N   UNL     1      34.109 -16.655 -23.614  0.00  0.00    +0.390 N 
ATOM      4  C   UNL     1      34.280 -18.001 -24.169  0.00  0.00    -0.072 C 
ATOM      5  C   UNL     1      34.959 -16.471 -22.426  0.00  0.00    -0.051 C 
ATOM      6  C   UNL     1      33.817 -19.050 -23.146  0.00  0.00    +0.005 C 
ATOM      7  C   UNL     1      34.380 -18.814 -21.763  0.00  0.00    -0.013 C 
ATOM      8  C   UNL     1      34.906 -17.615 -21.450  0.00  0.00    -0.052 C 
ATOM      9  H   UNL     1      33.135 -16.555 -23.329  0.00  0.00    -0.079 HD
BRANCH   7  11
ATOM     10  N   UNL     1      35.516 -20.348 -20.295  0.00  0.00    -0.244 NA
ATOM     11  C   UNL     1      34.326 -19.926 -20.783  0.00  0.00    +0.077 C 
ATOM     12  C   UNL     1      33.104 -20.472 -20.417  0.00  0.00    +0.019 C 
ATOM     13  C   UNL     1      33.104 -21.513 -19.496  0.00  0.00    +0.003 C 
ATOM     14  C   UNL     1      35.475 -21.363 -19.402  0.00  0.00    +0.099 C 
ATOM     15  C   UNL     1      34.308 -21.973 -18.974  0.00  0.00    +0.021 C 
ENDBRANCH   7  11
ENDBRANCH   2   3
ENDBRANCH   1   2
BRANCH   1  16
ATOM     16  C   UNL     1      32.916 -13.645 -25.112  0.00  0.00    +0.020 C 
BRANCH  16  17
ATOM     17  C   UNL     1      33.739 -13.075 -23.961  0.00  0.00    +0.099 C 
BRANCH  17  21
ATOM     18 CL   UNL     1      34.917 -10.564 -24.928  0.00  0.00    -0.062 Cl
ATOM     19  O   UNL     1      31.566  -9.319 -23.231  0.00  0.00    -0.448 OA
ATOM     20  O   UNL     1      31.813 -13.158 -21.978  0.00  0.00    -0.269 OA
ATOM     21  N   UNL     1      33.140 -11.859 -23.392  0.00  0.00    -0.244 N 
ATOM     22  C   UNL     1      32.249 -12.054 -22.314  0.00  0.00    +0.256 C 
ATOM     23  C   UNL     1      33.481 -10.626 -23.946  0.00  0.00    +0.151 C 
ATOM     24  C   UNL     1      31.863 -10.922 -21.437  0.00  0.00    +0.088 C 
ATOM     25  C   UNL     1      31.535  -9.655 -21.907  0.00  0.00    +0.150 C 
ATOM     26  C   UNL     1      32.770  -9.495 -23.853  0.00  0.00    +0.206 C 
ATOM     27  C   UNL     1      31.768 -11.179 -20.059  0.00  0.00    +0.008 C 
ATOM     28  C   UNL     1      31.094  -8.660 -21.026  0.00  0.00    +0.038 C 
ATOM     29  C   UNL     1      31.350 -10.182 -19.176  0.00  0.00    +0.000 C 
ATOM     30  C   UNL     1      31.009  -8.923 -19.661  0.00  0.00    +0.003 C 
ENDBRANCH  17  21
ENDBRANCH  16  17
ENDBRANCH   1  16
TORSDOF 6
ENDMDL
MODEL 5
REMARK VINA RESULT:     -11.0      3.696     11.347
REMARK  Name = 9801640
REMARK  6 active torsions:
REMARK  status: ('A' for Active; 'I' for Inactive)
REMARK    1  A    between atoms: C_1  and  C_2
REMARK    2  A    between atoms: C_1  and  C_16
REMARK    3  A    between atoms: C_2  and  N_3
REMARK    4  A    between atoms: C_7  and  C_11
REMARK    5  A    between atoms: C_16  and  C_17
REMARK    6  A    between atoms: C_17  and  N_21
REMARK                            x       y       z     vdW  Elec       q    Type
REMARK                         _______ _______ _______ _____ _____    ______ ____
ROOT
ATOM      1  C   UNL     1      34.400 -22.267 -19.001  0.00  0.00    -0.021 C 
ENDROOT
BRANCH   1   2
ATOM      2  C   UNL     1      35.646 -21.544 -19.508  0.00  0.00    -0.077 C 
BRANCH   2   3
ATOM      3  N   UNL     1      35.309 -20.690 -20.645  0.00  0.00    +0.390 N 
ATOM      4  C   UNL     1      33.925 -20.215 -20.558  0.00  0.00    -0.072 C 
ATOM      5  C   UNL     1      36.242 -19.556 -20.740  0.00  0.00    -0.051 C 
ATOM      6  C   UNL     1      33.550 -19.461 -21.843  0.00  0.00    +0.005 C 
ATOM      7  C   UNL     1      34.588 -18.442 -22.254  0.00  0.00    -0.013 C 
ATOM      8  C   UNL     1      35.827 -18.501 -21.730  0.00  0.00    -0.052 C 
ATOM      9  H   UNL     1      35.396 -21.248 -21.494  0.00  0.00    -0.079 HD
BRANCH   7  11
ATOM     10  N   UNL     1      33.533 -17.834 -24.330  0.00  0.00    -0.244 NA
ATOM     11  C   UNL     1      34.202 -17.401 -23.237  0.00  0.00    +0.077 C 
ATOM     12  C   UNL     1      34.530 -16.072 -23.008  0.00  0.00    +0.019 C 
ATOM     13  C   UNL     1      34.147 -15.132 -23.958  0.00  0.00    +0.003 C 
ATOM     14  C   UNL     1      33.178 -16.891 -25.233  0.00  0.00    +0.099 C 
ATOM     15  C   UNL     1      33.458 -15.542 -25.095  0.00  0.00    +0.021 C 
ENDBRANCH   7  11
ENDBRANCH   2   3
ENDBRANCH   1   2
BRANCH   1  16
ATOM     16  C   UNL     1      34.381 -22.325 -17.470  0.00  0.00    +0.020 C 
BRANCH  16  17
ATOM     17  C   UNL     1      33.678 -23.569 -16.938  0.00  0.00    +0.099 C 
BRANCH  17  21
ATOM     18 CL   UNL     1      31.342 -22.771 -15.347  0.00  0.00    -0.062 Cl
ATOM     19  O   UNL     1      33.478 -24.828 -12.727  0.00  0.00    -0.448 OA
ATOM     20  O   UNL     1      36.073 -24.349 -15.794  0.00  0.00    -0.269 OA
ATOM     21  N   UNL     1      33.843 -23.729 -15.486  0.00  0.00    -0.244 N 
ATOM     22  C   UNL     1      35.150 -24.029 -15.040  0.00  0.00    +0.256 C 
ATOM     23  C   UNL     1      32.724 -23.585 -14.668  0.00  0.00    +0.151 C 
ATOM     24  C   UNL     1      35.518 -23.866 -13.614  0.00  0.00    +0.088 C 
ATOM     25  C   UNL     1      34.712 -24.267 -12.554  0.00  0.00    +0.150 C 
ATOM     26  C   UNL     1      32.583 -24.072 -13.429  0.00  0.00    +0.206 C 
ATOM     27  C   UNL     1      36.786 -23.329 -13.334  0.00  0.00    +0.008 C 
ATOM     28  C   UNL     1      35.165 -24.161 -11.234  0.00  0.00    +0.038 C 
ATOM     29  C   UNL     1      37.231 -23.202 -12.017  0.00  0.00    +0.000 C 
ATOM     30  C   UNL     1      36.422 -23.623 -10.967  0.00  0.00    +0.003 C 
ENDBRANCH  17  21
ENDBRANCH  16  17
ENDBRANCH   1  16
TORSDOF 6
ENDMDL
MODEL 6
REMARK VINA RESULT:     -10.9      4.137     10.417
REMARK  Name = 9801640
REMARK  6 active torsions:
REMARK  status: ('A' for Active; 'I' for Inactive)
REMARK    1  A    between atoms: C_1  and  C_2
REMARK    2  A    between atoms: C_1  and  C_16
REMARK    3  A    between atoms: C_2  and  N_3
REMARK    4  A    between atoms: C_7  and  C_11
REMARK    5  A    between atoms: C_16  and  C_17
REMARK    6  A    between atoms: C_17  and  N_21
REMARK                            x       y       z     vdW  Elec       q    Type
REMARK                         _______ _______ _______ _____ _____    ______ ____
ROOT
ATOM      1  C   UNL     1      36.677 -21.571 -17.258  0.00  0.00    -0.021 C 
ENDROOT
BRANCH   1   2
ATOM      2  C   UNL     1      35.727 -21.950 -18.394  0.00  0.00    -0.077 C 
BRANCH   2   3
ATOM      3  N   UNL     1      35.439 -20.783 -19.224  0.00  0.00    +0.390 N 
ATOM      4  C   UNL     1      36.526 -20.528 -20.175  0.00  0.00    -0.072 C 
ATOM      5  C   UNL     1      34.159 -20.948 -19.929  0.00  0.00    -0.051 C 
ATOM      6  C   UNL     1      36.273 -19.206 -20.915  0.00  0.00    +0.005 C 
ATOM      7  C   UNL     1      34.864 -19.090 -21.452  0.00  0.00    -0.013 C 
ATOM      8  C   UNL     1      33.901 -19.906 -20.985  0.00  0.00    -0.052 C 
ATOM      9  H   UNL     1      35.365 -19.972 -18.610  0.00  0.00    -0.079 HD
BRANCH   7  11
ATOM     10  N   UNL     1      34.861 -16.783 -22.140  0.00  0.00    -0.244 NA
ATOM     11  C   UNL     1      34.588 -18.062 -22.485  0.00  0.00    +0.077 C 
ATOM     12  C   UNL     1      34.079 -18.437 -23.720  0.00  0.00    +0.019 C 
ATOM     13  C   UNL     1      33.835 -17.439 -24.656  0.00  0.00    +0.003 C 
ATOM     14  C   UNL     1      34.610 -15.839 -23.076  0.00  0.00    +0.099 C 
ATOM     15  C   UNL     1      34.103 -16.112 -24.335  0.00  0.00    +0.021 C 
ENDBRANCH   7  11
ENDBRANCH   2   3
ENDBRANCH   1   2
BRANCH   1  16
ATOM     16  C   UNL     1      36.233 -22.202 -15.934  0.00  0.00    +0.020 C 
BRANCH  16  17
ATOM     17  C   UNL     1      35.639 -23.594 -16.117  0.00  0.00    +0.099 C 
BRANCH  17  21
ATOM     18 CL   UNL     1      36.186 -25.145 -13.684  0.00  0.00    -0.062 Cl
ATOM     19  O   UNL     1      32.625 -23.602 -12.913  0.00  0.00    -0.448 OA
ATOM     20  O   UNL     1      33.091 -22.814 -16.854  0.00  0.00    -0.269 OA
ATOM     21  N   UNL     1      34.467 -23.822 -15.260  0.00  0.00    -0.244 N 
ATOM     22  C   UNL     1      33.217 -23.466 -15.814  0.00  0.00    +0.256 C 
ATOM     23  C   UNL     1      34.665 -24.355 -13.988  0.00  0.00    +0.151 C 
ATOM     24  C   UNL     1      31.956 -23.962 -15.214  0.00  0.00    +0.088 C 
ATOM     25  C   UNL     1      31.708 -23.997 -13.846  0.00  0.00    +0.150 C 
ATOM     26  C   UNL     1      33.823 -24.258 -12.952  0.00  0.00    +0.206 C 
ATOM     27  C   UNL     1      30.937 -24.359 -16.097  0.00  0.00    +0.008 C 
ATOM     28  C   UNL     1      30.459 -24.397 -13.357  0.00  0.00    +0.038 C 
ATOM     29  C   UNL     1      29.697 -24.779 -15.610  0.00  0.00    +0.000 C 
ATOM     30  C   UNL     1      29.457 -24.794 -14.240  0.00  0.00    +0.003 C 
ENDBRANCH  17  21
ENDBRANCH  16  17
ENDBRANCH   1  16
TORSDOF 6
ENDMDL
MODEL 7
REMARK VINA RESULT:     -10.9      4.115     10.919
REMARK  Name = 9801640
REMARK  6 active torsions:
REMARK  status: ('A' for Active; 'I' for Inactive)
REMARK    1  A    between atoms: C_1  and  C_2
REMARK    2  A    between atoms: C_1  and  C_16
REMARK    3  A    between atoms: C_2  and  N_3
REMARK    4  A    between atoms: C_7  and  C_11
REMARK    5  A    between atoms: C_16  and  C_17
REMARK    6  A    between atoms: C_17  and  N_21
REMARK                            x       y       z     vdW  Elec       q    Type
REMARK                         _______ _______ _______ _____ _____    ______ ____
ROOT
ATOM      1  C   UNL     1      32.198 -23.178 -17.278  0.00  0.00    -0.021 C 
ENDROOT
BRANCH   1   2
ATOM      2  C   UNL     1      33.367 -23.575 -18.179  0.00  0.00    -0.077 C 
BRANCH   2   3
ATOM      3  N   UNL     1      33.558 -22.578 -19.230  0.00  0.00    +0.390 N 
ATOM      4  C   UNL     1      32.588 -21.486 -19.107  0.00  0.00    -0.072 C 
ATOM      5  C   UNL     1      34.934 -22.057 -19.210  0.00  0.00    -0.051 C 
ATOM      6  C   UNL     1      32.704 -20.545 -20.316  0.00  0.00    +0.005 C 
ATOM      7  C   UNL     1      34.132 -20.149 -20.620  0.00  0.00    -0.013 C 
ATOM      8  C   UNL     1      35.149 -20.860 -20.097  0.00  0.00    -0.052 C 
ATOM      9  H   UNL     1      33.402 -23.036 -20.128  0.00  0.00    -0.079 HD
BRANCH   7  11
ATOM     10  N   UNL     1      34.774 -17.845 -20.889  0.00  0.00    -0.244 NA
ATOM     11  C   UNL     1      34.364 -18.980 -21.501  0.00  0.00    +0.077 C 
ATOM     12  C   UNL     1      34.160 -19.089 -22.869  0.00  0.00    +0.019 C 
ATOM     13  C   UNL     1      34.390 -17.965 -23.655  0.00  0.00    +0.003 C 
ATOM     14  C   UNL     1      34.987 -16.773 -21.686  0.00  0.00    +0.099 C 
ATOM     15  C   UNL     1      34.812 -16.781 -23.060  0.00  0.00    +0.021 C 
ENDBRANCH   7  11
ENDBRANCH   2   3
ENDBRANCH   1   2
BRANCH   1  16
ATOM     16  C   UNL     1      32.632 -23.108 -15.811  0.00  0.00    +0.020 C 
BRANCH  16  17
ATOM     17  C   UNL     1      32.727 -24.484 -15.160  0.00  0.00    +0.099 C 
BRANCH  17  21
ATOM     18 CL   UNL     1      32.637 -22.972 -12.644  0.00  0.00    -0.062 Cl
ATOM     19  O   UNL     1      35.655 -25.455 -12.024  0.00  0.00    -0.448 OA
ATOM     20  O   UNL     1      34.965 -25.883 -15.987  0.00  0.00    -0.269 OA
ATOM     21  N   UNL     1      33.923 -24.625 -14.318  0.00  0.00    -0.244 N 
ATOM     22  C   UNL     1      35.027 -25.276 -14.915  0.00  0.00    +0.256 C 
ATOM     23  C   UNL     1      33.886 -24.126 -13.018  0.00  0.00    +0.151 C 
ATOM     24  C   UNL     1      36.379 -25.169 -14.319  0.00  0.00    +0.088 C 
ATOM     25  C   UNL     1      36.637 -25.273 -12.956  0.00  0.00    +0.150 C 
ATOM     26  C   UNL     1      34.679 -24.499 -12.005  0.00  0.00    +0.206 C 
ATOM     27  C   UNL     1      37.461 -25.016 -15.202  0.00  0.00    +0.008 C 
ATOM     28  C   UNL     1      37.952 -25.250 -12.475  0.00  0.00    +0.038 C 
ATOM     29  C   UNL     1      38.772 -24.972 -14.723  0.00  0.00    +0.000 C 
ATOM     30  C   UNL     1      39.017 -25.093 -13.358  0.00  0.00    +0.003 C 
ENDBRANCH  17  21
ENDBRANCH  16  17
ENDBRANCH   1  16
TORSDOF 6
ENDMDL
MODEL 8
REMARK VINA RESULT:     -10.8      5.466      8.609
REMARK  Name = 9801640
REMARK  6 active torsions:
REMARK  status: ('A' for Active; 'I' for Inactive)
REMARK    1  A    between atoms: C_1  and  C_2
REMARK    2  A    between atoms: C_1  and  C_16
REMARK    3  A    between atoms: C_2  and  N_3
REMARK    4  A    between atoms: C_7  and  C_11
REMARK    5  A    between atoms: C_16  and  C_17
REMARK    6  A    between atoms: C_17  and  N_21
REMARK                            x       y       z     vdW  Elec       q    Type
REMARK                         _______ _______ _______ _____ _____    ______ ____
ROOT
ATOM      1  C   UNL     1      34.182 -13.830 -22.759  0.00  0.00    -0.021 C 
ENDROOT
BRANCH   1   2
ATOM      2  C   UNL     1      34.505 -14.959 -23.736  0.00  0.00    -0.077 C 
BRANCH   2   3
ATOM      3  N   UNL     1      34.805 -16.190 -23.008  0.00  0.00    +0.390 N 
ATOM      4  C   UNL     1      34.539 -16.036 -21.575  0.00  0.00    -0.072 C 
ATOM      5  C   UNL     1      34.041 -17.321 -23.560  0.00  0.00    -0.051 C 
ATOM      6  C   UNL     1      35.018 -17.283 -20.818  0.00  0.00    +0.005 C 
ATOM      7  C   UNL     1      34.556 -18.574 -21.455  0.00  0.00    -0.013 C 
ATOM      8  C   UNL     1      34.105 -18.570 -22.723  0.00  0.00    -0.052 C 
ATOM      9  H   UNL     1      35.798 -16.388 -23.123  0.00  0.00    -0.079 HD
BRANCH   7  11
ATOM     10  N   UNL     1      35.857 -20.219 -20.273  0.00  0.00    -0.244 NA
ATOM     11  C   UNL     1      34.621 -19.818 -20.650  0.00  0.00    +0.077 C 
ATOM     12  C   UNL     1      33.456 -20.499 -20.326  0.00  0.00    +0.019 C 
ATOM     13  C   UNL     1      33.568 -21.661 -19.571  0.00  0.00    +0.003 C 
ATOM     14  C   UNL     1      35.926 -21.354 -19.541  0.00  0.00    +0.099 C 
ATOM     15  C   UNL     1      34.823 -22.103 -19.166  0.00  0.00    +0.021 C 
ENDBRANCH   7  11
ENDBRANCH   2   3
ENDBRANCH   1   2
BRANCH   1  16
ATOM     16  C   UNL     1      33.653 -12.596 -23.497  0.00  0.00    +0.020 C 
BRANCH  16  17
ATOM     17  C   UNL     1      32.184 -12.317 -23.195  0.00  0.00    +0.099 C 
BRANCH  17  21
ATOM     18 CL   UNL     1      31.298 -12.778 -20.433  0.00  0.00    -0.062 Cl
ATOM     19  O   UNL     1      32.484  -9.005 -20.314  0.00  0.00    -0.448 OA
ATOM     20  O   UNL     1      32.435  -9.787 -24.284  0.00  0.00    -0.269 OA
ATOM     21  N   UNL     1      31.997 -11.095 -22.399  0.00  0.00    -0.244 N 
ATOM     22  C   UNL     1      32.052  -9.877 -23.114  0.00  0.00    +0.256 C 
ATOM     23  C   UNL     1      31.791 -11.218 -21.027  0.00  0.00    +0.151 C 
ATOM     24  C   UNL     1      31.537  -8.624 -22.513  0.00  0.00    +0.088 C 
ATOM     25  C   UNL     1      31.773  -8.241 -21.196  0.00  0.00    +0.150 C 
ATOM     26  C   UNL     1      32.001 -10.266 -20.108  0.00  0.00    +0.206 C 
ATOM     27  C   UNL     1      30.822  -7.754 -23.353  0.00  0.00    +0.008 C 
ATOM     28  C   UNL     1      31.328  -7.001 -20.724  0.00  0.00    +0.038 C 
ATOM     29  C   UNL     1      30.358  -6.526 -22.877  0.00  0.00    +0.000 C 
ATOM     30  C   UNL     1      30.616  -6.148 -21.563  0.00  0.00    +0.003 C 
ENDBRANCH  17  21
ENDBRANCH  16  17
ENDBRANCH   1  16
TORSDOF 6
ENDMDL
MODEL 9
REMARK VINA RESULT:     -10.7      3.306     11.287
REMARK  Name = 9801640
REMARK  6 active torsions:
REMARK  status: ('A' for Active; 'I' for Inactive)
REMARK    1  A    between atoms: C_1  and  C_2
REMARK    2  A    between atoms: C_1  and  C_16
REMARK    3  A    between atoms: C_2  and  N_3
REMARK    4  A    between atoms: C_7  and  C_11
REMARK    5  A    between atoms: C_16  and  C_17
REMARK    6  A    between atoms: C_17  and  N_21
REMARK                            x       y       z     vdW  Elec       q    Type
REMARK                         _______ _______ _______ _____ _____    ______ ____
ROOT
ATOM      1  C   UNL     1      34.985 -17.494 -21.482  0.00  0.00    -0.021 C 
ENDROOT
BRANCH   1   2
ATOM      2  C   UNL     1      34.649 -17.549 -22.972  0.00  0.00    -0.077 C 
BRANCH   2   3
ATOM      3  N   UNL     1      34.541 -16.198 -23.518  0.00  0.00    +0.390 N 
ATOM      4  C   UNL     1      33.410 -16.090 -24.444  0.00  0.00    -0.072 C 
ATOM      5  C   UNL     1      34.423 -15.207 -22.436  0.00  0.00    -0.051 C 
ATOM      6  C   UNL     1      33.423 -14.713 -25.125  0.00  0.00    +0.005 C 
ATOM      7  C   UNL     1      33.607 -13.573 -24.149  0.00  0.00    -0.013 C 
ATOM      8  C   UNL     1      34.068 -13.823 -22.909  0.00  0.00    -0.052 C 
ATOM      9  H   UNL     1      35.394 -16.002 -24.041  0.00  0.00    -0.079 HD
BRANCH   7  11
ATOM     10  N   UNL     1      33.045 -11.292 -23.623  0.00  0.00    -0.244 NA
ATOM     11  C   UNL     1      33.273 -12.201 -24.599  0.00  0.00    +0.077 C 
ATOM     12  C   UNL     1      33.209 -11.910 -25.955  0.00  0.00    +0.019 C 
ATOM     13  C   UNL     1      32.892 -10.609 -26.329  0.00  0.00    +0.003 C 
ATOM     14  C   UNL     1      32.738 -10.038 -24.026  0.00  0.00    +0.099 C 
ATOM     15  C   UNL     1      32.651  -9.650 -25.352  0.00  0.00    +0.021 C 
ENDBRANCH   7  11
ENDBRANCH   2   3
ENDBRANCH   1   2
BRANCH   1  16
ATOM     16  C   UNL     1      35.729 -18.758 -21.038  0.00  0.00    +0.020 C 
BRANCH  16  17
ATOM     17  C   UNL     1      34.993 -20.037 -21.419  0.00  0.00    +0.099 C 
BRANCH  17  21
ATOM     18 CL   UNL     1      32.184 -19.732 -20.615  0.00  0.00    -0.062 Cl
ATOM     19  O   UNL     1      33.283 -22.966 -18.617  0.00  0.00    -0.448 OA
ATOM     20  O   UNL     1      36.815 -21.522 -19.961  0.00  0.00    -0.269 OA
ATOM     21  N   UNL     1      34.603 -20.831 -20.245  0.00  0.00    -0.244 N 
ATOM     22  C   UNL     1      35.658 -21.451 -19.539  0.00  0.00    +0.256 C 
ATOM     23  C   UNL     1      33.250 -20.921 -19.921  0.00  0.00    +0.151 C 
ATOM     24  C   UNL     1      35.446 -21.970 -18.167  0.00  0.00    +0.088 C 
ATOM     25  C   UNL     1      34.323 -22.691 -17.775  0.00  0.00    +0.150 C 
ATOM     26  C   UNL     1      32.678 -21.877 -19.179  0.00  0.00    +0.206 C 
ATOM     27  C   UNL     1      36.479 -21.767 -17.236  0.00  0.00    +0.008 C 
ATOM     28  C   UNL     1      34.233 -23.226 -16.484  0.00  0.00    +0.038 C 
ATOM     29  C   UNL     1      36.382 -22.281 -15.941  0.00  0.00    +0.000 C 
ATOM     30  C   UNL     1      35.260 -23.014 -15.567  0.00  0.00    +0.003 C 
ENDBRANCH  17  21
ENDBRANCH  16  17
ENDBRANCH   1  16
TORSDOF 6
ENDMDL
