MODEL 1
REMARK VINA RESULT:     -11.9      0.000      0.000
REMARK  Name = 456199
REMARK  5 active torsions:
REMARK  status: ('A' for Active; 'I' for Inactive)
REMARK    1  A    between atoms: O_1  and  C_5
REMARK    2  A    between atoms: O_1  and  C_14
REMARK    3  A    between atoms: C_14  and  C_15
REMARK    4  A    between atoms: C_20  and  O_21
REMARK    5  A    between atoms: O_21  and  C_25
REMARK                            x       y       z     vdW  Elec       q    Type
REMARK                         _______ _______ _______ _____ _____    ______ ____
ROOT
ATOM      1  O   UNL     1      32.815 -22.765 -17.647  0.00  0.00    -0.346 OA
ENDROOT
BRANCH   1   5
ATOM      2  O   UNL     1      32.088 -24.031 -14.262  0.00  0.00    -0.438 OA
ATOM      3  N   UNL     1      34.427 -23.631 -14.483  0.00  0.00    -0.242 N 
ATOM      4  N   UNL     1      33.657 -24.443 -12.568  0.00  0.00    -0.333 NA
ATOM      5  C   UNL     1      33.043 -23.542 -16.481  0.00  0.00    +0.179 C 
ATOM      6  C   UNL     1      34.377 -23.161 -15.847  0.00  0.00    +0.130 C 
ATOM      7  C   UNL     1      31.911 -23.300 -15.481  0.00  0.00    +0.241 C 
ATOM      8  C   UNL     1      33.327 -24.026 -13.770  0.00  0.00    +0.345 C 
ATOM      9  C   UNL     1      35.523 -23.783 -13.691  0.00  0.00    +0.181 C 
ATOM     10  C   UNL     1      35.023 -24.285 -12.510  0.00  0.00    +0.274 C 
ATOM     11  O   UNL     1      36.968 -24.466 -11.292  0.00  0.00    -0.124 OA
ATOM     12  O   UNL     1      35.078 -25.071 -10.347  0.00  0.00    -0.124 OA
ATOM     13  N   UNL     1      35.716 -24.620 -11.340  0.00  0.00    +0.085 N 
ENDBRANCH   1   5
BRANCH   1  14
ATOM     14  C   UNL     1      33.810 -23.006 -18.631  0.00  0.00    +0.169 C 
BRANCH  14  15
ATOM     15  C   UNL     1      33.957 -21.783 -19.487  0.00  0.00    +0.007 C 
ATOM     16  C   UNL     1      35.226 -21.316 -19.807  0.00  0.00    +0.001 C 
ATOM     17  C   UNL     1      32.822 -21.128 -19.952  0.00  0.00    +0.001 C 
ATOM     18  C   UNL     1      35.363 -20.178 -20.603  0.00  0.00    +0.037 C 
ATOM     19  C   UNL     1      32.958 -19.990 -20.748  0.00  0.00    +0.037 C 
ATOM     20  C   UNL     1      34.229 -19.516 -21.073  0.00  0.00    +0.147 C 
BRANCH  20  21
ATOM     21  O   UNL     1      34.363 -18.406 -21.850  0.00  0.00    -0.404 OA
BRANCH  21  25
ATOM     22  F   UNL     1      36.242 -18.533 -23.147  0.00  0.00    -0.133 F 
ATOM     23  F   UNL     1      34.463 -17.536 -23.931  0.00  0.00    -0.133 F 
ATOM     24  F   UNL     1      34.465 -19.712 -23.725  0.00  0.00    -0.133 F 
ATOM     25  C   UNL     1      34.893 -18.562 -23.161  0.00  0.00    +0.575 C 
ENDBRANCH  21  25
ENDBRANCH  20  21
ENDBRANCH  14  15
ENDBRANCH   1  14
TORSDOF 5
ENDMDL
MODEL 2
REMARK VINA RESULT:     -11.5      1.368      1.983
REMARK  Name = 456199
REMARK  5 active torsions:
REMARK  status: ('A' for Active; 'I' for Inactive)
REMARK    1  A    between atoms: O_1  and  C_5
REMARK    2  A    between atoms: O_1  and  C_14
REMARK    3  A    between atoms: C_14  and  C_15
REMARK    4  A    between atoms: C_20  and  O_21
REMARK    5  A    between atoms: O_21  and  C_25
REMARK                            x       y       z     vdW  Elec       q    Type
REMARK                         _______ _______ _______ _____ _____    ______ ____
ROOT
ATOM      1  O   UNL     1      34.230 -23.189 -17.990  0.00  0.00    -0.346 OA
ENDROOT
BRANCH   1   5
ATOM      2  O   UNL     1      36.434 -22.334 -15.162  0.00  0.00    -0.438 OA
ATOM      3  N   UNL     1      34.820 -23.943 -14.462  0.00  0.00    -0.242 N 
ATOM      4  N   UNL     1      36.281 -23.179 -12.979  0.00  0.00    -0.333 NA
ATOM      5  C   UNL     1      34.540 -22.891 -16.637  0.00  0.00    +0.179 C 
ATOM      6  C   UNL     1      34.155 -24.062 -15.738  0.00  0.00    +0.130 C 
ATOM      7  C   UNL     1      36.039 -22.617 -16.509  0.00  0.00    +0.241 C 
ATOM      8  C   UNL     1      35.893 -23.124 -14.233  0.00  0.00    +0.345 C 
ATOM      9  C   UNL     1      34.513 -24.575 -13.297  0.00  0.00    +0.181 C 
ATOM     10  C   UNL     1      35.431 -24.089 -12.393  0.00  0.00    +0.274 C 
ATOM     11  O   UNL     1      34.797 -25.252 -10.510  0.00  0.00    -0.124 OA
ATOM     12  O   UNL     1      36.488 -23.855 -10.362  0.00  0.00    -0.124 OA
ATOM     13  N   UNL     1      35.577 -24.411 -11.037  0.00  0.00    +0.085 N 
ENDBRANCH   1   5
BRANCH   1  14
ATOM     14  C   UNL     1      33.085 -22.473 -18.427  0.00  0.00    +0.169 C 
BRANCH  14  15
ATOM     15  C   UNL     1      33.507 -21.439 -19.429  0.00  0.00    +0.007 C 
ATOM     16  C   UNL     1      34.858 -21.246 -19.691  0.00  0.00    +0.001 C 
ATOM     17  C   UNL     1      32.543 -20.682 -20.084  0.00  0.00    +0.001 C 
ATOM     18  C   UNL     1      35.251 -20.284 -20.622  0.00  0.00    +0.037 C 
ATOM     19  C   UNL     1      32.934 -19.720 -21.016  0.00  0.00    +0.037 C 
ATOM     20  C   UNL     1      34.289 -19.522 -21.284  0.00  0.00    +0.147 C 
BRANCH  20  21
ATOM     21  O   UNL     1      34.672 -18.583 -22.193  0.00  0.00    -0.404 OA
BRANCH  21  25
ATOM     22  F   UNL     1      33.171 -18.740 -23.911  0.00  0.00    -0.133 F 
ATOM     23  F   UNL     1      34.849 -20.137 -23.821  0.00  0.00    -0.133 F 
ATOM     24  F   UNL     1      35.225 -18.049 -24.347  0.00  0.00    -0.133 F 
ATOM     25  C   UNL     1      34.472 -18.862 -23.573  0.00  0.00    +0.575 C 
ENDBRANCH  21  25
ENDBRANCH  20  21
ENDBRANCH  14  15
ENDBRANCH   1  14
TORSDOF 5
ENDMDL
MODEL 3
REMARK VINA RESULT:     -11.0      5.695      8.712
REMARK  Name = 456199
REMARK  5 active torsions:
REMARK  status: ('A' for Active; 'I' for Inactive)
REMARK    1  A    between atoms: O_1  and  C_5
REMARK    2  A    between atoms: O_1  and  C_14
REMARK    3  A    between atoms: C_14  and  C_15
REMARK    4  A    between atoms: C_20  and  O_21
REMARK    5  A    between atoms: O_21  and  C_25
REMARK                            x       y       z     vdW  Elec       q    Type
REMARK                         _______ _______ _______ _____ _____    ______ ____
ROOT
ATOM      1  O   UNL     1      33.601 -23.253 -14.463  0.00  0.00    -0.346 OA
ENDROOT
BRANCH   1   5
ATOM      2  O   UNL     1      31.321 -23.108 -17.356  0.00  0.00    -0.438 OA
ATOM      3  N   UNL     1      30.084 -22.786 -15.345  0.00  0.00    -0.242 N 
ATOM      4  N   UNL     1      28.998 -22.798 -17.277  0.00  0.00    -0.333 NA
ATOM      5  C   UNL     1      32.401 -23.508 -15.177  0.00  0.00    +0.179 C 
ATOM      6  C   UNL     1      31.213 -22.887 -14.449  0.00  0.00    +0.130 C 
ATOM      7  C   UNL     1      32.511 -22.914 -16.582  0.00  0.00    +0.241 C 
ATOM      8  C   UNL     1      30.178 -22.889 -16.706  0.00  0.00    +0.345 C 
ATOM      9  C   UNL     1      28.776 -22.597 -15.022  0.00  0.00    +0.181 C 
ATOM     10  C   UNL     1      28.122 -22.606 -16.234  0.00  0.00    +0.274 C 
ATOM     11  O   UNL     1      25.958 -22.263 -15.526  0.00  0.00    -0.124 OA
ATOM     12  O   UNL     1      26.335 -22.484 -17.680  0.00  0.00    -0.124 OA
ATOM     13  N   UNL     1      26.754 -22.445 -16.489  0.00  0.00    +0.085 N 
ENDBRANCH   1   5
BRANCH   1  14
ATOM     14  C   UNL     1      33.813 -24.221 -13.446  0.00  0.00    +0.169 C 
BRANCH  14  15
ATOM     15  C   UNL     1      35.111 -24.927 -13.705  0.00  0.00    +0.007 C 
ATOM     16  C   UNL     1      35.367 -25.457 -14.964  0.00  0.00    +0.001 C 
ATOM     17  C   UNL     1      36.046 -25.044 -12.683  0.00  0.00    +0.001 C 
ATOM     18  C   UNL     1      36.574 -26.114 -15.205  0.00  0.00    +0.037 C 
ATOM     19  C   UNL     1      37.253 -25.701 -12.923  0.00  0.00    +0.037 C 
ATOM     20  C   UNL     1      37.517 -26.235 -14.184  0.00  0.00    +0.147 C 
BRANCH  20  21
ATOM     21  O   UNL     1      38.695 -26.876 -14.419  0.00  0.00    -0.404 OA
BRANCH  21  25
ATOM     22  F   UNL     1      39.826 -25.464 -15.818  0.00  0.00    -0.133 F 
ATOM     23  F   UNL     1      40.944 -26.898 -14.606  0.00  0.00    -0.133 F 
ATOM     24  F   UNL     1      40.010 -25.177 -13.635  0.00  0.00    -0.133 F 
ATOM     25  C   UNL     1      39.861 -26.087 -14.622  0.00  0.00    +0.575 C 
ENDBRANCH  21  25
ENDBRANCH  20  21
ENDBRANCH  14  15
ENDBRANCH   1  14
TORSDOF 5
ENDMDL
MODEL 4
REMARK VINA RESULT:     -10.5      6.452     11.379
REMARK  Name = 456199
REMARK  5 active torsions:
REMARK  status: ('A' for Active; 'I' for Inactive)
REMARK    1  A    between atoms: O_1  and  C_5
REMARK    2  A    between atoms: O_1  and  C_14
REMARK    3  A    between atoms: C_14  and  C_15
REMARK    4  A    between atoms: C_20  and  O_21
REMARK    5  A    between atoms: O_21  and  C_25
REMARK                            x       y       z     vdW  Elec       q    Type
REMARK                         _______ _______ _______ _____ _____    ______ ____
ROOT
ATOM      1  O   UNL     1      34.641 -19.435 -22.867  0.00  0.00    -0.346 OA
ENDROOT
BRANCH   1   5
ATOM      2  O   UNL     1      33.607 -18.332 -26.229  0.00  0.00    -0.438 OA
ATOM      3  N   UNL     1      33.759 -16.447 -24.779  0.00  0.00    -0.242 N 
ATOM      4  N   UNL     1      33.116 -16.132 -26.877  0.00  0.00    -0.333 NA
ATOM      5  C   UNL     1      33.898 -18.671 -23.805  0.00  0.00    +0.179 C 
ATOM      6  C   UNL     1      34.171 -17.183 -23.607  0.00  0.00    +0.130 C 
ATOM      7  C   UNL     1      34.298 -19.083 -25.222  0.00  0.00    +0.241 C 
ATOM      8  C   UNL     1      33.509 -17.023 -25.995  0.00  0.00    +0.345 C 
ATOM      9  C   UNL     1      33.533 -15.110 -24.888  0.00  0.00    +0.181 C 
ATOM     10  C   UNL     1      33.137 -14.937 -26.196  0.00  0.00    +0.274 C 
ATOM     11  O   UNL     1      32.815 -12.658 -26.223  0.00  0.00    -0.124 OA
ATOM     12  O   UNL     1      32.446 -13.791 -28.069  0.00  0.00    -0.124 OA
ATOM     13  N   UNL     1      32.786 -13.751 -26.854  0.00  0.00    +0.085 N 
ENDBRANCH   1   5
BRANCH   1  14
ATOM     14  C   UNL     1      34.424 -18.977 -21.540  0.00  0.00    +0.169 C 
BRANCH  14  15
ATOM     15  C   UNL     1      34.258 -20.162 -20.635  0.00  0.00    +0.007 C 
ATOM     16  C   UNL     1      32.984 -20.562 -20.251  0.00  0.00    +0.001 C 
ATOM     17  C   UNL     1      35.382 -20.848 -20.188  0.00  0.00    +0.001 C 
ATOM     18  C   UNL     1      32.830 -21.664 -19.409  0.00  0.00    +0.037 C 
ATOM     19  C   UNL     1      35.229 -21.950 -19.346  0.00  0.00    +0.037 C 
ATOM     20  C   UNL     1      33.953 -22.357 -18.957  0.00  0.00    +0.147 C 
BRANCH  20  21
ATOM     21  O   UNL     1      33.803 -23.432 -18.135  0.00  0.00    -0.404 OA
BRANCH  21  25
ATOM     22  F   UNL     1      34.155 -24.352 -16.071  0.00  0.00    -0.133 F 
ATOM     23  F   UNL     1      32.623 -22.811 -16.313  0.00  0.00    -0.133 F 
ATOM     24  F   UNL     1      34.733 -22.246 -16.413  0.00  0.00    -0.133 F 
ATOM     25  C   UNL     1      33.845 -23.215 -16.729  0.00  0.00    +0.575 C 
ENDBRANCH  21  25
ENDBRANCH  20  21
ENDBRANCH  14  15
ENDBRANCH   1  14
TORSDOF 5
ENDMDL
MODEL 5
REMARK VINA RESULT:     -10.4      5.218      8.995
REMARK  Name = 456199
REMARK  5 active torsions:
REMARK  status: ('A' for Active; 'I' for Inactive)
REMARK    1  A    between atoms: O_1  and  C_5
REMARK    2  A    between atoms: O_1  and  C_14
REMARK    3  A    between atoms: C_14  and  C_15
REMARK    4  A    between atoms: C_20  and  O_21
REMARK    5  A    between atoms: O_21  and  C_25
REMARK                            x       y       z     vdW  Elec       q    Type
REMARK                         _______ _______ _______ _____ _____    ______ ____
ROOT
ATOM      1  O   UNL     1      33.862 -23.761 -16.979  0.00  0.00    -0.346 OA
ENDROOT
BRANCH   1   5
ATOM      2  O   UNL     1      32.264 -21.293 -19.203  0.00  0.00    -0.438 OA
ATOM      3  N   UNL     1      34.620 -21.287 -19.561  0.00  0.00    -0.242 N 
ATOM      4  N   UNL     1      33.359 -19.878 -20.719  0.00  0.00    -0.333 NA
ATOM      5  C   UNL     1      33.742 -22.520 -17.658  0.00  0.00    +0.179 C 
ATOM      6  C   UNL     1      34.928 -22.314 -18.593  0.00  0.00    +0.130 C 
ATOM      7  C   UNL     1      32.443 -22.508 -18.465  0.00  0.00    +0.241 C 
ATOM      8  C   UNL     1      33.353 -20.839 -19.823  0.00  0.00    +0.345 C 
ATOM      9  C   UNL     1      35.487 -20.590 -20.345  0.00  0.00    +0.181 C 
ATOM     10  C   UNL     1      34.684 -19.724 -21.055  0.00  0.00    +0.274 C 
ATOM     11  O   UNL     1      36.274 -18.649 -22.325  0.00  0.00    -0.124 OA
ATOM     12  O   UNL     1      34.169 -18.067 -22.566  0.00  0.00    -0.124 OA
ATOM     13  N   UNL     1      35.057 -18.778 -22.018  0.00  0.00    +0.085 N 
ENDBRANCH   1   5
BRANCH   1  14
ATOM     14  C   UNL     1      34.013 -23.571 -15.580  0.00  0.00    +0.169 C 
BRANCH  14  15
ATOM     15  C   UNL     1      35.250 -24.284 -15.120  0.00  0.00    +0.007 C 
ATOM     16  C   UNL     1      36.211 -23.593 -14.392  0.00  0.00    +0.001 C 
ATOM     17  C   UNL     1      35.424 -25.629 -15.427  0.00  0.00    +0.001 C 
ATOM     18  C   UNL     1      37.363 -24.256 -13.964  0.00  0.00    +0.037 C 
ATOM     19  C   UNL     1      36.574 -26.292 -15.000  0.00  0.00    +0.037 C 
ATOM     20  C   UNL     1      37.543 -25.606 -14.268  0.00  0.00    +0.147 C 
BRANCH  20  21
ATOM     21  O   UNL     1      38.666 -26.252 -13.851  0.00  0.00    -0.404 OA
BRANCH  21  25
ATOM     22  F   UNL     1      40.703 -27.013 -14.559  0.00  0.00    -0.133 F 
ATOM     23  F   UNL     1      40.536 -24.991 -13.745  0.00  0.00    -0.133 F 
ATOM     24  F   UNL     1      39.697 -25.423 -15.717  0.00  0.00    -0.133 F 
ATOM     25  C   UNL     1      39.901 -25.931 -14.482  0.00  0.00    +0.575 C 
ENDBRANCH  21  25
ENDBRANCH  20  21
ENDBRANCH  14  15
ENDBRANCH   1  14
TORSDOF 5
ENDMDL
MODEL 6
REMARK VINA RESULT:     -10.2      5.661      7.054
REMARK  Name = 456199
REMARK  5 active torsions:
REMARK  status: ('A' for Active; 'I' for Inactive)
REMARK    1  A    between atoms: O_1  and  C_5
REMARK    2  A    between atoms: O_1  and  C_14
REMARK    3  A    between atoms: C_14  and  C_15
REMARK    4  A    between atoms: C_20  and  O_21
REMARK    5  A    between atoms: O_21  and  C_25
REMARK                            x       y       z     vdW  Elec       q    Type
REMARK                         _______ _______ _______ _____ _____    ______ ____
ROOT
ATOM      1  O   UNL     1      32.906 -24.907 -14.538  0.00  0.00    -0.346 OA
ENDROOT
BRANCH   1   5
ATOM      2  O   UNL     1      36.050 -23.016 -14.888  0.00  0.00    -0.438 OA
ATOM      3  N   UNL     1      36.530 -25.345 -14.726  0.00  0.00    -0.242 N 
ATOM      4  N   UNL     1      38.216 -23.916 -14.905  0.00  0.00    -0.333 NA
ATOM      5  C   UNL     1      34.263 -24.594 -14.265  0.00  0.00    +0.179 C 
ATOM      6  C   UNL     1      35.157 -25.780 -14.613  0.00  0.00    +0.130 C 
ATOM      7  C   UNL     1      34.679 -23.377 -15.091  0.00  0.00    +0.241 C 
ATOM      8  C   UNL     1      36.908 -24.036 -14.860  0.00  0.00    +0.345 C 
ATOM      9  C   UNL     1      37.654 -26.112 -14.703  0.00  0.00    +0.181 C 
ATOM     10  C   UNL     1      38.686 -25.207 -14.817  0.00  0.00    +0.274 C 
ATOM     11  O   UNL     1      40.486 -26.641 -14.781  0.00  0.00    -0.124 OA
ATOM     12  O   UNL     1      40.866 -24.484 -14.964  0.00  0.00    -0.124 OA
ATOM     13  N   UNL     1      40.064 -25.454 -14.855  0.00  0.00    +0.085 N 
ENDBRANCH   1   5
BRANCH   1  14
ATOM     14  C   UNL     1      32.030 -24.231 -13.648  0.00  0.00    +0.169 C 
BRANCH  14  15
ATOM     15  C   UNL     1      30.702 -24.039 -14.320  0.00  0.00    +0.007 C 
ATOM     16  C   UNL     1      30.225 -22.754 -14.547  0.00  0.00    +0.001 C 
ATOM     17  C   UNL     1      29.961 -25.149 -14.708  0.00  0.00    +0.001 C 
ATOM     18  C   UNL     1      28.990 -22.575 -15.171  0.00  0.00    +0.037 C 
ATOM     19  C   UNL     1      28.727 -24.972 -15.333  0.00  0.00    +0.037 C 
ATOM     20  C   UNL     1      28.242 -23.684 -15.564  0.00  0.00    +0.147 C 
BRANCH  20  21
ATOM     21  O   UNL     1      27.037 -23.510 -16.173  0.00  0.00    -0.404 OA
BRANCH  21  25
ATOM     22  F   UNL     1      28.065 -21.773 -17.249  0.00  0.00    -0.133 F 
ATOM     23  F   UNL     1      25.959 -21.596 -16.693  0.00  0.00    -0.133 F 
ATOM     24  F   UNL     1      26.523 -22.933 -18.327  0.00  0.00    -0.133 F 
ATOM     25  C   UNL     1      26.909 -22.458 -17.122  0.00  0.00    +0.575 C 
ENDBRANCH  21  25
ENDBRANCH  20  21
ENDBRANCH  14  15
ENDBRANCH   1  14
TORSDOF 5
ENDMDL
MODEL 7
REMARK VINA RESULT:     -10.2      2.391      3.470
REMARK  Name = 456199
REMARK  5 active torsions:
REMARK  status: ('A' for Active; 'I' for Inactive)
REMARK    1  A    between atoms: O_1  and  C_5
REMARK    2  A    between atoms: O_1  and  C_14
REMARK    3  A    between atoms: C_14  and  C_15
REMARK    4  A    between atoms: C_20  and  O_21
REMARK    5  A    between atoms: O_21  and  C_25
REMARK                            x       y       z     vdW  Elec       q    Type
REMARK                         _______ _______ _______ _____ _____    ______ ____
ROOT
ATOM      1  O   UNL     1      35.081 -22.375 -18.952  0.00  0.00    -0.346 OA
ENDROOT
BRANCH   1   5
ATOM      2  O   UNL     1      34.536 -22.881 -15.342  0.00  0.00    -0.438 OA
ATOM      3  N   UNL     1      32.555 -23.452 -16.539  0.00  0.00    -0.242 N 
ATOM      4  N   UNL     1      32.549 -23.604 -14.327  0.00  0.00    -0.333 NA
ATOM      5  C   UNL     1      34.350 -22.329 -17.737  0.00  0.00    +0.179 C 
ATOM      6  C   UNL     1      33.079 -23.165 -17.854  0.00  0.00    +0.130 C 
ATOM      7  C   UNL     1      35.219 -22.871 -16.601  0.00  0.00    +0.241 C 
ATOM      8  C   UNL     1      33.275 -23.312 -15.382  0.00  0.00    +0.345 C 
ATOM      9  C   UNL     1      31.305 -23.877 -16.212  0.00  0.00    +0.181 C 
ATOM     10  C   UNL     1      31.324 -23.967 -14.838  0.00  0.00    +0.274 C 
ATOM     11  O   UNL     1      29.177 -24.703 -14.452  0.00  0.00    -0.124 OA
ATOM     12  O   UNL     1      30.503 -24.384 -12.729  0.00  0.00    -0.124 OA
ATOM     13  N   UNL     1      30.296 -24.366 -13.974  0.00  0.00    +0.085 N 
ENDBRANCH   1   5
BRANCH   1  14
ATOM     14  C   UNL     1      35.961 -21.267 -19.068  0.00  0.00    +0.169 C 
BRANCH  14  15
ATOM     15  C   UNL     1      35.486 -20.379 -20.181  0.00  0.00    +0.007 C 
ATOM     16  C   UNL     1      34.152 -20.415 -20.567  0.00  0.00    +0.001 C 
ATOM     17  C   UNL     1      36.386 -19.530 -20.815  0.00  0.00    +0.001 C 
ATOM     18  C   UNL     1      33.710 -19.589 -21.602  0.00  0.00    +0.037 C 
ATOM     19  C   UNL     1      35.945 -18.705 -21.850  0.00  0.00    +0.037 C 
ATOM     20  C   UNL     1      34.607 -18.735 -22.242  0.00  0.00    +0.147 C 
BRANCH  20  21
ATOM     21  O   UNL     1      34.175 -17.930 -23.252  0.00  0.00    -0.404 OA
BRANCH  21  25
ATOM     22  F   UNL     1      34.508 -17.702 -25.503  0.00  0.00    -0.133 F 
ATOM     23  F   UNL     1      32.679 -18.654 -24.779  0.00  0.00    -0.133 F 
ATOM     24  F   UNL     1      34.578 -19.723 -24.613  0.00  0.00    -0.133 F 
ATOM     25  C   UNL     1      34.003 -18.503 -24.542  0.00  0.00    +0.575 C 
ENDBRANCH  21  25
ENDBRANCH  20  21
ENDBRANCH  14  15
ENDBRANCH   1  14
TORSDOF 5
ENDMDL
MODEL 8
REMARK VINA RESULT:     -10.1      7.390     10.606
REMARK  Name = 456199
REMARK  5 active torsions:
REMARK  status: ('A' for Active; 'I' for Inactive)
REMARK    1  A    between atoms: O_1  and  C_5
REMARK    2  A    between atoms: O_1  and  C_14
REMARK    3  A    between atoms: C_14  and  C_15
REMARK    4  A    between atoms: C_20  and  O_21
REMARK    5  A    between atoms: O_21  and  C_25
REMARK                            x       y       z     vdW  Elec       q    Type
REMARK                         _______ _______ _______ _____ _____    ______ ____
ROOT
ATOM      1  O   UNL     1      33.952 -15.746 -26.712  0.00  0.00    -0.346 OA
ENDROOT
BRANCH   1   5
ATOM      2  O   UNL     1      32.827 -18.583 -24.645  0.00  0.00    -0.438 OA
ATOM      3  N   UNL     1      34.769 -17.603 -23.671  0.00  0.00    -0.242 N 
ATOM      4  N   UNL     1      33.858 -19.371 -22.691  0.00  0.00    -0.333 NA
ATOM      5  C   UNL     1      34.116 -16.904 -25.907  0.00  0.00    +0.179 C 
ATOM      6  C   UNL     1      34.940 -16.571 -24.667  0.00  0.00    +0.130 C 
ATOM      7  C   UNL     1      32.742 -17.427 -25.486  0.00  0.00    +0.241 C 
ATOM      8  C   UNL     1      33.759 -18.526 -23.693  0.00  0.00    +0.345 C 
ATOM      9  C   UNL     1      35.550 -17.854 -22.586  0.00  0.00    +0.181 C 
ATOM     10  C   UNL     1      34.967 -18.952 -21.993  0.00  0.00    +0.274 C 
ATOM     11  O   UNL     1      36.374 -19.233 -20.193  0.00  0.00    -0.124 OA
ATOM     12  O   UNL     1      34.693 -20.626 -20.438  0.00  0.00    -0.124 OA
ATOM     13  N   UNL     1      35.360 -19.629 -20.831  0.00  0.00    +0.085 N 
ENDBRANCH   1   5
BRANCH   1  14
ATOM     14  C   UNL     1      32.747 -15.064 -26.397  0.00  0.00    +0.169 C 
BRANCH  14  15
ATOM     15  C   UNL     1      33.070 -13.647 -26.024  0.00  0.00    +0.007 C 
ATOM     16  C   UNL     1      33.228 -13.307 -24.686  0.00  0.00    +0.001 C 
ATOM     17  C   UNL     1      33.207 -12.688 -27.021  0.00  0.00    +0.001 C 
ATOM     18  C   UNL     1      33.529 -11.989 -24.340  0.00  0.00    +0.037 C 
ATOM     19  C   UNL     1      33.507 -11.370 -26.676  0.00  0.00    +0.037 C 
ATOM     20  C   UNL     1      33.668 -11.021 -25.335  0.00  0.00    +0.147 C 
BRANCH  20  21
ATOM     21  O   UNL     1      33.961  -9.736 -24.996  0.00  0.00    -0.404 OA
BRANCH  21  25
ATOM     22  F   UNL     1      36.137 -10.314 -25.394  0.00  0.00    -0.133 F 
ATOM     23  F   UNL     1      35.697  -8.654 -24.042  0.00  0.00    -0.133 F 
ATOM     24  F   UNL     1      35.380  -8.396 -26.189  0.00  0.00    -0.133 F 
ATOM     25  C   UNL     1      35.297  -9.281 -25.172  0.00  0.00    +0.575 C 
ENDBRANCH  21  25
ENDBRANCH  20  21
ENDBRANCH  14  15
ENDBRANCH   1  14
TORSDOF 5
ENDMDL
MODEL 9
REMARK VINA RESULT:     -10.1      2.011      2.585
REMARK  Name = 456199
REMARK  5 active torsions:
REMARK  status: ('A' for Active; 'I' for Inactive)
REMARK    1  A    between atoms: O_1  and  C_5
REMARK    2  A    between atoms: O_1  and  C_14
REMARK    3  A    between atoms: C_14  and  C_15
REMARK    4  A    between atoms: C_20  and  O_21
REMARK    5  A    between atoms: O_21  and  C_25
REMARK                            x       y       z     vdW  Elec       q    Type
REMARK                         _______ _______ _______ _____ _____    ______ ____
ROOT
ATOM      1  O   UNL     1      34.741 -21.319 -18.909  0.00  0.00    -0.346 OA
ENDROOT
BRANCH   1   5
ATOM      2  O   UNL     1      34.078 -23.960 -16.424  0.00  0.00    -0.438 OA
ATOM      3  N   UNL     1      36.211 -22.981 -16.004  0.00  0.00    -0.242 N 
ATOM      4  N   UNL     1      35.522 -24.641 -14.705  0.00  0.00    -0.333 NA
ATOM      5  C   UNL     1      35.067 -22.421 -18.076  0.00  0.00    +0.179 C 
ATOM      6  C   UNL     1      36.163 -22.030 -17.090  0.00  0.00    +0.130 C 
ATOM      7  C   UNL     1      33.820 -22.864 -17.310  0.00  0.00    +0.241 C 
ATOM      8  C   UNL     1      35.207 -23.868 -15.720  0.00  0.00    +0.345 C 
ATOM      9  C   UNL     1      37.218 -23.181 -15.112  0.00  0.00    +0.181 C 
ATOM     10  C   UNL     1      36.770 -24.212 -14.316  0.00  0.00    +0.274 C 
ATOM     11  O   UNL     1      38.552 -24.413 -12.873  0.00  0.00    -0.124 OA
ATOM     12  O   UNL     1      36.836 -25.760 -12.614  0.00  0.00    -0.124 OA
ATOM     13  N   UNL     1      37.411 -24.818 -13.228  0.00  0.00    +0.085 N 
ENDBRANCH   1   5
BRANCH   1  14
ATOM     14  C   UNL     1      35.876 -20.860 -19.627  0.00  0.00    +0.169 C 
BRANCH  14  15
ATOM     15  C   UNL     1      35.419 -19.993 -20.763  0.00  0.00    +0.007 C 
ATOM     16  C   UNL     1      36.334 -19.178 -21.418  0.00  0.00    +0.001 C 
ATOM     17  C   UNL     1      34.084 -20.013 -21.149  0.00  0.00    +0.001 C 
ATOM     18  C   UNL     1      35.909 -18.372 -22.474  0.00  0.00    +0.037 C 
ATOM     19  C   UNL     1      33.657 -19.206 -22.204  0.00  0.00    +0.037 C 
ATOM     20  C   UNL     1      34.571 -18.386 -22.867  0.00  0.00    +0.147 C 
BRANCH  20  21
ATOM     21  O   UNL     1      34.156 -17.599 -23.898  0.00  0.00    -0.404 OA
BRANCH  21  25
ATOM     22  F   UNL     1      34.295 -19.491 -25.174  0.00  0.00    -0.133 F 
ATOM     23  F   UNL     1      34.420 -17.534 -26.139  0.00  0.00    -0.133 F 
ATOM     24  F   UNL     1      32.499 -18.215 -25.349  0.00  0.00    -0.133 F 
ATOM     25  C   UNL     1      33.833 -18.224 -25.134  0.00  0.00    +0.575 C 
ENDBRANCH  21  25
ENDBRANCH  20  21
ENDBRANCH  14  15
ENDBRANCH   1  14
TORSDOF 5
ENDMDL
