MODEL 1
REMARK VINA RESULT:     -11.6      0.000      0.000
REMARK  Name = 6450813
REMARK  4 active torsions:
REMARK  status: ('A' for Active; 'I' for Inactive)
REMARK    1  A    between atoms: C_4  and  C_10
REMARK    2  A    between atoms: C_6  and  C_22
REMARK    3  A    between atoms: C_12  and  N_17
REMARK    4  A    between atoms: C_22  and  C_24
REMARK                            x       y       z     vdW  Elec       q    Type
REMARK                         _______ _______ _______ _____ _____    ______ ____
ROOT
ATOM      1  N   UNL     1      34.580 -16.071 -22.708  0.00  0.00    -0.191 N 
ATOM      2  N   UNL     1      34.758 -16.803 -23.844  0.00  0.00    -0.179 NA
ATOM      3  N   UNL     1      34.824 -16.299 -20.320  0.00  0.00    -0.231 NA
ATOM      4  C   UNL     1      34.111 -14.752 -22.595  0.00  0.00    +0.143 C 
ATOM      5  C   UNL     1      34.925 -16.816 -21.576  0.00  0.00    +0.141 C 
ATOM      6  C   UNL     1      35.339 -18.048 -22.028  0.00  0.00    +0.161 C 
ATOM      7  C   UNL     1      33.996 -14.202 -21.374  0.00  0.00    +0.020 C 
ATOM      8  C   UNL     1      35.214 -17.981 -23.420  0.00  0.00    +0.106 C 
ATOM      9  C   UNL     1      34.387 -15.080 -20.243  0.00  0.00    +0.097 C 
ENDROOT
BRANCH   4  10
ATOM     10  C   UNL     1      33.757 -13.950 -23.781  0.00  0.00    +0.003 C 
ATOM     11  C   UNL     1      33.893 -12.561 -23.752  0.00  0.00    +0.013 C 
ATOM     12  C   UNL     1      33.559 -11.803 -24.873  0.00  0.00    +0.054 C 
ATOM     13  C   UNL     1      33.285 -14.579 -24.933  0.00  0.00    -0.002 C 
ATOM     14  C   UNL     1      33.086 -12.433 -26.025  0.00  0.00    +0.015 C 
ATOM     15  C   UNL     1      32.949 -13.821 -26.055  0.00  0.00    +0.001 C 
BRANCH  12  17
ATOM     16  O   UNL     1      35.951 -10.309 -25.527  0.00  0.00    -0.275 OA
ATOM     17  N   UNL     1      33.694 -10.414 -24.845  0.00  0.00    -0.257 N 
ATOM     18  C   UNL     1      32.497  -9.589 -24.496  0.00  0.00    +0.120 C 
ATOM     19  C   UNL     1      34.904  -9.734 -25.220  0.00  0.00    +0.230 C 
ATOM     20  C   UNL     1      34.885  -8.224 -25.278  0.00  0.00    +0.095 C 
ENDBRANCH  12  17
ENDBRANCH   4  10
BRANCH   6  22
ATOM     21  O   UNL     1      36.997 -19.332 -20.980  0.00  0.00    -0.290 OA
ATOM     22  C   UNL     1      35.788 -19.136 -21.214  0.00  0.00    +0.191 C 
BRANCH  22  24
ATOM     23  S   UNL     1      35.320 -21.360 -19.736  0.00  0.00    -0.084 S 
ATOM     24  C   UNL     1      34.769 -20.045 -20.636  0.00  0.00    +0.065 C 
ATOM     25  C   UNL     1      33.434 -19.939 -20.749  0.00  0.00    +0.010 C 
ATOM     26  C   UNL     1      32.796 -21.006 -20.053  0.00  0.00    +0.008 C 
ATOM     27  C   UNL     1      33.703 -21.852 -19.457  0.00  0.00    +0.036 C 
ENDBRANCH  22  24
ENDBRANCH   6  22
TORSDOF 4
ENDMDL
MODEL 2
REMARK VINA RESULT:     -11.3      1.296      2.417
REMARK  Name = 6450813
REMARK  4 active torsions:
REMARK  status: ('A' for Active; 'I' for Inactive)
REMARK    1  A    between atoms: C_4  and  C_10
REMARK    2  A    between atoms: C_6  and  C_22
REMARK    3  A    between atoms: C_12  and  N_17
REMARK    4  A    between atoms: C_22  and  C_24
REMARK                            x       y       z     vdW  Elec       q    Type
REMARK                         _______ _______ _______ _____ _____    ______ ____
ROOT
ATOM      1  N   UNL     1      34.246 -16.893 -23.851  0.00  0.00    -0.191 N 
ATOM      2  N   UNL     1      34.488 -15.940 -22.908  0.00  0.00    -0.179 NA
ATOM      3  N   UNL     1      34.491 -19.273 -24.162  0.00  0.00    -0.231 NA
ATOM      4  C   UNL     1      33.700 -16.721 -25.134  0.00  0.00    +0.143 C 
ATOM      5  C   UNL     1      34.629 -18.157 -23.392  0.00  0.00    +0.141 C 
ATOM      6  C   UNL     1      35.118 -17.980 -22.117  0.00  0.00    +0.161 C 
ATOM      7  C   UNL     1      33.546 -17.795 -25.927  0.00  0.00    +0.020 C 
ATOM      8  C   UNL     1      35.007 -16.605 -21.878  0.00  0.00    +0.106 C 
ATOM      9  C   UNL     1      33.987 -19.086 -25.342  0.00  0.00    +0.097 C 
ENDROOT
BRANCH   4  10
ATOM     10  C   UNL     1      33.279 -15.397 -25.627  0.00  0.00    +0.003 C 
ATOM     11  C   UNL     1      33.524 -14.256 -24.862  0.00  0.00    +0.013 C 
ATOM     12  C   UNL     1      33.127 -13.004 -25.328  0.00  0.00    +0.054 C 
ATOM     13  C   UNL     1      32.635 -15.284 -26.859  0.00  0.00    -0.002 C 
ATOM     14  C   UNL     1      32.482 -12.891 -26.560  0.00  0.00    +0.015 C 
ATOM     15  C   UNL     1      32.236 -14.031 -27.326  0.00  0.00    +0.001 C 
BRANCH  12  17
ATOM     16  O   UNL     1      35.004 -10.894 -25.965  0.00  0.00    -0.275 OA
ATOM     17  N   UNL     1      33.371 -11.862 -24.563  0.00  0.00    -0.257 N 
ATOM     18  C   UNL     1      32.569 -11.654 -23.318  0.00  0.00    +0.120 C 
ATOM     19  C   UNL     1      34.293 -10.833 -24.959  0.00  0.00    +0.230 C 
ATOM     20  C   UNL     1      34.371  -9.581 -24.115  0.00  0.00    +0.095 C 
ENDBRANCH  12  17
ENDBRANCH   4  10
BRANCH   6  22
ATOM     21  O   UNL     1      36.840 -19.118 -21.006  0.00  0.00    -0.290 OA
ATOM     22  C   UNL     1      35.624 -19.007 -21.258  0.00  0.00    +0.191 C 
BRANCH  22  24
ATOM     23  S   UNL     1      35.282 -21.263 -19.796  0.00  0.00    -0.084 S 
ATOM     24  C   UNL     1      34.656 -19.956 -20.658  0.00  0.00    +0.065 C 
ATOM     25  C   UNL     1      33.315 -19.894 -20.722  0.00  0.00    +0.010 C 
ATOM     26  C   UNL     1      32.737 -20.989 -20.019  0.00  0.00    +0.008 C 
ATOM     27  C   UNL     1      33.693 -21.813 -19.467  0.00  0.00    +0.036 C 
ENDBRANCH  22  24
ENDBRANCH   6  22
TORSDOF 4
ENDMDL
MODEL 3
REMARK VINA RESULT:     -11.2      1.168      2.173
REMARK  Name = 6450813
REMARK  4 active torsions:
REMARK  status: ('A' for Active; 'I' for Inactive)
REMARK    1  A    between atoms: C_4  and  C_10
REMARK    2  A    between atoms: C_6  and  C_22
REMARK    3  A    between atoms: C_12  and  N_17
REMARK    4  A    between atoms: C_22  and  C_24
REMARK                            x       y       z     vdW  Elec       q    Type
REMARK                         _______ _______ _______ _____ _____    ______ ____
ROOT
ATOM      1  N   UNL     1      34.313 -15.656 -22.544  0.00  0.00    -0.191 N 
ATOM      2  N   UNL     1      34.409 -15.292 -21.234  0.00  0.00    -0.179 NA
ATOM      3  N   UNL     1      34.781 -17.549 -23.963  0.00  0.00    -0.231 NA
ATOM      4  C   UNL     1      33.842 -14.888 -23.622  0.00  0.00    +0.143 C 
ATOM      5  C   UNL     1      34.771 -16.963 -22.733  0.00  0.00    +0.141 C 
ATOM      6  C   UNL     1      35.155 -17.427 -21.495  0.00  0.00    +0.161 C 
ATOM      7  C   UNL     1      33.835 -15.427 -24.853  0.00  0.00    +0.020 C 
ATOM      8  C   UNL     1      34.911 -16.362 -20.620  0.00  0.00    +0.106 C 
ATOM      9  C   UNL     1      34.343 -16.818 -24.941  0.00  0.00    +0.097 C 
ENDROOT
BRANCH   4  10
ATOM     10  C   UNL     1      33.344 -13.513 -23.436  0.00  0.00    +0.003 C 
ATOM     11  C   UNL     1      33.687 -12.515 -24.350  0.00  0.00    +0.013 C 
ATOM     12  C   UNL     1      33.215 -11.215 -24.175  0.00  0.00    +0.054 C 
ATOM     13  C   UNL     1      32.528 -13.208 -22.347  0.00  0.00    -0.002 C 
ATOM     14  C   UNL     1      32.400 -10.911 -23.085  0.00  0.00    +0.015 C 
ATOM     15  C   UNL     1      32.056 -11.907 -22.171  0.00  0.00    +0.001 C 
BRANCH  12  17
ATOM     16  O   UNL     1      35.505  -9.454 -23.994  0.00  0.00    -0.275 OA
ATOM     17  N   UNL     1      33.559 -10.217 -25.088  0.00  0.00    -0.257 N 
ATOM     18  C   UNL     1      32.714 -10.048 -26.310  0.00  0.00    +0.120 C 
ATOM     19  C   UNL     1      34.735  -9.401 -24.956  0.00  0.00    +0.230 C 
ATOM     20  C   UNL     1      35.072  -8.447 -26.078  0.00  0.00    +0.095 C 
ENDBRANCH  12  17
ENDBRANCH   4  10
BRANCH   6  22
ATOM     21  O   UNL     1      36.891 -18.999 -21.387  0.00  0.00    -0.290 OA
ATOM     22  C   UNL     1      35.688 -18.725 -21.210  0.00  0.00    +0.191 C 
BRANCH  22  24
ATOM     23  S   UNL     1      35.446 -21.058 -19.852  0.00  0.00    -0.084 S 
ATOM     24  C   UNL     1      34.765 -19.760 -20.685  0.00  0.00    +0.065 C 
ATOM     25  C   UNL     1      33.427 -19.783 -20.797  0.00  0.00    +0.010 C 
ATOM     26  C   UNL     1      32.899 -20.942 -20.161  0.00  0.00    +0.008 C 
ATOM     27  C   UNL     1      33.888 -21.724 -19.606  0.00  0.00    +0.036 C 
ENDBRANCH  22  24
ENDBRANCH   6  22
TORSDOF 4
ENDMDL
MODEL 4
REMARK VINA RESULT:     -10.9      3.200      8.819
REMARK  Name = 6450813
REMARK  4 active torsions:
REMARK  status: ('A' for Active; 'I' for Inactive)
REMARK    1  A    between atoms: C_4  and  C_10
REMARK    2  A    between atoms: C_6  and  C_22
REMARK    3  A    between atoms: C_12  and  N_17
REMARK    4  A    between atoms: C_22  and  C_24
REMARK                            x       y       z     vdW  Elec       q    Type
REMARK                         _______ _______ _______ _____ _____    ______ ____
ROOT
ATOM      1  N   UNL     1      34.358 -16.056 -22.811  0.00  0.00    -0.191 N 
ATOM      2  N   UNL     1      34.585 -15.473 -21.601  0.00  0.00    -0.179 NA
ATOM      3  N   UNL     1      33.576 -15.467 -25.016  0.00  0.00    -0.231 NA
ATOM      4  C   UNL     1      34.537 -17.403 -23.170  0.00  0.00    +0.143 C 
ATOM      5  C   UNL     1      33.883 -15.119 -23.734  0.00  0.00    +0.141 C 
ATOM      6  C   UNL     1      33.823 -13.913 -23.074  0.00  0.00    +0.161 C 
ATOM      7  C   UNL     1      34.246 -17.789 -24.423  0.00  0.00    +0.020 C 
ATOM      8  C   UNL     1      34.263 -14.193 -21.775  0.00  0.00    +0.106 C 
ATOM      9  C   UNL     1      33.749 -16.716 -25.320  0.00  0.00    +0.097 C 
ENDROOT
BRANCH   4  10
ATOM     10  C   UNL     1      35.049 -18.399 -22.211  0.00  0.00    +0.003 C 
ATOM     11  C   UNL     1      34.161 -19.218 -21.512  0.00  0.00    +0.013 C 
ATOM     12  C   UNL     1      34.645 -20.161 -20.606  0.00  0.00    +0.054 C 
ATOM     13  C   UNL     1      36.422 -18.525 -22.002  0.00  0.00    -0.002 C 
ATOM     14  C   UNL     1      36.018 -20.285 -20.397  0.00  0.00    +0.015 C 
ATOM     15  C   UNL     1      36.908 -19.467 -21.095  0.00  0.00    +0.001 C 
BRANCH  12  17
ATOM     16  O   UNL     1      35.365 -22.297 -18.790  0.00  0.00    -0.275 OA
ATOM     17  N   UNL     1      33.757 -20.979 -19.907  0.00  0.00    -0.257 N 
ATOM     18  C   UNL     1      32.291 -20.723 -20.048  0.00  0.00    +0.120 C 
ATOM     19  C   UNL     1      34.185 -22.000 -18.989  0.00  0.00    +0.230 C 
ATOM     20  C   UNL     1      33.129 -22.729 -18.190  0.00  0.00    +0.095 C 
ENDBRANCH  12  17
ENDBRANCH   4  10
BRANCH   6  22
ATOM     21  O   UNL     1      33.795 -12.268 -24.743  0.00  0.00    -0.290 OA
ATOM     22  C   UNL     1      33.393 -12.667 -23.633  0.00  0.00    +0.191 C 
BRANCH  22  24
ATOM     23  S   UNL     1      32.425 -10.183 -23.146  0.00  0.00    -0.084 S 
ATOM     24  C   UNL     1      32.438 -11.844 -22.853  0.00  0.00    +0.065 C 
ATOM     25  C   UNL     1      31.567 -12.275 -21.925  0.00  0.00    +0.010 C 
ATOM     26  C   UNL     1      30.823 -11.179 -21.402  0.00  0.00    +0.008 C 
ATOM     27  C   UNL     1      31.188  -9.983 -21.978  0.00  0.00    +0.036 C 
ENDBRANCH  22  24
ENDBRANCH   6  22
TORSDOF 4
ENDMDL
MODEL 5
REMARK VINA RESULT:     -10.9      3.310      5.321
REMARK  Name = 6450813
REMARK  4 active torsions:
REMARK  status: ('A' for Active; 'I' for Inactive)
REMARK    1  A    between atoms: C_4  and  C_10
REMARK    2  A    between atoms: C_6  and  C_22
REMARK    3  A    between atoms: C_12  and  N_17
REMARK    4  A    between atoms: C_22  and  C_24
REMARK                            x       y       z     vdW  Elec       q    Type
REMARK                         _______ _______ _______ _____ _____    ______ ____
ROOT
ATOM      1  N   UNL     1      34.289 -19.889 -20.493  0.00  0.00    -0.191 N 
ATOM      2  N   UNL     1      32.933 -19.766 -20.556  0.00  0.00    -0.179 NA
ATOM      3  N   UNL     1      35.957 -21.451 -19.722  0.00  0.00    -0.231 NA
ATOM      4  C   UNL     1      35.261 -18.972 -20.926  0.00  0.00    +0.143 C 
ATOM      5  C   UNL     1      34.652 -21.103 -19.902  0.00  0.00    +0.141 C 
ATOM      6  C   UNL     1      33.480 -21.758 -19.597  0.00  0.00    +0.161 C 
ATOM      7  C   UNL     1      36.560 -19.275 -20.766  0.00  0.00    +0.020 C 
ATOM      8  C   UNL     1      32.465 -20.892 -20.019  0.00  0.00    +0.106 C 
ATOM      9  C   UNL     1      36.834 -20.586 -20.128  0.00  0.00    +0.097 C 
ENDROOT
BRANCH   4  10
ATOM     10  C   UNL     1      34.893 -17.694 -21.562  0.00  0.00    +0.003 C 
ATOM     11  C   UNL     1      34.555 -17.658 -22.916  0.00  0.00    +0.013 C 
ATOM     12  C   UNL     1      34.207 -16.450 -23.517  0.00  0.00    +0.054 C 
ATOM     13  C   UNL     1      34.882 -16.519 -20.811  0.00  0.00    -0.002 C 
ATOM     14  C   UNL     1      34.196 -15.275 -22.766  0.00  0.00    +0.015 C 
ATOM     15  C   UNL     1      34.534 -15.309 -21.412  0.00  0.00    +0.001 C 
BRANCH  12  17
ATOM     16  O   UNL     1      33.053 -14.200 -24.928  0.00  0.00    -0.275 OA
ATOM     17  N   UNL     1      33.870 -16.414 -24.871  0.00  0.00    -0.257 N 
ATOM     18  C   UNL     1      34.165 -17.615 -25.711  0.00  0.00    +0.120 C 
ATOM     19  C   UNL     1      33.334 -15.247 -25.517  0.00  0.00    +0.230 C 
ATOM     20  C   UNL     1      33.136 -15.288 -27.015  0.00  0.00    +0.095 C 
ENDBRANCH  12  17
ENDBRANCH   4  10
BRANCH   6  22
ATOM     21  O   UNL     1      33.587 -24.100 -19.606  0.00  0.00    -0.290 OA
ATOM     22  C   UNL     1      33.370 -23.044 -18.979  0.00  0.00    +0.191 C 
BRANCH  22  24
ATOM     23  S   UNL     1      34.230 -23.250 -16.417  0.00  0.00    -0.084 S 
ATOM     24  C   UNL     1      32.988 -23.101 -17.548  0.00  0.00    +0.065 C 
ATOM     25  C   UNL     1      31.746 -23.046 -17.038  0.00  0.00    +0.010 C 
ATOM     26  C   UNL     1      31.792 -23.131 -15.618  0.00  0.00    +0.008 C 
ATOM     27  C   UNL     1      33.081 -23.246 -15.147  0.00  0.00    +0.036 C 
ENDBRANCH  22  24
ENDBRANCH   6  22
TORSDOF 4
ENDMDL
MODEL 6
REMARK VINA RESULT:     -10.8      6.706     12.669
REMARK  Name = 6450813
REMARK  4 active torsions:
REMARK  status: ('A' for Active; 'I' for Inactive)
REMARK    1  A    between atoms: C_4  and  C_10
REMARK    2  A    between atoms: C_6  and  C_22
REMARK    3  A    between atoms: C_12  and  N_17
REMARK    4  A    between atoms: C_22  and  C_24
REMARK                            x       y       z     vdW  Elec       q    Type
REMARK                         _______ _______ _______ _____ _____    ______ ____
ROOT
ATOM      1  N   UNL     1      33.815 -22.904 -16.892  0.00  0.00    -0.191 N 
ATOM      2  N   UNL     1      35.119 -22.685 -17.222  0.00  0.00    -0.179 NA
ATOM      3  N   UNL     1      31.605 -22.488 -17.763  0.00  0.00    -0.231 NA
ATOM      4  C   UNL     1      33.309 -23.536 -15.743  0.00  0.00    +0.143 C 
ATOM      5  C   UNL     1      32.960 -22.395 -17.874  0.00  0.00    +0.141 C 
ATOM      6  C   UNL     1      33.763 -21.850 -18.850  0.00  0.00    +0.161 C 
ATOM      7  C   UNL     1      31.979 -23.648 -15.593  0.00  0.00    +0.020 C 
ATOM      8  C   UNL     1      35.071 -22.056 -18.396  0.00  0.00    +0.106 C 
ATOM      9  C   UNL     1      31.164 -23.073 -16.693  0.00  0.00    +0.097 C 
ENDROOT
BRANCH   4  10
ATOM     10  C   UNL     1      34.199 -24.089 -14.706  0.00  0.00    +0.003 C 
ATOM     11  C   UNL     1      35.407 -24.689 -15.069  0.00  0.00    +0.013 C 
ATOM     12  C   UNL     1      36.248 -25.212 -14.088  0.00  0.00    +0.054 C 
ATOM     13  C   UNL     1      33.836 -24.013 -13.362  0.00  0.00    -0.002 C 
ATOM     14  C   UNL     1      35.884 -25.136 -12.744  0.00  0.00    +0.015 C 
ATOM     15  C   UNL     1      34.677 -24.537 -12.380  0.00  0.00    +0.001 C 
BRANCH  12  17
ATOM     16  O   UNL     1      38.889 -24.368 -13.255  0.00  0.00    -0.275 OA
ATOM     17  N   UNL     1      37.455 -25.812 -14.449  0.00  0.00    -0.257 N 
ATOM     18  C   UNL     1      37.413 -27.037 -15.305  0.00  0.00    +0.120 C 
ATOM     19  C   UNL     1      38.733 -25.363 -13.967  0.00  0.00    +0.230 C 
ATOM     20  C   UNL     1      39.956 -26.177 -14.321  0.00  0.00    +0.095 C 
ENDBRANCH  12  17
ENDBRANCH   4  10
BRANCH   6  22
ATOM     21  O   UNL     1      32.186 -21.433 -20.533  0.00  0.00    -0.290 OA
ATOM     22  C   UNL     1      33.315 -21.214 -20.051  0.00  0.00    +0.191 C 
BRANCH  22  24
ATOM     23  S   UNL     1      33.610 -19.348 -21.995  0.00  0.00    -0.084 S 
ATOM     24  C   UNL     1      34.234 -20.267 -20.727  0.00  0.00    +0.065 C 
ATOM     25  C   UNL     1      35.529 -20.053 -20.440  0.00  0.00    +0.010 C 
ATOM     26  C   UNL     1      36.070 -19.066 -21.312  0.00  0.00    +0.008 C 
ATOM     27  C   UNL     1      35.135 -18.597 -22.208  0.00  0.00    +0.036 C 
ENDBRANCH  22  24
ENDBRANCH   6  22
TORSDOF 4
ENDMDL
MODEL 7
REMARK VINA RESULT:     -10.6      2.079      3.108
REMARK  Name = 6450813
REMARK  4 active torsions:
REMARK  status: ('A' for Active; 'I' for Inactive)
REMARK    1  A    between atoms: C_4  and  C_10
REMARK    2  A    between atoms: C_6  and  C_22
REMARK    3  A    between atoms: C_12  and  N_17
REMARK    4  A    between atoms: C_22  and  C_24
REMARK                            x       y       z     vdW  Elec       q    Type
REMARK                         _______ _______ _______ _____ _____    ______ ____
ROOT
ATOM      1  N   UNL     1      34.313 -15.975 -23.012  0.00  0.00    -0.191 N 
ATOM      2  N   UNL     1      34.472 -15.386 -21.794  0.00  0.00    -0.179 NA
ATOM      3  N   UNL     1      34.646 -18.114 -24.075  0.00  0.00    -0.231 NA
ATOM      4  C   UNL     1      33.838 -15.392 -24.199  0.00  0.00    +0.143 C 
ATOM      5  C   UNL     1      34.706 -17.316 -22.973  0.00  0.00    +0.141 C 
ATOM      6  C   UNL     1      35.114 -17.567 -21.682  0.00  0.00    +0.161 C 
ATOM      7  C   UNL     1      33.763 -16.143 -25.311  0.00  0.00    +0.020 C 
ATOM      8  C   UNL     1      34.949 -16.351 -21.010  0.00  0.00    +0.106 C 
ATOM      9  C   UNL     1      34.206 -17.551 -25.158  0.00  0.00    +0.097 C 
ENDROOT
BRANCH   4  10
ATOM     10  C   UNL     1      33.408 -13.983 -24.253  0.00  0.00    +0.003 C 
ATOM     11  C   UNL     1      32.896 -13.364 -23.112  0.00  0.00    +0.013 C 
ATOM     12  C   UNL     1      32.489 -12.031 -23.163  0.00  0.00    +0.054 C 
ATOM     13  C   UNL     1      33.512 -13.267 -25.446  0.00  0.00    -0.002 C 
ATOM     14  C   UNL     1      32.593 -11.316 -24.356  0.00  0.00    +0.015 C 
ATOM     15  C   UNL     1      33.105 -11.933 -25.498  0.00  0.00    +0.001 C 
BRANCH  12  17
ATOM     16  O   UNL     1      32.080 -13.280 -20.583  0.00  0.00    -0.275 OA
ATOM     17  N   UNL     1      31.977 -11.412 -22.022  0.00  0.00    -0.257 N 
ATOM     18  C   UNL     1      31.644  -9.956 -22.091  0.00  0.00    +0.120 C 
ATOM     19  C   UNL     1      31.835 -12.084 -20.759  0.00  0.00    +0.230 C 
ATOM     20  C   UNL     1      31.395 -11.271 -19.563  0.00  0.00    +0.095 C 
ENDBRANCH  12  17
ENDBRANCH   4  10
BRANCH   6  22
ATOM     21  O   UNL     1      36.815 -19.093 -21.158  0.00  0.00    -0.290 OA
ATOM     22  C   UNL     1      35.599 -18.817 -21.180  0.00  0.00    +0.191 C 
BRANCH  22  24
ATOM     23  S   UNL     1      35.202 -21.135 -19.833  0.00  0.00    -0.084 S 
ATOM     24  C   UNL     1      34.610 -19.798 -20.673  0.00  0.00    +0.065 C 
ATOM     25  C   UNL     1      33.274 -19.744 -20.807  0.00  0.00    +0.010 C 
ATOM     26  C   UNL     1      32.671 -20.873 -20.183  0.00  0.00    +0.008 C 
ATOM     27  C   UNL     1      33.604 -21.711 -19.614  0.00  0.00    +0.036 C 
ENDBRANCH  22  24
ENDBRANCH   6  22
TORSDOF 4
ENDMDL
MODEL 8
REMARK VINA RESULT:     -10.5      4.537     11.097
REMARK  Name = 6450813
REMARK  4 active torsions:
REMARK  status: ('A' for Active; 'I' for Inactive)
REMARK    1  A    between atoms: C_4  and  C_10
REMARK    2  A    between atoms: C_6  and  C_22
REMARK    3  A    between atoms: C_12  and  N_17
REMARK    4  A    between atoms: C_22  and  C_24
REMARK                            x       y       z     vdW  Elec       q    Type
REMARK                         _______ _______ _______ _____ _____    ______ ____
ROOT
ATOM      1  N   UNL     1      34.072 -21.099 -19.590  0.00  0.00    -0.191 N 
ATOM      2  N   UNL     1      32.733 -20.979 -19.816  0.00  0.00    -0.179 NA
ATOM      3  N   UNL     1      36.167 -20.369 -20.536  0.00  0.00    -0.231 NA
ATOM      4  C   UNL     1      34.715 -21.820 -18.569  0.00  0.00    +0.143 C 
ATOM      5  C   UNL     1      34.805 -20.393 -20.548  0.00  0.00    +0.141 C 
ATOM      6  C   UNL     1      33.887 -19.808 -21.391  0.00  0.00    +0.161 C 
ATOM      7  C   UNL     1      36.058 -21.824 -18.520  0.00  0.00    +0.020 C 
ATOM      8  C   UNL     1      32.640 -20.202 -20.894  0.00  0.00    +0.106 C 
ATOM      9  C   UNL     1      36.736 -21.043 -19.584  0.00  0.00    +0.097 C 
ENDROOT
BRANCH   4  10
ATOM     10  C   UNL     1      33.955 -22.559 -17.544  0.00  0.00    +0.003 C 
ATOM     11  C   UNL     1      34.620 -23.125 -16.455  0.00  0.00    +0.013 C 
ATOM     12  C   UNL     1      33.902 -23.823 -15.485  0.00  0.00    +0.054 C 
ATOM     13  C   UNL     1      32.572 -22.691 -17.661  0.00  0.00    -0.002 C 
ATOM     14  C   UNL     1      32.518 -23.956 -15.603  0.00  0.00    +0.015 C 
ATOM     15  C   UNL     1      31.853 -23.390 -16.691  0.00  0.00    +0.001 C 
BRANCH  12  17
ATOM     16  O   UNL     1      36.028 -25.784 -15.618  0.00  0.00    -0.275 OA
ATOM     17  N   UNL     1      34.565 -24.391 -14.396  0.00  0.00    -0.257 N 
ATOM     18  C   UNL     1      34.203 -23.929 -13.022  0.00  0.00    +0.120 C 
ATOM     19  C   UNL     1      35.641 -25.334 -14.536  0.00  0.00    +0.230 C 
ATOM     20  C   UNL     1      36.371 -25.775 -13.288  0.00  0.00    +0.095 C 
ENDBRANCH  12  17
ENDBRANCH   4  10
BRANCH   6  22
ATOM     21  O   UNL     1      34.294 -19.454 -23.672  0.00  0.00    -0.290 OA
ATOM     22  C   UNL     1      34.188 -18.984 -22.522  0.00  0.00    +0.191 C 
BRANCH  22  24
ATOM     23  S   UNL     1      34.292 -16.521 -23.648  0.00  0.00    -0.084 S 
ATOM     24  C   UNL     1      34.372 -17.530 -22.299  0.00  0.00    +0.065 C 
ATOM     25  C   UNL     1      34.598 -16.913 -21.127  0.00  0.00    +0.010 C 
ATOM     26  C   UNL     1      34.719 -15.508 -21.326  0.00  0.00    +0.008 C 
ATOM     27  C   UNL     1      34.573 -15.157 -22.649  0.00  0.00    +0.036 C 
ENDBRANCH  22  24
ENDBRANCH   6  22
TORSDOF 4
ENDMDL
MODEL 9
REMARK VINA RESULT:     -10.3      2.624      4.009
REMARK  Name = 6450813
REMARK  4 active torsions:
REMARK  status: ('A' for Active; 'I' for Inactive)
REMARK    1  A    between atoms: C_4  and  C_10
REMARK    2  A    between atoms: C_6  and  C_22
REMARK    3  A    between atoms: C_12  and  N_17
REMARK    4  A    between atoms: C_22  and  C_24
REMARK                            x       y       z     vdW  Elec       q    Type
REMARK                         _______ _______ _______ _____ _____    ______ ____
ROOT
ATOM      1  N   UNL     1      33.797 -14.418 -24.211  0.00  0.00    -0.191 N 
ATOM      2  N   UNL     1      34.348 -14.418 -22.965  0.00  0.00    -0.179 NA
ATOM      3  N   UNL     1      33.222 -15.971 -25.965  0.00  0.00    -0.231 NA
ATOM      4  C   UNL     1      33.343 -13.316 -24.956  0.00  0.00    +0.143 C 
ATOM      5  C   UNL     1      33.729 -15.716 -24.726  0.00  0.00    +0.141 C 
ATOM      6  C   UNL     1      34.248 -16.549 -23.760  0.00  0.00    +0.161 C 
ATOM      7  C   UNL     1      32.836 -13.522 -26.183  0.00  0.00    +0.020 C 
ATOM      8  C   UNL     1      34.609 -15.699 -22.709  0.00  0.00    +0.106 C 
ATOM      9  C   UNL     1      32.811 -14.936 -26.632  0.00  0.00    +0.097 C 
ENDROOT
BRANCH   4  10
ATOM     10  C   UNL     1      33.397 -11.943 -24.421  0.00  0.00    +0.003 C 
ATOM     11  C   UNL     1      32.498 -11.543 -23.431  0.00  0.00    +0.013 C 
ATOM     12  C   UNL     1      32.548 -10.245 -22.924  0.00  0.00    +0.054 C 
ATOM     13  C   UNL     1      34.346 -11.043 -24.903  0.00  0.00    -0.002 C 
ATOM     14  C   UNL     1      33.498  -9.345 -23.408  0.00  0.00    +0.015 C 
ATOM     15  C   UNL     1      34.397  -9.744 -24.398  0.00  0.00    +0.001 C 
BRANCH  12  17
ATOM     16  O   UNL     1      31.873 -11.729 -20.532  0.00  0.00    -0.275 OA
ATOM     17  N   UNL     1      31.649  -9.845 -21.935  0.00  0.00    -0.257 N 
ATOM     18  C   UNL     1      30.994  -8.507 -22.068  0.00  0.00    +0.120 C 
ATOM     19  C   UNL     1      31.388 -10.616 -20.750  0.00  0.00    +0.230 C 
ATOM     20  C   UNL     1      30.498 -10.013 -19.688  0.00  0.00    +0.095 C 
ENDBRANCH  12  17
ENDBRANCH   4  10
BRANCH   6  22
ATOM     21  O   UNL     1      34.319 -18.569 -24.948  0.00  0.00    -0.290 OA
ATOM     22  C   UNL     1      34.374 -17.972 -23.855  0.00  0.00    +0.191 C 
BRANCH  22  24
ATOM     23  S   UNL     1      36.148 -18.809 -21.985  0.00  0.00    -0.084 S 
ATOM     24  C   UNL     1      34.581 -18.740 -22.604  0.00  0.00    +0.065 C 
ATOM     25  C   UNL     1      33.649 -19.398 -21.895  0.00  0.00    +0.010 C 
ATOM     26  C   UNL     1      34.241 -20.012 -20.755  0.00  0.00    +0.008 C 
ATOM     27  C   UNL     1      35.595 -19.773 -20.681  0.00  0.00    +0.036 C 
ENDBRANCH  22  24
ENDBRANCH   6  22
TORSDOF 4
ENDMDL
