MODEL 1
REMARK VINA RESULT:     -12.3      0.000      0.000
REMARK  Name = 445480
REMARK  5 active torsions:
REMARK  status: ('A' for Active; 'I' for Inactive)
REMARK    1  A    between atoms: N_2  and  C_21
REMARK    2  A    between atoms: C_3  and  N_7
REMARK    3  A    between atoms: N_7  and  S_9
REMARK    4  A    between atoms: S_9  and  C_14
REMARK    5  A    between atoms: C_21  and  C_24
REMARK                            x       y       z     vdW  Elec       q    Type
REMARK                         _______ _______ _______ _____ _____    ______ ____
ROOT
ATOM      1  O   UNL     1      36.142 -21.015 -19.933  0.00  0.00    -0.273 OA
ATOM      2  N   UNL     1      34.686 -19.729 -21.259  0.00  0.00    -0.274 N 
ATOM      3  C   UNL     1      33.740 -21.385 -19.920  0.00  0.00    +0.153 C 
ATOM      4  C   UNL     1      32.667 -20.382 -20.324  0.00  0.00    +0.048 C 
ATOM      5  C   UNL     1      33.268 -19.684 -21.529  0.00  0.00    +0.096 C 
ATOM      6  C   UNL     1      35.027 -20.713 -20.330  0.00  0.00    +0.242 C 
ENDROOT
BRANCH   3   7
ATOM      7  N   UNL     1      33.744 -21.600 -18.468  0.00  0.00    -0.171 NA
ATOM      8  H   UNL     1      34.719 -21.625 -18.167  0.00  0.00    +0.149 HD
BRANCH   7   9
ATOM      9  S   UNL     1      32.986 -23.012 -17.859  0.00  0.00    +0.066 S 
ATOM     10  O   UNL     1      33.372 -24.150 -18.672  0.00  0.00    -0.152 OA
ATOM     11  O   UNL     1      31.593 -22.722 -17.583  0.00  0.00    -0.152 OA
BRANCH   9  14
ATOM     12  S   UNL     1      35.308 -22.875 -16.095  0.00  0.00    -0.066 S 
ATOM     13  N   UNL     1      33.883 -24.379 -12.802  0.00  0.00    -0.243 NA
ATOM     14  C   UNL     1      33.682 -23.326 -16.237  0.00  0.00    +0.153 C 
ATOM     15  C   UNL     1      33.150 -23.854 -15.111  0.00  0.00    +0.046 C 
ATOM     16  C   UNL     1      34.111 -23.902 -14.057  0.00  0.00    +0.089 C 
ATOM     17  C   UNL     1      35.348 -23.394 -14.457  0.00  0.00    +0.048 C 
ATOM     18  C   UNL     1      36.418 -23.360 -13.551  0.00  0.00    +0.010 C 
ATOM     19  C   UNL     1      36.192 -23.845 -12.270  0.00  0.00    +0.021 C 
ATOM     20  C   UNL     1      34.935 -24.331 -11.960  0.00  0.00    +0.099 C 
ENDBRANCH   9  14
ENDBRANCH   7   9
ENDBRANCH   3   7
BRANCH   2  21
ATOM     21  C   UNL     1      35.624 -18.909 -21.994  0.00  0.00    +0.120 C 
BRANCH  21  24
ATOM     22  N   UNL     1      33.236 -14.058 -25.018  0.00  0.00    -0.230 NA
ATOM     23  N   UNL     1      33.787 -16.146 -25.956  0.00  0.00    -0.343 N 
ATOM     24  C   UNL     1      35.085 -17.515 -22.164  0.00  0.00    -0.002 C 
ATOM     25  C   UNL     1      34.666 -17.091 -23.418  0.00  0.00    +0.000 C 
ATOM     26  C   UNL     1      35.014 -16.671 -21.066  0.00  0.00    -0.003 C 
ATOM     27  C   UNL     1      34.163 -15.790 -23.585  0.00  0.00    +0.031 C 
ATOM     28  C   UNL     1      34.086 -14.921 -22.476  0.00  0.00    +0.004 C 
ATOM     29  C   UNL     1      34.517 -15.376 -21.219  0.00  0.00    -0.000 C 
ATOM     30  C   UNL     1      33.726 -15.302 -24.817  0.00  0.00    +0.125 C 
ATOM     31  C   UNL     1      33.582 -13.628 -22.663  0.00  0.00    +0.021 C 
ATOM     32  C   UNL     1      33.177 -13.254 -23.935  0.00  0.00    +0.100 C 
ATOM     33  H   UNL     1      33.483 -15.814 -26.831  0.00  0.00    +0.144 HD
ATOM     34  H   UNL     1      34.135 -17.063 -25.870  0.00  0.00    +0.144 HD
ENDBRANCH  21  24
ENDBRANCH   2  21
TORSDOF 5
ENDMDL
MODEL 2
REMARK VINA RESULT:     -12.2      0.977      1.830
REMARK  Name = 445480
REMARK  5 active torsions:
REMARK  status: ('A' for Active; 'I' for Inactive)
REMARK    1  A    between atoms: N_2  and  C_21
REMARK    2  A    between atoms: C_3  and  N_7
REMARK    3  A    between atoms: N_7  and  S_9
REMARK    4  A    between atoms: S_9  and  C_14
REMARK    5  A    between atoms: C_21  and  C_24
REMARK                            x       y       z     vdW  Elec       q    Type
REMARK                         _______ _______ _______ _____ _____    ______ ____
ROOT
ATOM      1  O   UNL     1      36.270 -20.914 -19.953  0.00  0.00    -0.273 OA
ATOM      2  N   UNL     1      34.757 -19.670 -21.256  0.00  0.00    -0.274 N 
ATOM      3  C   UNL     1      33.885 -21.382 -19.938  0.00  0.00    +0.153 C 
ATOM      4  C   UNL     1      32.770 -20.418 -20.324  0.00  0.00    +0.048 C 
ATOM      5  C   UNL     1      33.337 -19.678 -21.520  0.00  0.00    +0.096 C 
ATOM      6  C   UNL     1      35.141 -20.652 -20.342  0.00  0.00    +0.242 C 
ENDROOT
BRANCH   3   7
ATOM      7  N   UNL     1      33.902 -21.617 -18.490  0.00  0.00    -0.171 NA
ATOM      8  H   UNL     1      34.879 -21.720 -18.210  0.00  0.00    +0.149 HD
BRANCH   7   9
ATOM      9  S   UNL     1      33.054 -22.977 -17.882  0.00  0.00    +0.066 S 
ATOM     10  O   UNL     1      33.377 -24.141 -18.685  0.00  0.00    -0.152 OA
ATOM     11  O   UNL     1      31.678 -22.601 -17.622  0.00  0.00    -0.152 OA
BRANCH   9  14
ATOM     12  S   UNL     1      35.340 -22.896 -16.069  0.00  0.00    -0.066 S 
ATOM     13  N   UNL     1      33.830 -24.432 -12.830  0.00  0.00    -0.243 NA
ATOM     14  C   UNL     1      33.712 -23.324 -16.251  0.00  0.00    +0.153 C 
ATOM     15  C   UNL     1      33.151 -23.863 -15.145  0.00  0.00    +0.046 C 
ATOM     16  C   UNL     1      34.089 -23.939 -14.072  0.00  0.00    +0.089 C 
ATOM     17  C   UNL     1      35.340 -23.441 -14.439  0.00  0.00    +0.048 C 
ATOM     18  C   UNL     1      36.392 -23.434 -13.512  0.00  0.00    +0.010 C 
ATOM     19  C   UNL     1      36.134 -23.936 -12.243  0.00  0.00    +0.021 C 
ATOM     20  C   UNL     1      34.865 -24.410 -11.966  0.00  0.00    +0.099 C 
ENDBRANCH   9  14
ENDBRANCH   7   9
ENDBRANCH   3   7
BRANCH   2  21
ATOM     21  C   UNL     1      35.658 -18.801 -21.982  0.00  0.00    +0.120 C 
BRANCH  21  24
ATOM     22  N   UNL     1      33.118 -14.327 -25.433  0.00  0.00    -0.230 NA
ATOM     23  N   UNL     1      34.099 -14.057 -23.310  0.00  0.00    -0.343 N 
ATOM     24  C   UNL     1      34.965 -18.200 -23.173  0.00  0.00    -0.002 C 
ATOM     25  C   UNL     1      34.692 -16.839 -23.193  0.00  0.00    +0.000 C 
ATOM     26  C   UNL     1      34.604 -19.015 -24.236  0.00  0.00    -0.003 C 
ATOM     27  C   UNL     1      34.044 -16.271 -24.302  0.00  0.00    +0.031 C 
ATOM     28  C   UNL     1      33.671 -17.088 -25.391  0.00  0.00    +0.004 C 
ATOM     29  C   UNL     1      33.959 -18.462 -25.343  0.00  0.00    -0.000 C 
ATOM     30  C   UNL     1      33.741 -14.911 -24.385  0.00  0.00    +0.125 C 
ATOM     31  C   UNL     1      33.025 -16.503 -26.486  0.00  0.00    +0.021 C 
ATOM     32  C   UNL     1      32.777 -15.140 -26.456  0.00  0.00    +0.100 C 
ATOM     33  H   UNL     1      33.892 -13.096 -23.355  0.00  0.00    +0.144 HD
ATOM     34  H   UNL     1      34.555 -14.426 -22.519  0.00  0.00    +0.144 HD
ENDBRANCH  21  24
ENDBRANCH   2  21
TORSDOF 5
ENDMDL
MODEL 3
REMARK VINA RESULT:     -12.2      4.962     11.223
REMARK  Name = 445480
REMARK  5 active torsions:
REMARK  status: ('A' for Active; 'I' for Inactive)
REMARK    1  A    between atoms: N_2  and  C_21
REMARK    2  A    between atoms: C_3  and  N_7
REMARK    3  A    between atoms: N_7  and  S_9
REMARK    4  A    between atoms: S_9  and  C_14
REMARK    5  A    between atoms: C_21  and  C_24
REMARK                            x       y       z     vdW  Elec       q    Type
REMARK                         _______ _______ _______ _____ _____    ______ ____
ROOT
ATOM      1  O   UNL     1      34.810 -16.068 -23.344  0.00  0.00    -0.273 OA
ATOM      2  N   UNL     1      34.927 -18.416 -23.393  0.00  0.00    -0.274 N 
ATOM      3  C   UNL     1      33.748 -17.363 -25.105  0.00  0.00    +0.153 C 
ATOM      4  C   UNL     1      34.114 -18.779 -25.534  0.00  0.00    +0.048 C 
ATOM      5  C   UNL     1      34.415 -19.481 -24.224  0.00  0.00    +0.096 C 
ATOM      6  C   UNL     1      34.562 -17.151 -23.853  0.00  0.00    +0.242 C 
ENDROOT
BRANCH   3   7
ATOM      7  N   UNL     1      34.151 -16.383 -26.120  0.00  0.00    -0.171 NA
ATOM      8  H   UNL     1      34.792 -15.728 -25.672  0.00  0.00    +0.149 HD
BRANCH   7   9
ATOM      9  S   UNL     1      32.924 -15.457 -26.879  0.00  0.00    +0.066 S 
ATOM     10  O   UNL     1      31.628 -16.026 -26.559  0.00  0.00    -0.152 OA
ATOM     11  O   UNL     1      33.311 -15.189 -28.250  0.00  0.00    -0.152 OA
BRANCH   9  14
ATOM     12  S   UNL     1      32.905 -12.558 -27.223  0.00  0.00    -0.066 S 
ATOM     13  N   UNL     1      32.989 -11.328 -23.533  0.00  0.00    -0.243 NA
ATOM     14  C   UNL     1      32.936 -13.836 -26.112  0.00  0.00    +0.153 C 
ATOM     15  C   UNL     1      32.966 -13.448 -24.817  0.00  0.00    +0.046 C 
ATOM     16  C   UNL     1      32.964 -12.026 -24.702  0.00  0.00    +0.089 C 
ATOM     17  C   UNL     1      32.932 -11.402 -25.950  0.00  0.00    +0.048 C 
ATOM     18  C   UNL     1      32.924 -10.003 -26.035  0.00  0.00    +0.010 C 
ATOM     19  C   UNL     1      32.950  -9.286 -24.847  0.00  0.00    +0.021 C 
ATOM     20  C   UNL     1      32.981  -9.985 -23.654  0.00  0.00    +0.099 C 
ENDBRANCH   9  14
ENDBRANCH   7   9
ENDBRANCH   3   7
BRANCH   2  21
ATOM     21  C   UNL     1      35.629 -18.690 -22.158  0.00  0.00    +0.120 C 
BRANCH  21  24
ATOM     22  N   UNL     1      34.536 -22.798 -17.651  0.00  0.00    -0.230 NA
ATOM     23  N   UNL     1      36.642 -21.957 -18.284  0.00  0.00    -0.343 N 
ATOM     24  C   UNL     1      34.804 -19.580 -21.269  0.00  0.00    -0.002 C 
ATOM     25  C   UNL     1      35.431 -20.349 -20.298  0.00  0.00    +0.000 C 
ATOM     26  C   UNL     1      33.428 -19.622 -21.433  0.00  0.00    -0.003 C 
ATOM     27  C   UNL     1      34.668 -21.184 -19.466  0.00  0.00    +0.031 C 
ATOM     28  C   UNL     1      33.266 -21.237 -19.621  0.00  0.00    +0.004 C 
ATOM     29  C   UNL     1      32.659 -20.448 -20.612  0.00  0.00    -0.000 C 
ATOM     30  C   UNL     1      35.235 -21.982 -18.471  0.00  0.00    +0.125 C 
ATOM     31  C   UNL     1      32.523 -22.075 -18.782  0.00  0.00    +0.021 C 
ATOM     32  C   UNL     1      33.197 -22.822 -17.828  0.00  0.00    +0.100 C 
ATOM     33  H   UNL     1      37.056 -22.514 -17.587  0.00  0.00    +0.144 HD
ATOM     34  H   UNL     1      37.203 -21.381 -18.852  0.00  0.00    +0.144 HD
ENDBRANCH  21  24
ENDBRANCH   2  21
TORSDOF 5
ENDMDL
MODEL 4
REMARK VINA RESULT:     -12.2      5.122     10.912
REMARK  Name = 445480
REMARK  5 active torsions:
REMARK  status: ('A' for Active; 'I' for Inactive)
REMARK    1  A    between atoms: N_2  and  C_21
REMARK    2  A    between atoms: C_3  and  N_7
REMARK    3  A    between atoms: N_7  and  S_9
REMARK    4  A    between atoms: S_9  and  C_14
REMARK    5  A    between atoms: C_21  and  C_24
REMARK                            x       y       z     vdW  Elec       q    Type
REMARK                         _______ _______ _______ _____ _____    ______ ____
ROOT
ATOM      1  O   UNL     1      35.291 -15.928 -23.612  0.00  0.00    -0.273 OA
ATOM      2  N   UNL     1      35.384 -18.248 -23.240  0.00  0.00    -0.274 N 
ATOM      3  C   UNL     1      33.934 -17.483 -24.897  0.00  0.00    +0.153 C 
ATOM      4  C   UNL     1      34.213 -18.966 -25.109  0.00  0.00    +0.048 C 
ATOM      5  C   UNL     1      34.730 -19.427 -23.759  0.00  0.00    +0.096 C 
ATOM      6  C   UNL     1      34.953 -17.076 -23.861  0.00  0.00    +0.242 C 
ENDROOT
BRANCH   3   7
ATOM      7  N   UNL     1      34.163 -16.721 -26.130  0.00  0.00    -0.171 NA
ATOM      8  H   UNL     1      34.913 -16.056 -25.941  0.00  0.00    +0.149 HD
BRANCH   7   9
ATOM      9  S   UNL     1      32.850 -15.836 -26.787  0.00  0.00    +0.066 S 
ATOM     10  O   UNL     1      31.603 -16.410 -26.316  0.00  0.00    -0.152 OA
ATOM     11  O   UNL     1      33.088 -15.610 -28.199  0.00  0.00    -0.152 OA
BRANCH   9  14
ATOM     12  S   UNL     1      32.924 -12.952 -27.233  0.00  0.00    -0.066 S 
ATOM     13  N   UNL     1      33.053 -11.596 -23.589  0.00  0.00    -0.243 NA
ATOM     14  C   UNL     1      32.915 -14.191 -26.078  0.00  0.00    +0.153 C 
ATOM     15  C   UNL     1      32.960 -13.758 -24.797  0.00  0.00    +0.046 C 
ATOM     16  C   UNL     1      33.003 -12.333 -24.732  0.00  0.00    +0.089 C 
ATOM     17  C   UNL     1      32.990 -11.754 -26.002  0.00  0.00    +0.048 C 
ATOM     18  C   UNL     1      33.027 -10.359 -26.137  0.00  0.00    +0.010 C 
ATOM     19  C   UNL     1      33.079  -9.602 -24.975  0.00  0.00    +0.021 C 
ATOM     20  C   UNL     1      33.089 -10.259 -23.758  0.00  0.00    +0.099 C 
ENDBRANCH   9  14
ENDBRANCH   7   9
ENDBRANCH   3   7
BRANCH   2  21
ATOM     21  C   UNL     1      36.285 -18.318 -22.111  0.00  0.00    +0.120 C 
BRANCH  21  24
ATOM     22  N   UNL     1      32.298 -21.907 -19.013  0.00  0.00    -0.230 NA
ATOM     23  N   UNL     1      31.739 -20.229 -20.567  0.00  0.00    -0.343 N 
ATOM     24  C   UNL     1      35.849 -19.392 -21.153  0.00  0.00    -0.002 C 
ATOM     25  C   UNL     1      34.496 -19.647 -20.979  0.00  0.00    +0.000 C 
ATOM     26  C   UNL     1      36.806 -20.113 -20.454  0.00  0.00    -0.003 C 
ATOM     27  C   UNL     1      34.081 -20.647 -20.085  0.00  0.00    +0.031 C 
ATOM     28  C   UNL     1      35.043 -21.389 -19.367  0.00  0.00    +0.004 C 
ATOM     29  C   UNL     1      36.406 -21.109 -19.563  0.00  0.00    -0.000 C 
ATOM     30  C   UNL     1      32.737 -20.953 -19.864  0.00  0.00    +0.125 C 
ATOM     31  C   UNL     1      34.610 -22.382 -18.481  0.00  0.00    +0.021 C 
ATOM     32  C   UNL     1      33.247 -22.597 -18.344  0.00  0.00    +0.100 C 
ATOM     33  H   UNL     1      30.788 -20.434 -20.421  0.00  0.00    +0.144 HD
ATOM     34  H   UNL     1      31.999 -19.522 -21.201  0.00  0.00    +0.144 HD
ENDBRANCH  21  24
ENDBRANCH   2  21
TORSDOF 5
ENDMDL
MODEL 5
REMARK VINA RESULT:     -11.7      3.064     10.687
REMARK  Name = 445480
REMARK  5 active torsions:
REMARK  status: ('A' for Active; 'I' for Inactive)
REMARK    1  A    between atoms: N_2  and  C_21
REMARK    2  A    between atoms: C_3  and  N_7
REMARK    3  A    between atoms: N_7  and  S_9
REMARK    4  A    between atoms: S_9  and  C_14
REMARK    5  A    between atoms: C_21  and  C_24
REMARK                            x       y       z     vdW  Elec       q    Type
REMARK                         _______ _______ _______ _____ _____    ______ ____
ROOT
ATOM      1  O   UNL     1      35.808 -21.064 -20.493  0.00  0.00    -0.273 OA
ATOM      2  N   UNL     1      33.747 -21.740 -19.584  0.00  0.00    -0.274 N 
ATOM      3  C   UNL     1      33.827 -19.664 -20.639  0.00  0.00    +0.153 C 
ATOM      4  C   UNL     1      32.379 -20.129 -20.539  0.00  0.00    +0.048 C 
ATOM      5  C   UNL     1      32.420 -21.187 -19.452  0.00  0.00    +0.096 C 
ATOM      6  C   UNL     1      34.620 -20.891 -20.263  0.00  0.00    +0.242 C 
ENDROOT
BRANCH   3   7
ATOM      7  N   UNL     1      34.162 -19.269 -22.012  0.00  0.00    -0.171 NA
ATOM      8  H   UNL     1      34.657 -20.051 -22.441  0.00  0.00    +0.149 HD
BRANCH   7   9
ATOM      9  S   UNL     1      35.128 -17.870 -22.236  0.00  0.00    +0.066 S 
ATOM     10  O   UNL     1      36.462 -18.271 -22.643  0.00  0.00    -0.152 OA
ATOM     11  O   UNL     1      34.921 -16.966 -21.122  0.00  0.00    -0.152 OA
BRANCH   9  14
ATOM     12  S   UNL     1      34.193 -15.333 -23.335  0.00  0.00    -0.066 S 
ATOM     13  N   UNL     1      33.173 -16.367 -26.944  0.00  0.00    -0.243 NA
ATOM     14  C   UNL     1      34.450 -16.979 -23.636  0.00  0.00    +0.153 C 
ATOM     15  C   UNL     1      34.107 -17.378 -24.882  0.00  0.00    +0.046 C 
ATOM     16  C   UNL     1      33.602 -16.289 -25.654  0.00  0.00    +0.089 C 
ATOM     17  C   UNL     1      33.591 -15.097 -24.928  0.00  0.00    +0.048 C 
ATOM     18  C   UNL     1      33.127 -13.916 -25.525  0.00  0.00    +0.010 C 
ATOM     19  C   UNL     1      32.688 -13.989 -26.840  0.00  0.00    +0.021 C 
ATOM     20  C   UNL     1      32.734 -15.212 -27.484  0.00  0.00    +0.099 C 
ENDBRANCH   9  14
ENDBRANCH   7   9
ENDBRANCH   3   7
BRANCH   2  21
ATOM     21  C   UNL     1      34.113 -22.989 -18.951  0.00  0.00    +0.120 C 
BRANCH  21  24
ATOM     22  N   UNL     1      29.589 -23.173 -14.723  0.00  0.00    -0.230 NA
ATOM     23  N   UNL     1      29.307 -22.974 -17.052  0.00  0.00    -0.343 N 
ATOM     24  C   UNL     1      33.509 -23.081 -17.578  0.00  0.00    -0.002 C 
ATOM     25  C   UNL     1      32.128 -23.043 -17.433  0.00  0.00    +0.000 C 
ATOM     26  C   UNL     1      34.338 -23.200 -16.473  0.00  0.00    -0.003 C 
ATOM     27  C   UNL     1      31.556 -23.127 -16.153  0.00  0.00    +0.031 C 
ATOM     28  C   UNL     1      32.388 -23.248 -15.020  0.00  0.00    +0.004 C 
ATOM     29  C   UNL     1      33.781 -23.283 -15.196  0.00  0.00    -0.000 C 
ATOM     30  C   UNL     1      30.177 -23.095 -15.938  0.00  0.00    +0.125 C 
ATOM     31  C   UNL     1      31.799 -23.330 -13.753  0.00  0.00    +0.021 C 
ATOM     32  C   UNL     1      30.416 -23.288 -13.663  0.00  0.00    +0.100 C 
ATOM     33  H   UNL     1      28.333 -22.950 -16.916  0.00  0.00    +0.144 HD
ATOM     34  H   UNL     1      29.679 -22.913 -17.962  0.00  0.00    +0.144 HD
ENDBRANCH  21  24
ENDBRANCH   2  21
TORSDOF 5
ENDMDL
MODEL 6
REMARK VINA RESULT:     -11.7      2.922     10.818
REMARK  Name = 445480
REMARK  5 active torsions:
REMARK  status: ('A' for Active; 'I' for Inactive)
REMARK    1  A    between atoms: N_2  and  C_21
REMARK    2  A    between atoms: C_3  and  N_7
REMARK    3  A    between atoms: N_7  and  S_9
REMARK    4  A    between atoms: S_9  and  C_14
REMARK    5  A    between atoms: C_21  and  C_24
REMARK                            x       y       z     vdW  Elec       q    Type
REMARK                         _______ _______ _______ _____ _____    ______ ____
ROOT
ATOM      1  O   UNL     1      32.161 -20.531 -19.964  0.00  0.00    -0.273 OA
ATOM      2  N   UNL     1      33.978 -21.863 -19.291  0.00  0.00    -0.274 N 
ATOM      3  C   UNL     1      34.395 -20.190 -20.858  0.00  0.00    +0.153 C 
ATOM      4  C   UNL     1      35.706 -20.618 -20.208  0.00  0.00    +0.048 C 
ATOM      5  C   UNL     1      35.381 -21.975 -19.614  0.00  0.00    +0.096 C 
ATOM      6  C   UNL     1      33.343 -20.840 -19.994  0.00  0.00    +0.242 C 
ENDROOT
BRANCH   3   7
ATOM      7  N   UNL     1      34.232 -18.732 -20.809  0.00  0.00    -0.171 NA
ATOM      8  H   UNL     1      33.247 -18.531 -20.982  0.00  0.00    +0.149 HD
BRANCH   7   9
ATOM      9  S   UNL     1      35.147 -17.781 -21.904  0.00  0.00    +0.066 S 
ATOM     10  O   UNL     1      36.359 -18.495 -22.260  0.00  0.00    -0.152 OA
ATOM     11  O   UNL     1      35.192 -16.414 -21.422  0.00  0.00    -0.152 OA
BRANCH   9  14
ATOM     12  S   UNL     1      34.181 -16.109 -24.093  0.00  0.00    -0.066 S 
ATOM     13  N   UNL     1      32.137 -18.668 -26.193  0.00  0.00    -0.243 NA
ATOM     14  C   UNL     1      34.198 -17.663 -23.421  0.00  0.00    +0.153 C 
ATOM     15  C   UNL     1      33.498 -18.582 -24.123  0.00  0.00    +0.046 C 
ATOM     16  C   UNL     1      32.903 -18.004 -25.284  0.00  0.00    +0.089 C 
ATOM     17  C   UNL     1      33.195 -16.644 -25.396  0.00  0.00    +0.048 C 
ATOM     18  C   UNL     1      32.695 -15.905 -26.479  0.00  0.00    +0.010 C 
ATOM     19  C   UNL     1      31.913 -16.577 -27.408  0.00  0.00    +0.021 C 
ATOM     20  C   UNL     1      31.673 -17.926 -27.219  0.00  0.00    +0.099 C 
ENDBRANCH   9  14
ENDBRANCH   7   9
ENDBRANCH   3   7
BRANCH   2  21
ATOM     21  C   UNL     1      33.323 -22.816 -18.421  0.00  0.00    +0.120 C 
BRANCH  21  24
ATOM     22  N   UNL     1      34.201 -24.396 -12.496  0.00  0.00    -0.230 NA
ATOM     23  N   UNL     1      32.256 -24.786 -13.764  0.00  0.00    -0.343 N 
ATOM     24  C   UNL     1      34.064 -22.938 -17.119  0.00  0.00    -0.002 C 
ATOM     25  C   UNL     1      33.449 -23.548 -16.034  0.00  0.00    +0.000 C 
ATOM     26  C   UNL     1      35.354 -22.437 -17.017  0.00  0.00    -0.003 C 
ATOM     27  C   UNL     1      34.135 -23.664 -14.814  0.00  0.00    +0.031 C 
ATOM     28  C   UNL     1      35.447 -23.159 -14.697  0.00  0.00    +0.004 C 
ATOM     29  C   UNL     1      36.045 -22.546 -15.810  0.00  0.00    -0.000 C 
ATOM     30  C   UNL     1      33.574 -24.266 -13.687  0.00  0.00    +0.125 C 
ATOM     31  C   UNL     1      36.114 -23.284 -13.472  0.00  0.00    +0.021 C 
ATOM     32  C   UNL     1      35.455 -23.902 -12.421  0.00  0.00    +0.100 C 
ATOM     33  H   UNL     1      31.847 -25.212 -12.977  0.00  0.00    +0.144 HD
ATOM     34  H   UNL     1      31.750 -24.719 -14.607  0.00  0.00    +0.144 HD
ENDBRANCH  21  24
ENDBRANCH   2  21
TORSDOF 5
ENDMDL
MODEL 7
REMARK VINA RESULT:     -11.6      2.157      2.694
REMARK  Name = 445480
REMARK  5 active torsions:
REMARK  status: ('A' for Active; 'I' for Inactive)
REMARK    1  A    between atoms: N_2  and  C_21
REMARK    2  A    between atoms: C_3  and  N_7
REMARK    3  A    between atoms: N_7  and  S_9
REMARK    4  A    between atoms: S_9  and  C_14
REMARK    5  A    between atoms: C_21  and  C_24
REMARK                            x       y       z     vdW  Elec       q    Type
REMARK                         _______ _______ _______ _____ _____    ______ ____
ROOT
ATOM      1  O   UNL     1      36.481 -19.324 -20.372  0.00  0.00    -0.273 OA
ATOM      2  N   UNL     1      34.912 -18.625 -21.978  0.00  0.00    -0.274 N 
ATOM      3  C   UNL     1      34.421 -20.553 -20.764  0.00  0.00    +0.153 C 
ATOM      4  C   UNL     1      33.143 -20.003 -21.386  0.00  0.00    +0.048 C 
ATOM      5  C   UNL     1      33.648 -19.096 -22.493  0.00  0.00    +0.096 C 
ATOM      6  C   UNL     1      35.421 -19.441 -20.968  0.00  0.00    +0.242 C 
ENDROOT
BRANCH   3   7
ATOM      7  N   UNL     1      34.248 -20.795 -19.328  0.00  0.00    -0.171 NA
ATOM      8  H   UNL     1      34.851 -20.137 -18.834  0.00  0.00    +0.149 HD
BRANCH   7   9
ATOM      9  S   UNL     1      34.601 -22.360 -18.724  0.00  0.00    +0.066 S 
ATOM     10  O   UNL     1      35.851 -22.318 -17.988  0.00  0.00    -0.152 OA
ATOM     11  O   UNL     1      34.378 -23.335 -19.774  0.00  0.00    -0.152 OA
BRANCH   9  14
ATOM     12  S   UNL     1      33.972 -23.277 -16.025  0.00  0.00    -0.066 S 
ATOM     13  N   UNL     1      30.083 -23.188 -16.052  0.00  0.00    -0.243 NA
ATOM     14  C   UNL     1      33.344 -22.753 -17.508  0.00  0.00    +0.153 C 
ATOM     15  C   UNL     1      31.993 -22.709 -17.557  0.00  0.00    +0.046 C 
ATOM     16  C   UNL     1      31.416 -23.123 -16.319  0.00  0.00    +0.089 C 
ATOM     17  C   UNL     1      32.390 -23.467 -15.380  0.00  0.00    +0.048 C 
ATOM     18  C   UNL     1      32.010 -23.899 -14.101  0.00  0.00    +0.010 C 
ATOM     19  C   UNL     1      30.651 -23.967 -13.823  0.00  0.00    +0.021 C 
ATOM     20  C   UNL     1      29.755 -23.608 -14.813  0.00  0.00    +0.099 C 
ENDBRANCH   9  14
ENDBRANCH   7   9
ENDBRANCH   3   7
BRANCH   2  21
ATOM     21  C   UNL     1      35.596 -17.495 -22.568  0.00  0.00    +0.120 C 
BRANCH  21  24
ATOM     22  N   UNL     1      32.431 -12.357 -23.971  0.00  0.00    -0.230 NA
ATOM     23  N   UNL     1      33.303 -13.916 -25.506  0.00  0.00    -0.343 N 
ATOM     24  C   UNL     1      34.838 -16.223 -22.304  0.00  0.00    -0.002 C 
ATOM     25  C   UNL     1      34.345 -15.485 -23.371  0.00  0.00    +0.000 C 
ATOM     26  C   UNL     1      34.643 -15.803 -20.997  0.00  0.00    -0.003 C 
ATOM     27  C   UNL     1      33.638 -14.295 -23.133  0.00  0.00    +0.031 C 
ATOM     28  C   UNL     1      33.432 -13.856 -21.808  0.00  0.00    +0.004 C 
ATOM     29  C   UNL     1      33.942 -14.622 -20.747  0.00  0.00    -0.000 C 
ATOM     30  C   UNL     1      33.117 -13.508 -24.160  0.00  0.00    +0.125 C 
ATOM     31  C   UNL     1      32.725 -12.668 -21.591  0.00  0.00    +0.021 C 
ATOM     32  C   UNL     1      32.254 -11.969 -22.691  0.00  0.00    +0.100 C 
ATOM     33  H   UNL     1      32.942 -13.369 -26.241  0.00  0.00    +0.144 HD
ATOM     34  H   UNL     1      33.795 -14.745 -25.705  0.00  0.00    +0.144 HD
ENDBRANCH  21  24
ENDBRANCH   2  21
TORSDOF 5
ENDMDL
MODEL 8
REMARK VINA RESULT:     -11.6      5.778     11.486
REMARK  Name = 445480
REMARK  5 active torsions:
REMARK  status: ('A' for Active; 'I' for Inactive)
REMARK    1  A    between atoms: N_2  and  C_21
REMARK    2  A    between atoms: C_3  and  N_7
REMARK    3  A    between atoms: N_7  and  S_9
REMARK    4  A    between atoms: S_9  and  C_14
REMARK    5  A    between atoms: C_21  and  C_24
REMARK                            x       y       z     vdW  Elec       q    Type
REMARK                         _______ _______ _______ _____ _____    ______ ____
ROOT
ATOM      1  O   UNL     1      33.473 -15.454 -25.550  0.00  0.00    -0.273 OA
ATOM      2  N   UNL     1      34.172 -16.399 -23.513  0.00  0.00    -0.274 N 
ATOM      3  C   UNL     1      34.008 -14.077 -23.620  0.00  0.00    +0.153 C 
ATOM      4  C   UNL     1      34.007 -14.522 -22.162  0.00  0.00    +0.048 C 
ATOM      5  C   UNL     1      34.591 -15.921 -22.216  0.00  0.00    +0.096 C 
ATOM      6  C   UNL     1      33.826 -15.366 -24.383  0.00  0.00    +0.242 C 
ENDROOT
BRANCH   3   7
ATOM      7  N   UNL     1      32.880 -13.182 -23.899  0.00  0.00    -0.171 NA
ATOM      8  H   UNL     1      32.251 -13.674 -24.534  0.00  0.00    +0.149 HD
BRANCH   7   9
ATOM      9  S   UNL     1      33.217 -11.654 -24.601  0.00  0.00    +0.066 S 
ATOM     10  O   UNL     1      32.320 -11.434 -25.720  0.00  0.00    -0.152 OA
ATOM     11  O   UNL     1      34.651 -11.503 -24.744  0.00  0.00    -0.152 OA
BRANCH   9  14
ATOM     12  S   UNL     1      33.470  -8.892 -23.690  0.00  0.00    -0.066 S 
ATOM     13  N   UNL     1      31.263  -8.915 -20.487  0.00  0.00    -0.243 NA
ATOM     14  C   UNL     1      32.779 -10.408 -23.387  0.00  0.00    +0.153 C 
ATOM     15  C   UNL     1      32.004 -10.456 -22.281  0.00  0.00    +0.046 C 
ATOM     16  C   UNL     1      31.957  -9.190 -21.625  0.00  0.00    +0.089 C 
ATOM     17  C   UNL     1      32.721  -8.230 -22.292  0.00  0.00    +0.048 C 
ATOM     18  C   UNL     1      32.794  -6.921 -21.793  0.00  0.00    +0.010 C 
ATOM     19  C   UNL     1      32.088  -6.635 -20.632  0.00  0.00    +0.021 C 
ATOM     20  C   UNL     1      31.357  -7.647 -20.037  0.00  0.00    +0.099 C 
ENDBRANCH   9  14
ENDBRANCH   7   9
ENDBRANCH   3   7
BRANCH   2  21
ATOM     21  C   UNL     1      34.245 -17.801 -23.862  0.00  0.00    +0.120 C 
BRANCH  21  24
ATOM     22  N   UNL     1      34.040 -21.695 -19.048  0.00  0.00    -0.230 NA
ATOM     23  N   UNL     1      32.215 -21.035 -20.380  0.00  0.00    -0.343 N 
ATOM     24  C   UNL     1      34.783 -18.604 -22.711  0.00  0.00    -0.002 C 
ATOM     25  C   UNL     1      33.920 -19.393 -21.962  0.00  0.00    +0.000 C 
ATOM     26  C   UNL     1      36.136 -18.545 -22.409  0.00  0.00    -0.003 C 
ATOM     27  C   UNL     1      34.415 -20.145 -20.884  0.00  0.00    +0.031 C 
ATOM     28  C   UNL     1      35.789 -20.094 -20.566  0.00  0.00    +0.004 C 
ATOM     29  C   UNL     1      36.640 -19.287 -21.340  0.00  0.00    -0.000 C 
ATOM     30  C   UNL     1      33.602 -20.957 -20.093  0.00  0.00    +0.125 C 
ATOM     31  C   UNL     1      36.264 -20.850 -19.488  0.00  0.00    +0.021 C 
ATOM     32  C   UNL     1      35.360 -21.621 -18.774  0.00  0.00    +0.100 C 
ATOM     33  H   UNL     1      31.629 -21.604 -19.830  0.00  0.00    +0.144 HD
ATOM     34  H   UNL     1      31.838 -20.520 -21.130  0.00  0.00    +0.144 HD
ENDBRANCH  21  24
ENDBRANCH   2  21
TORSDOF 5
ENDMDL
MODEL 9
REMARK VINA RESULT:     -11.4      2.246      3.138
REMARK  Name = 445480
REMARK  5 active torsions:
REMARK  status: ('A' for Active; 'I' for Inactive)
REMARK    1  A    between atoms: N_2  and  C_21
REMARK    2  A    between atoms: C_3  and  N_7
REMARK    3  A    between atoms: N_7  and  S_9
REMARK    4  A    between atoms: S_9  and  C_14
REMARK    5  A    between atoms: C_21  and  C_24
REMARK                            x       y       z     vdW  Elec       q    Type
REMARK                         _______ _______ _______ _____ _____    ______ ____
ROOT
ATOM      1  O   UNL     1      36.464 -19.329 -20.307  0.00  0.00    -0.273 OA
ATOM      2  N   UNL     1      34.804 -18.580 -21.796  0.00  0.00    -0.274 N 
ATOM      3  C   UNL     1      34.382 -20.545 -20.617  0.00  0.00    +0.153 C 
ATOM      4  C   UNL     1      33.071 -19.976 -21.145  0.00  0.00    +0.048 C 
ATOM      5  C   UNL     1      33.511 -19.035 -22.251  0.00  0.00    +0.096 C 
ATOM      6  C   UNL     1      35.370 -19.427 -20.844  0.00  0.00    +0.242 C 
ENDROOT
BRANCH   3   7
ATOM      7  N   UNL     1      34.293 -20.832 -19.181  0.00  0.00    -0.171 NA
ATOM      8  H   UNL     1      34.968 -20.230 -18.708  0.00  0.00    +0.149 HD
BRANCH   7   9
ATOM      9  S   UNL     1      34.590 -22.437 -18.658  0.00  0.00    +0.066 S 
ATOM     10  O   UNL     1      35.853 -22.483 -17.946  0.00  0.00    -0.152 OA
ATOM     11  O   UNL     1      34.306 -23.351 -19.748  0.00  0.00    -0.152 OA
BRANCH   9  14
ATOM     12  S   UNL     1      33.975 -23.368 -15.961  0.00  0.00    -0.066 S 
ATOM     13  N   UNL     1      30.086 -23.270 -15.963  0.00  0.00    -0.243 NA
ATOM     14  C   UNL     1      33.339 -22.834 -17.437  0.00  0.00    +0.153 C 
ATOM     15  C   UNL     1      31.988 -22.787 -17.477  0.00  0.00    +0.046 C 
ATOM     16  C   UNL     1      31.418 -23.207 -16.238  0.00  0.00    +0.089 C 
ATOM     17  C   UNL     1      32.396 -23.558 -15.307  0.00  0.00    +0.048 C 
ATOM     18  C   UNL     1      32.023 -23.996 -14.028  0.00  0.00    +0.010 C 
ATOM     19  C   UNL     1      30.666 -24.063 -13.742  0.00  0.00    +0.021 C 
ATOM     20  C   UNL     1      29.765 -23.697 -14.725  0.00  0.00    +0.099 C 
ENDBRANCH   9  14
ENDBRANCH   7   9
ENDBRANCH   3   7
BRANCH   2  21
ATOM     21  C   UNL     1      35.455 -17.431 -22.389  0.00  0.00    +0.120 C 
BRANCH  21  24
ATOM     22  N   UNL     1      32.507 -13.579 -26.243  0.00  0.00    -0.230 NA
ATOM     23  N   UNL     1      33.357 -13.036 -24.116  0.00  0.00    -0.343 N 
ATOM     24  C   UNL     1      34.740 -17.011 -23.644  0.00  0.00    -0.002 C 
ATOM     25  C   UNL     1      34.297 -15.702 -23.773  0.00  0.00    +0.000 C 
ATOM     26  C   UNL     1      34.531 -17.937 -24.655  0.00  0.00    -0.003 C 
ATOM     27  C   UNL     1      33.627 -15.302 -24.942  0.00  0.00    +0.031 C 
ATOM     28  C   UNL     1      33.408 -16.234 -25.978  0.00  0.00    +0.004 C 
ATOM     29  C   UNL     1      33.867 -17.552 -25.820  0.00  0.00    -0.000 C 
ATOM     30  C   UNL     1      33.156 -14.002 -25.135  0.00  0.00    +0.125 C 
ATOM     31  C   UNL     1      32.738 -15.816 -27.134  0.00  0.00    +0.021 C 
ATOM     32  C   UNL     1      32.316 -14.498 -27.214  0.00  0.00    +0.100 C 
ATOM     33  H   UNL     1      33.030 -12.115 -24.238  0.00  0.00    +0.144 HD
ATOM     34  H   UNL     1      33.823 -13.286 -23.285  0.00  0.00    +0.144 HD
ENDBRANCH  21  24
ENDBRANCH   2  21
TORSDOF 5
ENDMDL
