MODEL 1
REMARK VINA RESULT:     -12.5      0.000      0.000
REMARK  Name = 5288607
REMARK  4 active torsions:
REMARK  status: ('A' for Active; 'I' for Inactive)
REMARK    1  A    between atoms: N_2  and  C_19
REMARK    2  A    between atoms: C_3  and  C_6
REMARK    3  A    between atoms: C_5  and  C_16
REMARK    4  A    between atoms: C_19  and  C_21
REMARK                            x       y       z     vdW  Elec       q    Type
REMARK                         _______ _______ _______ _____ _____    ______ ____
ROOT
ATOM      1  O   UNL     1      33.962 -16.541 -26.551  0.00  0.00    -0.270 OA
ATOM      2  N   UNL     1      33.426 -14.834 -25.068  0.00  0.00    -0.270 N 
ATOM      3  C   UNL     1      34.003 -16.057 -25.419  0.00  0.00    +0.249 C 
ATOM      4  C   UNL     1      32.722 -14.059 -26.082  0.00  0.00    +0.116 C 
ENDROOT
BRANCH   3   6
ATOM      5  C   UNL     1      34.013 -17.772 -23.642  0.00  0.00    +0.006 C 
ATOM      6  C   UNL     1      34.679 -16.805 -24.317  0.00  0.00    +0.058 C 
BRANCH   5  16
ATOM      7  O   UNL     1      36.055 -22.251 -17.717  0.00  0.00    -0.275 OA
ATOM      8  N   UNL     1      36.202 -20.674 -19.379  0.00  0.00    -0.270 N 
ATOM      9  N   UNL     1      36.435 -19.099 -21.129  0.00  0.00    -0.229 NA
ATOM     10  C   UNL     1      33.440 -21.037 -19.900  0.00  0.00    +0.039 C 
ATOM     11  C   UNL     1      34.291 -20.153 -20.760  0.00  0.00    +0.010 C 
ATOM     12  C   UNL     1      34.264 -22.171 -19.308  0.00  0.00    +0.090 C 
ATOM     13  C   UNL     1      35.638 -19.963 -20.456  0.00  0.00    +0.130 C 
ATOM     14  C   UNL     1      33.748 -19.420 -21.816  0.00  0.00    +0.000 C 
ATOM     15  C   UNL     1      35.566 -21.693 -18.699  0.00  0.00    +0.227 C 
ATOM     16  C   UNL     1      34.551 -18.544 -22.535  0.00  0.00    +0.019 C 
ATOM     17  C   UNL     1      35.875 -18.418 -22.153  0.00  0.00    +0.100 C 
ATOM     18  H   UNL     1      37.111 -20.428 -19.092  0.00  0.00    +0.156 HD
ENDBRANCH   5  16
ENDBRANCH   3   6
BRANCH   2  19
ATOM     19  C   UNL     1      33.432 -14.256 -23.726  0.00  0.00    +0.122 C 
BRANCH  19  21
ATOM     20  N   UNL     1      33.604 -10.683 -24.456  0.00  0.00    -0.284 N 
ATOM     21  C   UNL     1      33.306 -12.775 -23.817  0.00  0.00    +0.014 C 
ATOM     22  C   UNL     1      32.459 -11.960 -23.029  0.00  0.00    +0.013 C 
ATOM     23  C   UNL     1      32.664 -10.645 -23.450  0.00  0.00    +0.051 C 
ATOM     24  C   UNL     1      33.999 -11.974 -24.684  0.00  0.00    +0.063 C 
ATOM     25  C   UNL     1      31.533 -12.204 -21.995  0.00  0.00    +0.001 C 
ATOM     26  C   UNL     1      31.987  -9.557 -22.887  0.00  0.00    +0.015 C 
ATOM     27  C   UNL     1      34.110  -9.534 -25.177  0.00  0.00    +0.117 C 
ATOM     28  C   UNL     1      30.849 -11.127 -21.422  0.00  0.00    +0.000 C 
ATOM     29  C   UNL     1      31.073  -9.824 -21.863  0.00  0.00    +0.001 C 
ENDBRANCH  19  21
ENDBRANCH   2  19
TORSDOF 4
ENDMDL
MODEL 2
REMARK VINA RESULT:     -12.5      5.697     12.473
REMARK  Name = 5288607
REMARK  4 active torsions:
REMARK  status: ('A' for Active; 'I' for Inactive)
REMARK    1  A    between atoms: N_2  and  C_19
REMARK    2  A    between atoms: C_3  and  C_6
REMARK    3  A    between atoms: C_5  and  C_16
REMARK    4  A    between atoms: C_19  and  C_21
REMARK                            x       y       z     vdW  Elec       q    Type
REMARK                         _______ _______ _______ _____ _____    ______ ____
ROOT
ATOM      1  O   UNL     1      30.463 -24.443 -16.270  0.00  0.00    -0.270 OA
ATOM      2  N   UNL     1      31.999 -23.999 -14.583  0.00  0.00    -0.270 N 
ATOM      3  C   UNL     1      31.432 -23.811 -15.846  0.00  0.00    +0.249 C 
ATOM      4  C   UNL     1      31.431 -24.997 -13.686  0.00  0.00    +0.116 C 
ENDROOT
BRANCH   3   6
ATOM      5  C   UNL     1      33.063 -23.161 -17.583  0.00  0.00    +0.006 C 
ATOM      6  C   UNL     1      32.090 -22.792 -16.717  0.00  0.00    +0.058 C 
BRANCH   5  16
ATOM      7  O   UNL     1      36.154 -18.152 -22.552  0.00  0.00    -0.275 OA
ATOM      8  N   UNL     1      36.009 -19.743 -20.902  0.00  0.00    -0.270 N 
ATOM      9  N   UNL     1      35.912 -21.319 -19.140  0.00  0.00    -0.229 NA
ATOM     10  C   UNL     1      33.219 -19.905 -21.374  0.00  0.00    +0.039 C 
ATOM     11  C   UNL     1      33.871 -20.655 -20.251  0.00  0.00    +0.010 C 
ATOM     12  C   UNL     1      33.973 -18.619 -21.673  0.00  0.00    +0.090 C 
ATOM     13  C   UNL     1      35.251 -20.586 -20.068  0.00  0.00    +0.130 C 
ATOM     14  C   UNL     1      33.142 -21.516 -19.429  0.00  0.00    +0.000 C 
ATOM     15  C   UNL     1      35.469 -18.829 -21.785  0.00  0.00    +0.227 C 
ATOM     16  C   UNL     1      33.796 -22.261 -18.455  0.00  0.00    +0.019 C 
ATOM     17  C   UNL     1      35.170 -22.130 -18.355  0.00  0.00    +0.100 C 
ATOM     18  H   UNL     1      36.990 -19.809 -20.852  0.00  0.00    +0.156 HD
ENDBRANCH   5  16
ENDBRANCH   3   6
BRANCH   2  19
ATOM     19  C   UNL     1      33.168 -23.286 -14.073  0.00  0.00    +0.122 C 
BRANCH  19  21
ATOM     20  N   UNL     1      35.771 -25.731 -14.829  0.00  0.00    -0.284 N 
ATOM     21  C   UNL     1      34.368 -24.163 -14.162  0.00  0.00    +0.014 C 
ATOM     22  C   UNL     1      35.505 -24.109 -13.322  0.00  0.00    +0.013 C 
ATOM     23  C   UNL     1      36.377 -25.107 -13.762  0.00  0.00    +0.051 C 
ATOM     24  C   UNL     1      34.550 -25.164 -15.078  0.00  0.00    +0.063 C 
ATOM     25  C   UNL     1      35.889 -23.309 -12.226  0.00  0.00    +0.001 C 
ATOM     26  C   UNL     1      37.617 -25.347 -13.160  0.00  0.00    +0.015 C 
ATOM     27  C   UNL     1      36.331 -26.829 -15.589  0.00  0.00    +0.117 C 
ATOM     28  C   UNL     1      37.125 -23.538 -11.613  0.00  0.00    +0.000 C 
ATOM     29  C   UNL     1      37.975 -24.541 -12.074  0.00  0.00    +0.001 C 
ENDBRANCH  19  21
ENDBRANCH   2  19
TORSDOF 4
ENDMDL
MODEL 3
REMARK VINA RESULT:     -12.2      0.927      2.210
REMARK  Name = 5288607
REMARK  4 active torsions:
REMARK  status: ('A' for Active; 'I' for Inactive)
REMARK    1  A    between atoms: N_2  and  C_19
REMARK    2  A    between atoms: C_3  and  C_6
REMARK    3  A    between atoms: C_5  and  C_16
REMARK    4  A    between atoms: C_19  and  C_21
REMARK                            x       y       z     vdW  Elec       q    Type
REMARK                         _______ _______ _______ _____ _____    ______ ____
ROOT
ATOM      1  O   UNL     1      32.885 -16.134 -25.653  0.00  0.00    -0.270 OA
ATOM      2  N   UNL     1      33.502 -14.105 -24.702  0.00  0.00    -0.270 N 
ATOM      3  C   UNL     1      33.424 -15.499 -24.746  0.00  0.00    +0.249 C 
ATOM      4  C   UNL     1      32.917 -13.323 -25.784  0.00  0.00    +0.116 C 
ENDROOT
BRANCH   3   6
ATOM      5  C   UNL     1      34.079 -17.578 -23.585  0.00  0.00    +0.006 C 
ATOM      6  C   UNL     1      34.020 -16.226 -23.584  0.00  0.00    +0.058 C 
BRANCH   5  16
ATOM      7  O   UNL     1      36.056 -22.285 -17.817  0.00  0.00    -0.275 OA
ATOM      8  N   UNL     1      36.226 -20.655 -19.425  0.00  0.00    -0.270 N 
ATOM      9  N   UNL     1      36.482 -19.026 -21.121  0.00  0.00    -0.229 NA
ATOM     10  C   UNL     1      33.458 -20.959 -19.954  0.00  0.00    +0.039 C 
ATOM     11  C   UNL     1      34.323 -20.059 -20.785  0.00  0.00    +0.010 C 
ATOM     12  C   UNL     1      34.265 -22.124 -19.401  0.00  0.00    +0.090 C 
ATOM     13  C   UNL     1      35.673 -19.900 -20.476  0.00  0.00    +0.130 C 
ATOM     14  C   UNL     1      33.789 -19.283 -21.815  0.00  0.00    +0.000 C 
ATOM     15  C   UNL     1      35.574 -21.687 -18.779  0.00  0.00    +0.227 C 
ATOM     16  C   UNL     1      34.605 -18.395 -22.506  0.00  0.00    +0.019 C 
ATOM     17  C   UNL     1      35.932 -18.303 -22.121  0.00  0.00    +0.100 C 
ATOM     18  H   UNL     1      37.139 -20.433 -19.131  0.00  0.00    +0.156 HD
ENDBRANCH   5  16
ENDBRANCH   3   6
BRANCH   2  19
ATOM     19  C   UNL     1      34.106 -13.329 -23.621  0.00  0.00    +0.122 C 
BRANCH  19  21
ATOM     20  N   UNL     1      32.150 -10.286 -23.130  0.00  0.00    -0.284 N 
ATOM     21  C   UNL     1      33.506 -11.966 -23.586  0.00  0.00    +0.014 C 
ATOM     22  C   UNL     1      34.011 -10.816 -24.240  0.00  0.00    +0.013 C 
ATOM     23  C   UNL     1      33.139  -9.769 -23.937  0.00  0.00    +0.051 C 
ATOM     24  C   UNL     1      32.366 -11.620 -22.914  0.00  0.00    +0.063 C 
ATOM     25  C   UNL     1      35.126 -10.554 -25.060  0.00  0.00    +0.001 C 
ATOM     26  C   UNL     1      33.327  -8.467 -24.415  0.00  0.00    +0.015 C 
ATOM     27  C   UNL     1      31.037  -9.539 -22.582  0.00  0.00    +0.117 C 
ATOM     28  C   UNL     1      35.326  -9.258 -25.548  0.00  0.00    +0.000 C 
ATOM     29  C   UNL     1      34.440  -8.232 -25.229  0.00  0.00    +0.001 C 
ENDBRANCH  19  21
ENDBRANCH   2  19
TORSDOF 4
ENDMDL
MODEL 4
REMARK VINA RESULT:     -12.0      2.663      5.233
REMARK  Name = 5288607
REMARK  4 active torsions:
REMARK  status: ('A' for Active; 'I' for Inactive)
REMARK    1  A    between atoms: N_2  and  C_19
REMARK    2  A    between atoms: C_3  and  C_6
REMARK    3  A    between atoms: C_5  and  C_16
REMARK    4  A    between atoms: C_19  and  C_21
REMARK                            x       y       z     vdW  Elec       q    Type
REMARK                         _______ _______ _______ _____ _____    ______ ____
ROOT
ATOM      1  O   UNL     1      32.712 -10.982 -24.019  0.00  0.00    -0.270 OA
ATOM      2  N   UNL     1      33.176 -11.705 -26.179  0.00  0.00    -0.270 N 
ATOM      3  C   UNL     1      33.068 -11.869 -24.795  0.00  0.00    +0.249 C 
ATOM      4  C   UNL     1      32.856 -10.412 -26.772  0.00  0.00    +0.116 C 
ENDROOT
BRANCH   3   6
ATOM      5  C   UNL     1      33.815 -13.354 -22.968  0.00  0.00    +0.006 C 
ATOM      6  C   UNL     1      33.444 -13.213 -24.263  0.00  0.00    +0.058 C 
BRANCH   5  16
ATOM      7  O   UNL     1      36.169 -20.257 -20.491  0.00  0.00    -0.275 OA
ATOM      8  N   UNL     1      35.376 -18.103 -20.440  0.00  0.00    -0.270 N 
ATOM      9  N   UNL     1      34.635 -15.859 -20.325  0.00  0.00    -0.229 NA
ATOM     10  C   UNL     1      35.290 -18.121 -23.273  0.00  0.00    +0.039 C 
ATOM     11  C   UNL     1      34.988 -16.881 -22.486  0.00  0.00    +0.010 C 
ATOM     12  C   UNL     1      36.282 -19.003 -22.531  0.00  0.00    +0.090 C 
ATOM     13  C   UNL     1      34.999 -16.913 -21.093  0.00  0.00    +0.130 C 
ATOM     14  C   UNL     1      34.588 -15.699 -23.112  0.00  0.00    +0.000 C 
ATOM     15  C   UNL     1      35.913 -19.204 -21.076  0.00  0.00    +0.227 C 
ATOM     16  C   UNL     1      34.230 -14.597 -22.345  0.00  0.00    +0.019 C 
ATOM     17  C   UNL     1      34.267 -14.729 -20.967  0.00  0.00    +0.100 C 
ATOM     18  H   UNL     1      35.247 -18.152 -19.465  0.00  0.00    +0.156 HD
ENDBRANCH   5  16
ENDBRANCH   3   6
BRANCH   2  19
ATOM     19  C   UNL     1      33.629 -12.732 -27.114  0.00  0.00    +0.122 C 
BRANCH  19  21
ATOM     20  N   UNL     1      30.628 -14.695 -27.800  0.00  0.00    -0.284 N 
ATOM     21  C   UNL     1      32.558 -13.752 -27.295  0.00  0.00    +0.014 C 
ATOM     22  C   UNL     1      32.656 -15.128 -26.978  0.00  0.00    +0.013 C 
ATOM     23  C   UNL     1      31.426 -15.702 -27.306  0.00  0.00    +0.051 C 
ATOM     24  C   UNL     1      31.309 -13.507 -27.796  0.00  0.00    +0.063 C 
ATOM     25  C   UNL     1      33.668 -15.951 -26.445  0.00  0.00    +0.001 C 
ATOM     26  C   UNL     1      31.156 -17.063 -27.127  0.00  0.00    +0.015 C 
ATOM     27  C   UNL     1      29.265 -14.853 -28.262  0.00  0.00    +0.117 C 
ATOM     28  C   UNL     1      33.412 -17.314 -26.259  0.00  0.00    +0.000 C 
ATOM     29  C   UNL     1      32.176 -17.860 -26.595  0.00  0.00    +0.001 C 
ENDBRANCH  19  21
ENDBRANCH   2  19
TORSDOF 4
ENDMDL
MODEL 5
REMARK VINA RESULT:     -11.7      1.039      1.930
REMARK  Name = 5288607
REMARK  4 active torsions:
REMARK  status: ('A' for Active; 'I' for Inactive)
REMARK    1  A    between atoms: N_2  and  C_19
REMARK    2  A    between atoms: C_3  and  C_6
REMARK    3  A    between atoms: C_5  and  C_16
REMARK    4  A    between atoms: C_19  and  C_21
REMARK                            x       y       z     vdW  Elec       q    Type
REMARK                         _______ _______ _______ _____ _____    ______ ____
ROOT
ATOM      1  O   UNL     1      32.497 -17.089 -25.717  0.00  0.00    -0.270 OA
ATOM      2  N   UNL     1      33.441 -14.998 -25.347  0.00  0.00    -0.270 N 
ATOM      3  C   UNL     1      33.256 -16.357 -25.081  0.00  0.00    +0.249 C 
ATOM      4  C   UNL     1      32.704 -14.377 -26.440  0.00  0.00    +0.116 C 
ENDROOT
BRANCH   3   6
ATOM      5  C   UNL     1      33.831 -18.191 -23.529  0.00  0.00    +0.006 C 
ATOM      6  C   UNL     1      34.024 -16.911 -23.925  0.00  0.00    +0.058 C 
BRANCH   5  16
ATOM      7  O   UNL     1      36.587 -22.051 -17.459  0.00  0.00    -0.275 OA
ATOM      8  N   UNL     1      36.492 -20.570 -19.212  0.00  0.00    -0.270 N 
ATOM      9  N   UNL     1      36.479 -19.087 -21.055  0.00  0.00    -0.229 NA
ATOM     10  C   UNL     1      33.771 -21.268 -19.589  0.00  0.00    +0.039 C 
ATOM     11  C   UNL     1      34.484 -20.349 -20.535  0.00  0.00    +0.010 C 
ATOM     12  C   UNL     1      34.739 -22.266 -18.972  0.00  0.00    +0.090 C 
ATOM     13  C   UNL     1      35.811 -19.992 -20.301  0.00  0.00    +0.130 C 
ATOM     14  C   UNL     1      33.822 -19.745 -21.605  0.00  0.00    +0.000 C 
ATOM     15  C   UNL     1      36.001 -21.610 -18.449  0.00  0.00    +0.227 C 
ATOM     16  C   UNL     1      34.493 -18.830 -22.406  0.00  0.00    +0.019 C 
ATOM     17  C   UNL     1      35.808 -18.536 -22.090  0.00  0.00    +0.100 C 
ATOM     18  H   UNL     1      37.378 -20.208 -18.979  0.00  0.00    +0.156 HD
ENDBRANCH   5  16
ENDBRANCH   3   6
BRANCH   2  19
ATOM     19  C   UNL     1      34.310 -14.104 -24.585  0.00  0.00    +0.122 C 
BRANCH  19  21
ATOM     20  N   UNL     1      32.240 -12.548 -22.011  0.00  0.00    -0.284 N 
ATOM     21  C   UNL     1      33.483 -13.236 -23.700  0.00  0.00    +0.014 C 
ATOM     22  C   UNL     1      33.148 -11.882 -23.937  0.00  0.00    +0.013 C 
ATOM     23  C   UNL     1      32.364 -11.469 -22.857  0.00  0.00    +0.051 C 
ATOM     24  C   UNL     1      32.916 -13.625 -22.517  0.00  0.00    +0.063 C 
ATOM     25  C   UNL     1      33.433 -10.956 -24.961  0.00  0.00    +0.001 C 
ATOM     26  C   UNL     1      31.848 -10.173 -22.750  0.00  0.00    +0.015 C 
ATOM     27  C   UNL     1      31.504 -12.557 -20.764  0.00  0.00    +0.117 C 
ATOM     28  C   UNL     1      32.923  -9.657 -24.868  0.00  0.00    +0.000 C 
ATOM     29  C   UNL     1      32.144  -9.273 -23.779  0.00  0.00    +0.001 C 
ENDBRANCH  19  21
ENDBRANCH   2  19
TORSDOF 4
ENDMDL
MODEL 6
REMARK VINA RESULT:     -11.6      2.440      4.259
REMARK  Name = 5288607
REMARK  4 active torsions:
REMARK  status: ('A' for Active; 'I' for Inactive)
REMARK    1  A    between atoms: N_2  and  C_19
REMARK    2  A    between atoms: C_3  and  C_6
REMARK    3  A    between atoms: C_5  and  C_16
REMARK    4  A    between atoms: C_19  and  C_21
REMARK                            x       y       z     vdW  Elec       q    Type
REMARK                         _______ _______ _______ _____ _____    ______ ____
ROOT
ATOM      1  O   UNL     1      32.444 -11.591 -26.438  0.00  0.00    -0.270 OA
ATOM      2  N   UNL     1      33.351  -9.873 -25.162  0.00  0.00    -0.270 N 
ATOM      3  C   UNL     1      33.150 -11.213 -25.503  0.00  0.00    +0.249 C 
ATOM      4  C   UNL     1      32.696  -8.831 -25.943  0.00  0.00    +0.116 C 
ENDROOT
BRANCH   3   6
ATOM      5  C   UNL     1      33.173 -13.336 -24.240  0.00  0.00    +0.006 C 
ATOM      6  C   UNL     1      33.831 -12.220 -24.634  0.00  0.00    +0.058 C 
BRANCH   5  16
ATOM      7  O   UNL     1      36.155 -19.305 -20.392  0.00  0.00    -0.275 OA
ATOM      8  N   UNL     1      35.232 -17.241 -20.791  0.00  0.00    -0.270 N 
ATOM      9  N   UNL     1      34.361 -15.072 -21.156  0.00  0.00    -0.229 NA
ATOM     10  C   UNL     1      34.920 -17.964 -23.515  0.00  0.00    +0.039 C 
ATOM     11  C   UNL     1      34.603 -16.582 -23.028  0.00  0.00    +0.010 C 
ATOM     12  C   UNL     1      36.023 -18.592 -22.677  0.00  0.00    +0.090 C 
ATOM     13  C   UNL     1      34.729 -16.267 -21.676  0.00  0.00    +0.130 C 
ATOM     14  C   UNL     1      34.080 -15.610 -23.881  0.00  0.00    +0.000 C 
ATOM     15  C   UNL     1      35.786 -18.442 -21.188  0.00  0.00    +0.227 C 
ATOM     16  C   UNL     1      33.716 -14.368 -23.375  0.00  0.00    +0.019 C 
ATOM     17  C   UNL     1      33.872 -14.153 -22.017  0.00  0.00    +0.100 C 
ATOM     18  H   UNL     1      35.186 -17.053 -19.826  0.00  0.00    +0.156 HD
ENDBRANCH   5  16
ENDBRANCH   3   6
BRANCH   2  19
ATOM     19  C   UNL     1      34.157  -9.403 -24.037  0.00  0.00    +0.122 C 
BRANCH  19  21
ATOM     20  N   UNL     1      32.250  -7.398 -21.655  0.00  0.00    -0.284 N 
ATOM     21  C   UNL     1      33.267  -8.836 -22.985  0.00  0.00    +0.014 C 
ATOM     22  C   UNL     1      32.391  -9.569 -22.150  0.00  0.00    +0.013 C 
ATOM     23  C   UNL     1      31.760  -8.640 -21.320  0.00  0.00    +0.051 C 
ATOM     24  C   UNL     1      33.167  -7.509 -22.666  0.00  0.00    +0.063 C 
ATOM     25  C   UNL     1      32.065 -10.933 -22.013  0.00  0.00    +0.001 C 
ATOM     26  C   UNL     1      30.815  -9.008 -20.355  0.00  0.00    +0.015 C 
ATOM     27  C   UNL     1      31.862  -6.147 -21.038  0.00  0.00    +0.117 C 
ATOM     28  C   UNL     1      31.123 -11.316 -21.052  0.00  0.00    +0.000 C 
ATOM     29  C   UNL     1      30.509 -10.368 -20.237  0.00  0.00    +0.001 C 
ENDBRANCH  19  21
ENDBRANCH   2  19
TORSDOF 4
ENDMDL
MODEL 7
REMARK VINA RESULT:     -11.4      2.531      4.678
REMARK  Name = 5288607
REMARK  4 active torsions:
REMARK  status: ('A' for Active; 'I' for Inactive)
REMARK    1  A    between atoms: N_2  and  C_19
REMARK    2  A    between atoms: C_3  and  C_6
REMARK    3  A    between atoms: C_5  and  C_16
REMARK    4  A    between atoms: C_19  and  C_21
REMARK                            x       y       z     vdW  Elec       q    Type
REMARK                         _______ _______ _______ _____ _____    ______ ____
ROOT
ATOM      1  O   UNL     1      32.498 -11.458 -26.576  0.00  0.00    -0.270 OA
ATOM      2  N   UNL     1      33.222  -9.752 -25.175  0.00  0.00    -0.270 N 
ATOM      3  C   UNL     1      33.117 -11.085 -25.579  0.00  0.00    +0.249 C 
ATOM      4  C   UNL     1      32.567  -8.713 -25.960  0.00  0.00    +0.116 C 
ENDROOT
BRANCH   3   6
ATOM      5  C   UNL     1      33.116 -13.192 -24.290  0.00  0.00    +0.006 C 
ATOM      6  C   UNL     1      33.788 -12.091 -24.704  0.00  0.00    +0.058 C 
BRANCH   5  16
ATOM      7  O   UNL     1      36.052 -19.151 -20.392  0.00  0.00    -0.275 OA
ATOM      8  N   UNL     1      35.138 -17.086 -20.808  0.00  0.00    -0.270 N 
ATOM      9  N   UNL     1      34.276 -14.916 -21.189  0.00  0.00    -0.229 NA
ATOM     10  C   UNL     1      34.845 -17.821 -23.530  0.00  0.00    +0.039 C 
ATOM     11  C   UNL     1      34.528 -16.436 -23.052  0.00  0.00    +0.010 C 
ATOM     12  C   UNL     1      35.940 -18.448 -22.681  0.00  0.00    +0.090 C 
ATOM     13  C   UNL     1      34.645 -16.115 -21.700  0.00  0.00    +0.130 C 
ATOM     14  C   UNL     1      34.014 -15.466 -23.914  0.00  0.00    +0.000 C 
ATOM     15  C   UNL     1      35.691 -18.290 -21.195  0.00  0.00    +0.227 C 
ATOM     16  C   UNL     1      33.649 -14.221 -23.416  0.00  0.00    +0.019 C 
ATOM     17  C   UNL     1      33.795 -14.000 -22.058  0.00  0.00    +0.100 C 
ATOM     18  H   UNL     1      35.085 -16.893 -19.844  0.00  0.00    +0.156 HD
ENDBRANCH   5  16
ENDBRANCH   3   6
BRANCH   2  19
ATOM     19  C   UNL     1      33.921  -9.289 -23.978  0.00  0.00    +0.122 C 
BRANCH  19  21
ATOM     20  N   UNL     1      31.471  -9.485 -21.279  0.00  0.00    -0.284 N 
ATOM     21  C   UNL     1      32.943  -9.084 -22.873  0.00  0.00    +0.014 C 
ATOM     22  C   UNL     1      32.552  -7.839 -22.326  0.00  0.00    +0.013 C 
ATOM     23  C   UNL     1      31.623  -8.117 -21.322  0.00  0.00    +0.051 C 
ATOM     24  C   UNL     1      32.269 -10.079 -22.219  0.00  0.00    +0.063 C 
ATOM     25  C   UNL     1      32.894  -6.495 -22.580  0.00  0.00    +0.001 C 
ATOM     26  C   UNL     1      31.016  -7.116 -20.555  0.00  0.00    +0.015 C 
ATOM     27  C   UNL     1      30.598 -10.205 -20.376  0.00  0.00    +0.117 C 
ATOM     28  C   UNL     1      32.294  -5.483 -21.823  0.00  0.00    +0.000 C 
ATOM     29  C   UNL     1      31.371  -5.790 -20.827  0.00  0.00    +0.001 C 
ENDBRANCH  19  21
ENDBRANCH   2  19
TORSDOF 4
ENDMDL
MODEL 8
REMARK VINA RESULT:     -11.4      3.146      8.742
REMARK  Name = 5288607
REMARK  4 active torsions:
REMARK  status: ('A' for Active; 'I' for Inactive)
REMARK    1  A    between atoms: N_2  and  C_19
REMARK    2  A    between atoms: C_3  and  C_6
REMARK    3  A    between atoms: C_5  and  C_16
REMARK    4  A    between atoms: C_19  and  C_21
REMARK                            x       y       z     vdW  Elec       q    Type
REMARK                         _______ _______ _______ _____ _____    ______ ____
ROOT
ATOM      1  O   UNL     1      31.143 -16.969 -26.840  0.00  0.00    -0.270 OA
ATOM      2  N   UNL     1      33.162 -17.647 -25.910  0.00  0.00    -0.270 N 
ATOM      3  C   UNL     1      32.304 -16.722 -26.511  0.00  0.00    +0.249 C 
ATOM      4  C   UNL     1      32.683 -18.998 -25.643  0.00  0.00    +0.116 C 
ENDROOT
BRANCH   3   6
ATOM      5  C   UNL     1      32.709 -14.368 -25.885  0.00  0.00    +0.006 C 
ATOM      6  C   UNL     1      32.880 -15.370 -26.779  0.00  0.00    +0.058 C 
BRANCH   5  16
ATOM      7  O   UNL     1      35.177  -7.071 -25.856  0.00  0.00    -0.275 OA
ATOM      8  N   UNL     1      34.575  -9.141 -26.647  0.00  0.00    -0.270 N 
ATOM      9  N   UNL     1      34.046 -11.281 -27.504  0.00  0.00    -0.229 NA
ATOM     10  C   UNL     1      33.719  -9.834 -24.034  0.00  0.00    +0.039 C 
ATOM     11  C   UNL     1      33.727 -10.836 -25.150  0.00  0.00    +0.010 C 
ATOM     12  C   UNL     1      34.814  -8.797 -24.232  0.00  0.00    +0.090 C 
ATOM     13  C   UNL     1      34.116 -10.455 -26.434  0.00  0.00    +0.130 C 
ATOM     14  C   UNL     1      33.253 -12.136 -24.967  0.00  0.00    +0.000 C 
ATOM     15  C   UNL     1      34.843  -8.236 -25.639  0.00  0.00    +0.227 C 
ATOM     16  C   UNL     1      33.193 -13.008 -26.046  0.00  0.00    +0.019 C 
ATOM     17  C   UNL     1      33.595 -12.536 -27.284  0.00  0.00    +0.100 C 
ATOM     18  H   UNL     1      34.713  -8.848 -27.576  0.00  0.00    +0.156 HD
ENDBRANCH   5  16
ENDBRANCH   3   6
BRANCH   2  19
ATOM     19  C   UNL     1      34.552 -17.388 -25.541  0.00  0.00    +0.122 C 
BRANCH  19  21
ATOM     20  N   UNL     1      35.079 -18.443 -22.086  0.00  0.00    -0.284 N 
ATOM     21  C   UNL     1      34.718 -17.544 -24.069  0.00  0.00    +0.014 C 
ATOM     22  C   UNL     1      34.595 -16.517 -23.103  0.00  0.00    +0.013 C 
ATOM     23  C   UNL     1      34.828 -17.108 -21.859  0.00  0.00    +0.051 C 
ATOM     24  C   UNL     1      35.013 -18.715 -23.426  0.00  0.00    +0.063 C 
ATOM     25  C   UNL     1      34.311 -15.138 -23.155  0.00  0.00    +0.001 C 
ATOM     26  C   UNL     1      34.790 -16.386 -20.661  0.00  0.00    +0.015 C 
ATOM     27  C   UNL     1      35.372 -19.427 -21.066  0.00  0.00    +0.117 C 
ATOM     28  C   UNL     1      34.269 -14.403 -21.965  0.00  0.00    +0.000 C 
ATOM     29  C   UNL     1      34.505 -15.020 -20.738  0.00  0.00    +0.001 C 
ENDBRANCH  19  21
ENDBRANCH   2  19
TORSDOF 4
ENDMDL
MODEL 9
REMARK VINA RESULT:     -11.2      1.522      2.074
REMARK  Name = 5288607
REMARK  4 active torsions:
REMARK  status: ('A' for Active; 'I' for Inactive)
REMARK    1  A    between atoms: N_2  and  C_19
REMARK    2  A    between atoms: C_3  and  C_6
REMARK    3  A    between atoms: C_5  and  C_16
REMARK    4  A    between atoms: C_19  and  C_21
REMARK                            x       y       z     vdW  Elec       q    Type
REMARK                         _______ _______ _______ _____ _____    ______ ____
ROOT
ATOM      1  O   UNL     1      33.623 -17.751 -25.369  0.00  0.00    -0.270 OA
ATOM      2  N   UNL     1      33.977 -15.739 -24.262  0.00  0.00    -0.270 N 
ATOM      3  C   UNL     1      33.906 -17.132 -24.343  0.00  0.00    +0.249 C 
ATOM      4  C   UNL     1      33.703 -14.939 -25.450  0.00  0.00    +0.116 C 
ENDROOT
BRANCH   3   6
ATOM      5  C   UNL     1      33.526 -19.041 -22.823  0.00  0.00    +0.006 C 
ATOM      6  C   UNL     1      34.170 -17.877 -23.076  0.00  0.00    +0.058 C 
BRANCH   5  16
ATOM      7  O   UNL     1      35.199 -23.153 -16.528  0.00  0.00    -0.275 OA
ATOM      8  N   UNL     1      33.963 -22.140 -18.177  0.00  0.00    -0.270 N 
ATOM      9  N   UNL     1      32.637 -21.047 -19.802  0.00  0.00    -0.229 NA
ATOM     10  C   UNL     1      36.378 -21.411 -19.470  0.00  0.00    +0.039 C 
ATOM     11  C   UNL     1      35.046 -20.942 -19.972  0.00  0.00    +0.010 C 
ATOM     12  C   UNL     1      36.347 -21.613 -17.962  0.00  0.00    +0.090 C 
ATOM     13  C   UNL     1      33.873 -21.349 -19.338  0.00  0.00    +0.130 C 
ATOM     14  C   UNL     1      34.932 -20.179 -21.135  0.00  0.00    +0.000 C 
ATOM     15  C   UNL     1      35.139 -22.402 -17.502  0.00  0.00    +0.227 C 
ATOM     16  C   UNL     1      33.675 -19.838 -21.618  0.00  0.00    +0.019 C 
ATOM     17  C   UNL     1      32.569 -20.295 -20.923  0.00  0.00    +0.100 C 
ATOM     18  H   UNL     1      33.132 -22.531 -17.822  0.00  0.00    +0.156 HD
ENDBRANCH   5  16
ENDBRANCH   3   6
BRANCH   2  19
ATOM     19  C   UNL     1      34.278 -14.981 -23.050  0.00  0.00    +0.122 C 
BRANCH  19  21
ATOM     20  N   UNL     1      33.026 -11.648 -23.856  0.00  0.00    -0.284 N 
ATOM     21  C   UNL     1      33.637 -13.639 -23.125  0.00  0.00    +0.014 C 
ATOM     22  C   UNL     1      32.807 -13.055 -22.139  0.00  0.00    +0.013 C 
ATOM     23  C   UNL     1      32.433 -11.799 -22.623  0.00  0.00    +0.051 C 
ATOM     24  C   UNL     1      33.760 -12.761 -24.167  0.00  0.00    +0.063 C 
ATOM     25  C   UNL     1      32.329 -13.465 -20.878  0.00  0.00    +0.001 C 
ATOM     26  C   UNL     1      31.603 -10.930 -21.906  0.00  0.00    +0.015 C 
ATOM     27  C   UNL     1      32.901 -10.487 -24.711  0.00  0.00    +0.117 C 
ATOM     28  C   UNL     1      31.499 -12.606 -20.150  0.00  0.00    +0.000 C 
ATOM     29  C   UNL     1      31.142 -11.359 -20.657  0.00  0.00    +0.001 C 
ENDBRANCH  19  21
ENDBRANCH   2  19
TORSDOF 4
ENDMDL
