MODEL 1
REMARK VINA RESULT:     -12.2      0.000      0.000
REMARK  Name = 5289110
REMARK  6 active torsions:
REMARK  status: ('A' for Active; 'I' for Inactive)
REMARK    1  A    between atoms: C_3  and  C_9
REMARK    2  A    between atoms: C_4  and  C_22
REMARK    3  A    between atoms: N_8  and  C_11
REMARK    4  A    between atoms: C_11  and  C_13
REMARK    5  A    between atoms: N_21  and  C_24
REMARK    6  A    between atoms: C_24  and  C_26
REMARK                            x       y       z     vdW  Elec       q    Type
REMARK                         _______ _______ _______ _____ _____    ______ ____
ROOT
ATOM      1  N   UNL     1      35.809 -24.799 -13.547  0.00  0.00    -0.244 NA
ATOM      2  N   UNL     1      37.394 -23.850 -15.094  0.00  0.00    -0.244 NA
ATOM      3  C   UNL     1      34.869 -23.982 -14.066  0.00  0.00    +0.115 C 
ATOM      4  C   UNL     1      36.396 -23.083 -15.542  0.00  0.00    +0.115 C 
ATOM      5  C   UNL     1      35.111 -23.085 -15.087  0.00  0.00    +0.100 C 
ATOM      6  C   UNL     1      37.031 -24.681 -14.099  0.00  0.00    +0.250 C 
ENDROOT
BRANCH   3   9
ATOM      7  O   UNL     1      33.281 -24.996 -12.670  0.00  0.00    -0.269 OA
ATOM      8  N   UNL     1      32.599 -23.130 -13.866  0.00  0.00    -0.296 N 
ATOM      9  C   UNL     1      33.543 -24.092 -13.484  0.00  0.00    +0.260 C 
ATOM     10  H   UNL     1      32.872 -22.443 -14.515  0.00  0.00    +0.150 HD
BRANCH   8  11
ATOM     11  C   UNL     1      31.246 -23.091 -13.359  0.00  0.00    +0.117 C 
BRANCH  11  13
ATOM     12  F   UNL     1      27.531 -24.961 -17.142  0.00  0.00    -0.205 F 
ATOM     13  C   UNL     1      30.253 -23.588 -14.370  0.00  0.00    -0.003 C 
ATOM     14  C   UNL     1      29.330 -22.706 -14.919  0.00  0.00    -0.005 C 
ATOM     15  C   UNL     1      28.407 -23.167 -15.858  0.00  0.00    +0.005 C 
ATOM     16  C   UNL     1      30.266 -24.926 -14.746  0.00  0.00    -0.000 C 
ATOM     17  C   UNL     1      28.414 -24.508 -16.241  0.00  0.00    +0.136 C 
ATOM     18  C   UNL     1      29.343 -25.387 -15.686  0.00  0.00    +0.029 C 
ATOM     19  C   UNL     1      27.416 -22.223 -16.451  0.00  0.00    +0.033 C 
ENDBRANCH  11  13
ENDBRANCH   8  11
ENDBRANCH   3   9
BRANCH   4  22
ATOM     20  O   UNL     1      37.724 -21.391 -16.478  0.00  0.00    -0.269 OA
ATOM     21  N   UNL     1      36.023 -22.249 -17.802  0.00  0.00    -0.296 N 
ATOM     22  C   UNL     1      36.776 -22.156 -16.640  0.00  0.00    +0.260 C 
ATOM     23  H   UNL     1      35.281 -22.895 -17.835  0.00  0.00    +0.150 HD
BRANCH  21  24
ATOM     24  C   UNL     1      36.284 -21.435 -18.962  0.00  0.00    +0.117 C 
BRANCH  24  26
ATOM     25  F   UNL     1      31.556 -19.883 -21.577  0.00  0.00    -0.205 F 
ATOM     26  C   UNL     1      35.031 -21.021 -19.658  0.00  0.00    -0.003 C 
ATOM     27  C   UNL     1      35.089 -20.128 -20.728  0.00  0.00    -0.005 C 
ATOM     28  C   UNL     1      33.917 -19.742 -21.378  0.00  0.00    +0.005 C 
ATOM     29  C   UNL     1      33.801 -21.528 -19.239  0.00  0.00    -0.000 C 
ATOM     30  C   UNL     1      32.688 -20.248 -20.958  0.00  0.00    +0.136 C 
ATOM     31  C   UNL     1      32.629 -21.141 -19.888  0.00  0.00    +0.029 C 
ATOM     32  C   UNL     1      33.983 -18.787 -22.523  0.00  0.00    +0.033 C 
ENDBRANCH  24  26
ENDBRANCH  21  24
ENDBRANCH   4  22
TORSDOF 6
ENDMDL
MODEL 2
REMARK VINA RESULT:     -12.0      7.321     13.011
REMARK  Name = 5289110
REMARK  6 active torsions:
REMARK  status: ('A' for Active; 'I' for Inactive)
REMARK    1  A    between atoms: C_3  and  C_9
REMARK    2  A    between atoms: C_4  and  C_22
REMARK    3  A    between atoms: N_8  and  C_11
REMARK    4  A    between atoms: C_11  and  C_13
REMARK    5  A    between atoms: N_21  and  C_24
REMARK    6  A    between atoms: C_24  and  C_26
REMARK                            x       y       z     vdW  Elec       q    Type
REMARK                         _______ _______ _______ _____ _____    ______ ____
ROOT
ATOM      1  N   UNL     1      32.358 -16.775 -26.687  0.00  0.00    -0.244 NA
ATOM      2  N   UNL     1      33.074 -18.224 -24.900  0.00  0.00    -0.244 NA
ATOM      3  C   UNL     1      33.135 -15.806 -26.163  0.00  0.00    +0.115 C 
ATOM      4  C   UNL     1      33.812 -17.203 -24.458  0.00  0.00    +0.115 C 
ATOM      5  C   UNL     1      33.901 -15.967 -25.026  0.00  0.00    +0.100 C 
ATOM      6  C   UNL     1      32.373 -17.942 -26.015  0.00  0.00    +0.250 C 
ENDROOT
BRANCH   3   9
ATOM      7  O   UNL     1      33.404 -14.492 -28.087  0.00  0.00    -0.269 OA
ATOM      8  N   UNL     1      32.793 -13.397 -26.137  0.00  0.00    -0.296 N 
ATOM      9  C   UNL     1      33.133 -14.539 -26.874  0.00  0.00    +0.260 C 
ATOM     10  H   UNL     1      32.590 -13.505 -25.180  0.00  0.00    +0.150 HD
BRANCH   8  11
ATOM     11  C   UNL     1      32.724 -12.070 -26.704  0.00  0.00    +0.117 C 
BRANCH  11  13
ATOM     12  F   UNL     1      35.680  -8.343 -23.707  0.00  0.00    -0.205 F 
ATOM     13  C   UNL     1      33.512 -11.074 -25.901  0.00  0.00    -0.003 C 
ATOM     14  C   UNL     1      32.913 -10.430 -24.825  0.00  0.00    -0.005 C 
ATOM     15  C   UNL     1      33.644  -9.505 -24.080  0.00  0.00    +0.005 C 
ATOM     16  C   UNL     1      34.832 -10.806 -26.244  0.00  0.00    -0.000 C 
ATOM     17  C   UNL     1      34.970  -9.230 -24.417  0.00  0.00    +0.136 C 
ATOM     18  C   UNL     1      35.564  -9.881 -25.498  0.00  0.00    +0.029 C 
ATOM     19  C   UNL     1      33.007  -8.812 -22.923  0.00  0.00    +0.033 C 
ENDBRANCH  11  13
ENDBRANCH   8  11
ENDBRANCH   3   9
BRANCH   4  22
ATOM     20  O   UNL     1      34.987 -16.560 -22.532  0.00  0.00    -0.269 OA
ATOM     21  N   UNL     1      34.797 -18.836 -22.939  0.00  0.00    -0.296 N 
ATOM     22  C   UNL     1      34.592 -17.494 -23.227  0.00  0.00    +0.260 C 
ATOM     23  H   UNL     1      34.440 -19.513 -23.558  0.00  0.00    +0.150 HD
BRANCH  21  24
ATOM     24  C   UNL     1      35.513 -19.277 -21.768  0.00  0.00    +0.117 C 
BRANCH  24  26
ATOM     25  F   UNL     1      32.266 -22.282 -18.299  0.00  0.00    -0.205 F 
ATOM     26  C   UNL     1      34.654 -20.076 -20.846  0.00  0.00    -0.003 C 
ATOM     27  C   UNL     1      35.239 -20.899 -19.885  0.00  0.00    -0.005 C 
ATOM     28  C   UNL     1      34.436 -21.646 -19.023  0.00  0.00    +0.005 C 
ATOM     29  C   UNL     1      33.265 -19.998 -20.945  0.00  0.00    -0.000 C 
ATOM     30  C   UNL     1      33.047 -21.568 -19.123  0.00  0.00    +0.136 C 
ATOM     31  C   UNL     1      32.461 -20.744 -20.084  0.00  0.00    +0.029 C 
ATOM     32  C   UNL     1      35.065 -22.526 -17.996  0.00  0.00    +0.033 C 
ENDBRANCH  24  26
ENDBRANCH  21  24
ENDBRANCH   4  22
TORSDOF 6
ENDMDL
MODEL 3
REMARK VINA RESULT:     -11.9      7.569     11.656
REMARK  Name = 5289110
REMARK  6 active torsions:
REMARK  status: ('A' for Active; 'I' for Inactive)
REMARK    1  A    between atoms: C_3  and  C_9
REMARK    2  A    between atoms: C_4  and  C_22
REMARK    3  A    between atoms: N_8  and  C_11
REMARK    4  A    between atoms: C_11  and  C_13
REMARK    5  A    between atoms: N_21  and  C_24
REMARK    6  A    between atoms: C_24  and  C_26
REMARK                            x       y       z     vdW  Elec       q    Type
REMARK                         _______ _______ _______ _____ _____    ______ ____
ROOT
ATOM      1  N   UNL     1      33.008 -18.050 -25.379  0.00  0.00    -0.244 NA
ATOM      2  N   UNL     1      32.054 -16.583 -27.036  0.00  0.00    -0.244 NA
ATOM      3  C   UNL     1      33.585 -16.972 -24.810  0.00  0.00    +0.115 C 
ATOM      4  C   UNL     1      32.665 -15.579 -26.402  0.00  0.00    +0.115 C 
ATOM      5  C   UNL     1      33.445 -15.685 -25.288  0.00  0.00    +0.100 C 
ATOM      6  C   UNL     1      32.268 -17.787 -26.473  0.00  0.00    +0.250 C 
ENDROOT
BRANCH   3   9
ATOM      7  O   UNL     1      34.698 -16.309 -22.856  0.00  0.00    -0.269 OA
ATOM      8  N   UNL     1      34.768 -18.562 -23.399  0.00  0.00    -0.296 N 
ATOM      9  C   UNL     1      34.388 -17.233 -23.628  0.00  0.00    +0.260 C 
ATOM     10  H   UNL     1      34.489 -19.245 -24.050  0.00  0.00    +0.150 HD
BRANCH   8  11
ATOM     11  C   UNL     1      35.547 -18.985 -22.257  0.00  0.00    +0.117 C 
BRANCH  11  13
ATOM     12  F   UNL     1      32.478 -21.996 -18.634  0.00  0.00    -0.205 F 
ATOM     13  C   UNL     1      34.730 -19.790 -21.287  0.00  0.00    -0.003 C 
ATOM     14  C   UNL     1      35.368 -20.560 -20.323  0.00  0.00    -0.005 C 
ATOM     15  C   UNL     1      34.609 -21.307 -19.422  0.00  0.00    +0.005 C 
ATOM     16  C   UNL     1      33.342 -19.758 -21.366  0.00  0.00    -0.000 C 
ATOM     17  C   UNL     1      33.216 -21.280 -19.494  0.00  0.00    +0.136 C 
ATOM     18  C   UNL     1      32.583 -20.505 -20.465  0.00  0.00    +0.029 C 
ATOM     19  C   UNL     1      35.290 -22.134 -18.384  0.00  0.00    +0.033 C 
ENDBRANCH  11  13
ENDBRANCH   8  11
ENDBRANCH   3   9
BRANCH   4  22
ATOM     20  O   UNL     1      31.702 -14.139 -27.983  0.00  0.00    -0.269 OA
ATOM     21  N   UNL     1      33.093 -13.179 -26.394  0.00  0.00    -0.296 N 
ATOM     22  C   UNL     1      32.444 -14.241 -27.009  0.00  0.00    +0.260 C 
ATOM     23  H   UNL     1      33.668 -13.362 -25.616  0.00  0.00    +0.150 HD
BRANCH  21  24
ATOM     24  C   UNL     1      32.958 -11.819 -26.850  0.00  0.00    +0.117 C 
BRANCH  24  26
ATOM     25  F   UNL     1      35.653  -8.174 -23.526  0.00  0.00    -0.205 F 
ATOM     26  C   UNL     1      33.670 -10.851 -25.966  0.00  0.00    -0.003 C 
ATOM     27  C   UNL     1      32.985 -10.217 -24.930  0.00  0.00    -0.005 C 
ATOM     28  C   UNL     1      33.652  -9.312 -24.105  0.00  0.00    +0.005 C 
ATOM     29  C   UNL     1      35.023 -10.581 -26.175  0.00  0.00    -0.000 C 
ATOM     30  C   UNL     1      35.004  -9.042 -24.314  0.00  0.00    +0.136 C 
ATOM     31  C   UNL     1      35.689  -9.676 -25.350  0.00  0.00    +0.029 C 
ATOM     32  C   UNL     1      32.916  -8.636 -22.997  0.00  0.00    +0.033 C 
ENDBRANCH  24  26
ENDBRANCH  21  24
ENDBRANCH   4  22
TORSDOF 6
ENDMDL
MODEL 4
REMARK VINA RESULT:     -11.9      4.024      6.493
REMARK  Name = 5289110
REMARK  6 active torsions:
REMARK  status: ('A' for Active; 'I' for Inactive)
REMARK    1  A    between atoms: C_3  and  C_9
REMARK    2  A    between atoms: C_4  and  C_22
REMARK    3  A    between atoms: N_8  and  C_11
REMARK    4  A    between atoms: C_11  and  C_13
REMARK    5  A    between atoms: N_21  and  C_24
REMARK    6  A    between atoms: C_24  and  C_26
REMARK                            x       y       z     vdW  Elec       q    Type
REMARK                         _______ _______ _______ _____ _____    ______ ____
ROOT
ATOM      1  N   UNL     1      32.681 -21.028 -19.802  0.00  0.00    -0.244 NA
ATOM      2  N   UNL     1      32.757 -19.524 -21.683  0.00  0.00    -0.244 NA
ATOM      3  C   UNL     1      34.029 -21.059 -19.820  0.00  0.00    +0.115 C 
ATOM      4  C   UNL     1      34.088 -19.619 -21.620  0.00  0.00    +0.115 C 
ATOM      5  C   UNL     1      34.801 -20.359 -20.725  0.00  0.00    +0.100 C 
ATOM      6  C   UNL     1      32.118 -20.252 -20.748  0.00  0.00    +0.250 C 
ENDROOT
BRANCH   3   9
ATOM      7  O   UNL     1      35.895 -22.001 -18.756  0.00  0.00    -0.269 OA
ATOM      8  N   UNL     1      33.809 -22.530 -17.894  0.00  0.00    -0.296 N 
ATOM      9  C   UNL     1      34.657 -21.890 -18.807  0.00  0.00    +0.260 C 
ATOM     10  H   UNL     1      32.838 -22.400 -17.991  0.00  0.00    +0.150 HD
BRANCH   8  11
ATOM     11  C   UNL     1      34.280 -23.371 -16.817  0.00  0.00    +0.117 C 
BRANCH  11  13
ATOM     12  F   UNL     1      30.351 -24.150 -12.872  0.00  0.00    -0.205 F 
ATOM     13  C   UNL     1      33.228 -23.579 -15.766  0.00  0.00    -0.003 C 
ATOM     14  C   UNL     1      31.907 -23.246 -16.038  0.00  0.00    -0.005 C 
ATOM     15  C   UNL     1      30.930 -23.439 -15.062  0.00  0.00    +0.005 C 
ATOM     16  C   UNL     1      33.588 -24.101 -14.528  0.00  0.00    -0.000 C 
ATOM     17  C   UNL     1      31.283 -23.962 -13.817  0.00  0.00    +0.136 C 
ATOM     18  C   UNL     1      32.611 -24.294 -13.551  0.00  0.00    +0.029 C 
ATOM     19  C   UNL     1      29.510 -23.084 -15.350  0.00  0.00    +0.033 C 
ENDBRANCH  11  13
ENDBRANCH   8  11
ENDBRANCH   3   9
BRANCH   4  22
ATOM     20  O   UNL     1      36.024 -18.658 -22.530  0.00  0.00    -0.269 OA
ATOM     21  N   UNL     1      34.043 -18.338 -23.694  0.00  0.00    -0.296 N 
ATOM     22  C   UNL     1      34.812 -18.824 -22.645  0.00  0.00    +0.260 C 
ATOM     23  H   UNL     1      33.077 -18.524 -23.698  0.00  0.00    +0.150 HD
BRANCH  21  24
ATOM     24  C   UNL     1      34.605 -17.571 -24.776  0.00  0.00    +0.117 C 
BRANCH  24  26
ATOM     25  F   UNL     1      30.653 -15.556 -28.230  0.00  0.00    -0.205 F 
ATOM     26  C   UNL     1      33.558 -17.033 -25.693  0.00  0.00    -0.003 C 
ATOM     27  C   UNL     1      33.649 -15.724 -26.165  0.00  0.00    -0.005 C 
ATOM     28  C   UNL     1      32.669 -15.222 -27.022  0.00  0.00    +0.005 C 
ATOM     29  C   UNL     1      32.488 -17.840 -26.079  0.00  0.00    -0.000 C 
ATOM     30  C   UNL     1      31.599 -16.029 -27.407  0.00  0.00    +0.136 C 
ATOM     31  C   UNL     1      31.508 -17.339 -26.935  0.00  0.00    +0.029 C 
ATOM     32  C   UNL     1      32.770 -13.821 -27.526  0.00  0.00    +0.033 C 
ENDBRANCH  24  26
ENDBRANCH  21  24
ENDBRANCH   4  22
TORSDOF 6
ENDMDL
MODEL 5
REMARK VINA RESULT:     -11.9      4.039     10.095
REMARK  Name = 5289110
REMARK  6 active torsions:
REMARK  status: ('A' for Active; 'I' for Inactive)
REMARK    1  A    between atoms: C_3  and  C_9
REMARK    2  A    between atoms: C_4  and  C_22
REMARK    3  A    between atoms: N_8  and  C_11
REMARK    4  A    between atoms: C_11  and  C_13
REMARK    5  A    between atoms: N_21  and  C_24
REMARK    6  A    between atoms: C_24  and  C_26
REMARK                            x       y       z     vdW  Elec       q    Type
REMARK                         _______ _______ _______ _____ _____    ______ ____
ROOT
ATOM      1  N   UNL     1      32.797 -19.566 -21.749  0.00  0.00    -0.244 NA
ATOM      2  N   UNL     1      32.723 -21.044 -19.847  0.00  0.00    -0.244 NA
ATOM      3  C   UNL     1      34.143 -19.591 -21.669  0.00  0.00    +0.115 C 
ATOM      4  C   UNL     1      34.058 -21.006 -19.850  0.00  0.00    +0.115 C 
ATOM      5  C   UNL     1      34.842 -20.310 -20.720  0.00  0.00    +0.100 C 
ATOM      6  C   UNL     1      32.159 -20.304 -20.819  0.00  0.00    +0.250 C 
ENDROOT
BRANCH   3   9
ATOM      7  O   UNL     1      36.085 -18.664 -22.600  0.00  0.00    -0.269 OA
ATOM      8  N   UNL     1      34.084 -18.235 -23.688  0.00  0.00    -0.296 N 
ATOM      9  C   UNL     1      34.850 -18.802 -22.662  0.00  0.00    +0.260 C 
ATOM     10  H   UNL     1      33.111 -18.384 -23.678  0.00  0.00    +0.150 HD
BRANCH   8  11
ATOM     11  C   UNL     1      34.642 -17.444 -24.761  0.00  0.00    +0.117 C 
BRANCH  11  13
ATOM     12  F   UNL     1      30.655 -15.473 -28.200  0.00  0.00    -0.205 F 
ATOM     13  C   UNL     1      33.579 -16.915 -25.681  0.00  0.00    -0.003 C 
ATOM     14  C   UNL     1      33.690 -15.628 -26.193  0.00  0.00    -0.005 C 
ATOM     15  C   UNL     1      32.703 -15.137 -27.047  0.00  0.00    +0.005 C 
ATOM     16  C   UNL     1      32.493 -17.719 -26.009  0.00  0.00    -0.000 C 
ATOM     17  C   UNL     1      31.610 -15.937 -27.382  0.00  0.00    +0.136 C 
ATOM     18  C   UNL     1      31.506 -17.227 -26.864  0.00  0.00    +0.029 C 
ATOM     19  C   UNL     1      32.819 -13.757 -27.601  0.00  0.00    +0.033 C 
ENDBRANCH  11  13
ENDBRANCH   8  11
ENDBRANCH   3   9
BRANCH   4  22
ATOM     20  O   UNL     1      35.926 -21.822 -18.690  0.00  0.00    -0.269 OA
ATOM     21  N   UNL     1      33.840 -22.500 -17.936  0.00  0.00    -0.296 N 
ATOM     22  C   UNL     1      34.701 -21.816 -18.782  0.00  0.00    +0.260 C 
ATOM     23  H   UNL     1      32.870 -22.432 -18.091  0.00  0.00    +0.150 HD
BRANCH  21  24
ATOM     24  C   UNL     1      34.310 -23.308 -16.839  0.00  0.00    +0.117 C 
BRANCH  24  26
ATOM     25  F   UNL     1      30.329 -24.205 -12.972  0.00  0.00    -0.205 F 
ATOM     26  C   UNL     1      33.251 -23.545 -15.815  0.00  0.00    -0.003 C 
ATOM     27  C   UNL     1      31.917 -23.272 -16.115  0.00  0.00    -0.005 C 
ATOM     28  C   UNL     1      30.928 -23.494 -15.156  0.00  0.00    +0.005 C 
ATOM     29  C   UNL     1      33.596 -24.040 -14.558  0.00  0.00    -0.000 C 
ATOM     30  C   UNL     1      31.273 -23.988 -13.899  0.00  0.00    +0.136 C 
ATOM     31  C   UNL     1      32.608 -24.261 -13.599  0.00  0.00    +0.029 C 
ATOM     32  C   UNL     1      29.501 -23.201 -15.480  0.00  0.00    +0.033 C 
ENDBRANCH  24  26
ENDBRANCH  21  24
ENDBRANCH   4  22
TORSDOF 6
ENDMDL
MODEL 6
REMARK VINA RESULT:     -11.7      4.059      9.848
REMARK  Name = 5289110
REMARK  6 active torsions:
REMARK  status: ('A' for Active; 'I' for Inactive)
REMARK    1  A    between atoms: C_3  and  C_9
REMARK    2  A    between atoms: C_4  and  C_22
REMARK    3  A    between atoms: N_8  and  C_11
REMARK    4  A    between atoms: C_11  and  C_13
REMARK    5  A    between atoms: N_21  and  C_24
REMARK    6  A    between atoms: C_24  and  C_26
REMARK                            x       y       z     vdW  Elec       q    Type
REMARK                         _______ _______ _______ _____ _____    ______ ____
ROOT
ATOM      1  N   UNL     1      36.460 -19.099 -20.825  0.00  0.00    -0.244 NA
ATOM      2  N   UNL     1      35.655 -21.043 -19.651  0.00  0.00    -0.244 NA
ATOM      3  C   UNL     1      35.179 -18.784 -21.107  0.00  0.00    +0.115 C 
ATOM      4  C   UNL     1      34.422 -20.648 -19.980  0.00  0.00    +0.115 C 
ATOM      5  C   UNL     1      34.096 -19.538 -20.701  0.00  0.00    +0.100 C 
ATOM      6  C   UNL     1      36.623 -20.225 -20.105  0.00  0.00    +0.250 C 
ENDROOT
BRANCH   3   9
ATOM      7  O   UNL     1      34.704 -16.497 -21.320  0.00  0.00    -0.269 OA
ATOM      8  N   UNL     1      35.136 -17.673 -23.271  0.00  0.00    -0.296 N 
ATOM      9  C   UNL     1      34.980 -17.572 -21.883  0.00  0.00    +0.260 C 
ATOM     10  H   UNL     1      35.354 -18.554 -23.651  0.00  0.00    +0.150 HD
BRANCH   8  11
ATOM     11  C   UNL     1      34.994 -16.555 -24.176  0.00  0.00    +0.117 C 
BRANCH  11  13
ATOM     12  F   UNL     1      30.872 -17.395 -27.906  0.00  0.00    -0.205 F 
ATOM     13  C   UNL     1      33.894 -16.777 -25.174  0.00  0.00    -0.003 C 
ATOM     14  C   UNL     1      33.466 -15.723 -25.973  0.00  0.00    -0.005 C 
ATOM     15  C   UNL     1      32.444 -15.929 -26.900  0.00  0.00    +0.005 C 
ATOM     16  C   UNL     1      33.312 -18.035 -25.287  0.00  0.00    -0.000 C 
ATOM     17  C   UNL     1      31.855 -17.188 -27.020  0.00  0.00    +0.136 C 
ATOM     18  C   UNL     1      32.290 -18.240 -26.214  0.00  0.00    +0.029 C 
ATOM     19  C   UNL     1      31.984 -14.802 -27.761  0.00  0.00    +0.033 C 
ENDBRANCH  11  13
ENDBRANCH   8  11
ENDBRANCH   3   9
BRANCH   4  22
ATOM     20  O   UNL     1      32.311 -21.657 -20.155  0.00  0.00    -0.269 OA
ATOM     21  N   UNL     1      33.588 -22.204 -18.298  0.00  0.00    -0.296 N 
ATOM     22  C   UNL     1      33.338 -21.539 -19.490  0.00  0.00    +0.260 C 
ATOM     23  H   UNL     1      34.444 -22.044 -17.837  0.00  0.00    +0.150 HD
BRANCH  21  24
ATOM     24  C   UNL     1      32.646 -23.120 -17.707  0.00  0.00    +0.117 C 
BRANCH  24  26
ATOM     25  F   UNL     1      34.022 -24.514 -12.438  0.00  0.00    -0.205 F 
ATOM     26  C   UNL     1      33.014 -23.490 -16.310  0.00  0.00    -0.003 C 
ATOM     27  C   UNL     1      34.331 -23.833 -16.003  0.00  0.00    -0.005 C 
ATOM     28  C   UNL     1      34.674 -24.179 -14.696  0.00  0.00    +0.005 C 
ATOM     29  C   UNL     1      32.042 -23.493 -15.310  0.00  0.00    -0.000 C 
ATOM     30  C   UNL     1      33.701 -24.182 -13.697  0.00  0.00    +0.136 C 
ATOM     31  C   UNL     1      32.385 -23.840 -14.004  0.00  0.00    +0.029 C 
ATOM     32  C   UNL     1      36.084 -24.545 -14.371  0.00  0.00    +0.033 C 
ENDBRANCH  24  26
ENDBRANCH  21  24
ENDBRANCH   4  22
TORSDOF 6
ENDMDL
MODEL 7
REMARK VINA RESULT:     -11.6      4.038      6.699
REMARK  Name = 5289110
REMARK  6 active torsions:
REMARK  status: ('A' for Active; 'I' for Inactive)
REMARK    1  A    between atoms: C_3  and  C_9
REMARK    2  A    between atoms: C_4  and  C_22
REMARK    3  A    between atoms: N_8  and  C_11
REMARK    4  A    between atoms: C_11  and  C_13
REMARK    5  A    between atoms: N_21  and  C_24
REMARK    6  A    between atoms: C_24  and  C_26
REMARK                            x       y       z     vdW  Elec       q    Type
REMARK                         _______ _______ _______ _____ _____    ______ ____
ROOT
ATOM      1  N   UNL     1      35.789 -21.118 -19.726  0.00  0.00    -0.244 NA
ATOM      2  N   UNL     1      36.567 -19.170 -20.912  0.00  0.00    -0.244 NA
ATOM      3  C   UNL     1      34.525 -20.725 -19.985  0.00  0.00    +0.115 C 
ATOM      4  C   UNL     1      35.284 -18.865 -21.118  0.00  0.00    +0.115 C 
ATOM      5  C   UNL     1      34.206 -19.583 -20.692  0.00  0.00    +0.100 C 
ATOM      6  C   UNL     1      36.747 -20.305 -20.212  0.00  0.00    +0.250 C 
ENDROOT
BRANCH   3   9
ATOM      7  O   UNL     1      32.416 -21.742 -20.102  0.00  0.00    -0.269 OA
ATOM      8  N   UNL     1      33.728 -22.242 -18.258  0.00  0.00    -0.296 N 
ATOM      9  C   UNL     1      33.476 -21.588 -19.470  0.00  0.00    +0.260 C 
ATOM     10  H   UNL     1      34.588 -22.075 -17.809  0.00  0.00    +0.150 HD
BRANCH   8  11
ATOM     11  C   UNL     1      32.795 -23.149 -17.628  0.00  0.00    +0.117 C 
BRANCH  11  13
ATOM     12  F   UNL     1      34.279 -24.378 -12.347  0.00  0.00    -0.205 F 
ATOM     13  C   UNL     1      33.194 -23.476 -16.218  0.00  0.00    -0.003 C 
ATOM     14  C   UNL     1      34.540 -23.602 -15.896  0.00  0.00    -0.005 C 
ATOM     15  C   UNL     1      34.911 -23.906 -14.586  0.00  0.00    +0.005 C 
ATOM     16  C   UNL     1      32.213 -23.652 -15.249  0.00  0.00    -0.000 C 
ATOM     17  C   UNL     1      33.932 -24.084 -13.607  0.00  0.00    +0.136 C 
ATOM     18  C   UNL     1      32.584 -23.956 -13.939  0.00  0.00    +0.029 C 
ATOM     19  C   UNL     1      36.354 -24.041 -14.234  0.00  0.00    +0.033 C 
ENDBRANCH  11  13
ENDBRANCH   8  11
ENDBRANCH   3   9
BRANCH   4  22
ATOM     20  O   UNL     1      34.819 -16.572 -21.284  0.00  0.00    -0.269 OA
ATOM     21  N   UNL     1      35.176 -17.720 -23.267  0.00  0.00    -0.296 N 
ATOM     22  C   UNL     1      35.063 -17.613 -21.888  0.00  0.00    +0.260 C 
ATOM     23  H   UNL     1      35.375 -18.601 -23.659  0.00  0.00    +0.150 HD
BRANCH  21  24
ATOM     24  C   UNL     1      35.014 -16.591 -24.148  0.00  0.00    +0.117 C 
BRANCH  24  26
ATOM     25  F   UNL     1      30.841 -17.357 -27.837  0.00  0.00    -0.205 F 
ATOM     26  C   UNL     1      33.907 -16.791 -25.128  0.00  0.00    -0.003 C 
ATOM     27  C   UNL     1      33.481 -15.729 -25.926  0.00  0.00    -0.005 C 
ATOM     28  C   UNL     1      32.445 -15.917 -26.842  0.00  0.00    +0.005 C 
ATOM     29  C   UNL     1      33.298 -18.040 -25.247  0.00  0.00    -0.000 C 
ATOM     30  C   UNL     1      31.837 -17.167 -26.960  0.00  0.00    +0.136 C 
ATOM     31  C   UNL     1      32.263 -18.228 -26.162  0.00  0.00    +0.029 C 
ATOM     32  C   UNL     1      31.993 -14.780 -27.695  0.00  0.00    +0.033 C 
ENDBRANCH  24  26
ENDBRANCH  21  24
ENDBRANCH   4  22
TORSDOF 6
ENDMDL
MODEL 8
REMARK VINA RESULT:     -11.6      6.958     12.142
REMARK  Name = 5289110
REMARK  6 active torsions:
REMARK  status: ('A' for Active; 'I' for Inactive)
REMARK    1  A    between atoms: C_3  and  C_9
REMARK    2  A    between atoms: C_4  and  C_22
REMARK    3  A    between atoms: N_8  and  C_11
REMARK    4  A    between atoms: C_11  and  C_13
REMARK    5  A    between atoms: N_21  and  C_24
REMARK    6  A    between atoms: C_24  and  C_26
REMARK                            x       y       z     vdW  Elec       q    Type
REMARK                         _______ _______ _______ _____ _____    ______ ____
ROOT
ATOM      1  N   UNL     1      31.752 -16.112 -27.258  0.00  0.00    -0.244 NA
ATOM      2  N   UNL     1      32.425 -18.299 -26.505  0.00  0.00    -0.244 NA
ATOM      3  C   UNL     1      32.658 -15.582 -26.411  0.00  0.00    +0.115 C 
ATOM      4  C   UNL     1      33.293 -17.682 -25.699  0.00  0.00    +0.115 C 
ATOM      5  C   UNL     1      33.474 -16.335 -25.591  0.00  0.00    +0.100 C 
ATOM      6  C   UNL     1      31.689 -17.457 -27.253  0.00  0.00    +0.250 C 
ENDROOT
BRANCH   3   9
ATOM      7  O   UNL     1      32.319 -13.465 -27.361  0.00  0.00    -0.269 OA
ATOM      8  N   UNL     1      33.298 -13.535 -25.261  0.00  0.00    -0.296 N 
ATOM      9  C   UNL     1      32.743 -14.132 -26.400  0.00  0.00    +0.260 C 
ATOM     10  H   UNL     1      33.614 -14.122 -24.537  0.00  0.00    +0.150 HD
BRANCH   8  11
ATOM     11  C   UNL     1      33.431 -12.107 -25.089  0.00  0.00    +0.117 C 
BRANCH  11  13
ATOM     12  F   UNL     1      31.058 -10.324 -20.314  0.00  0.00    -0.205 F 
ATOM     13  C   UNL     1      32.798 -11.633 -23.812  0.00  0.00    -0.003 C 
ATOM     14  C   UNL     1      32.502 -12.549 -22.810  0.00  0.00    -0.005 C 
ATOM     15  C   UNL     1      31.914 -12.109 -21.624  0.00  0.00    +0.005 C 
ATOM     16  C   UNL     1      32.512 -10.283 -23.646  0.00  0.00    -0.000 C 
ATOM     17  C   UNL     1      31.624 -10.755 -21.450  0.00  0.00    +0.136 C 
ATOM     18  C   UNL     1      31.924  -9.843 -22.460  0.00  0.00    +0.029 C 
ATOM     19  C   UNL     1      31.595 -13.088 -20.545  0.00  0.00    +0.033 C 
ENDBRANCH  11  13
ENDBRANCH   8  11
ENDBRANCH   3   9
BRANCH   4  22
ATOM     20  O   UNL     1      34.253 -19.765 -25.209  0.00  0.00    -0.269 OA
ATOM     21  N   UNL     1      34.699 -18.029 -23.738  0.00  0.00    -0.296 N 
ATOM     22  C   UNL     1      34.116 -18.594 -24.863  0.00  0.00    +0.260 C 
ATOM     23  H   UNL     1      34.529 -17.078 -23.544  0.00  0.00    +0.150 HD
BRANCH  21  24
ATOM     24  C   UNL     1      35.542 -18.778 -22.842  0.00  0.00    +0.117 C 
BRANCH  24  26
ATOM     25  F   UNL     1      32.580 -21.533 -18.938  0.00  0.00    -0.205 F 
ATOM     26  C   UNL     1      34.759 -19.511 -21.805  0.00  0.00    -0.003 C 
ATOM     27  C   UNL     1      35.417 -20.296 -20.859  0.00  0.00    -0.005 C 
ATOM     28  C   UNL     1      34.683 -20.981 -19.889  0.00  0.00    +0.005 C 
ATOM     29  C   UNL     1      33.368 -19.408 -21.780  0.00  0.00    -0.000 C 
ATOM     30  C   UNL     1      33.293 -20.879 -19.866  0.00  0.00    +0.136 C 
ATOM     31  C   UNL     1      32.635 -20.093 -20.812  0.00  0.00    +0.029 C 
ATOM     32  C   UNL     1      35.390 -21.820 -18.879  0.00  0.00    +0.033 C 
ENDBRANCH  24  26
ENDBRANCH  21  24
ENDBRANCH   4  22
TORSDOF 6
ENDMDL
MODEL 9
REMARK VINA RESULT:     -11.6      3.943      9.576
REMARK  Name = 5289110
REMARK  6 active torsions:
REMARK  status: ('A' for Active; 'I' for Inactive)
REMARK    1  A    between atoms: C_3  and  C_9
REMARK    2  A    between atoms: C_4  and  C_22
REMARK    3  A    between atoms: N_8  and  C_11
REMARK    4  A    between atoms: C_11  and  C_13
REMARK    5  A    between atoms: N_21  and  C_24
REMARK    6  A    between atoms: C_24  and  C_26
REMARK                            x       y       z     vdW  Elec       q    Type
REMARK                         _______ _______ _______ _____ _____    ______ ____
ROOT
ATOM      1  N   UNL     1      35.782 -20.402 -20.158  0.00  0.00    -0.244 NA
ATOM      2  N   UNL     1      35.743 -21.915 -18.282  0.00  0.00    -0.244 NA
ATOM      3  C   UNL     1      34.474 -20.667 -20.351  0.00  0.00    +0.115 C 
ATOM      4  C   UNL     1      34.450 -22.112 -18.553  0.00  0.00    +0.115 C 
ATOM      5  C   UNL     1      33.741 -21.531 -19.563  0.00  0.00    +0.100 C 
ATOM      6  C   UNL     1      36.346 -21.052 -19.121  0.00  0.00    +0.250 C 
ENDROOT
BRANCH   3   9
ATOM      7  O   UNL     1      32.617 -19.781 -21.477  0.00  0.00    -0.269 OA
ATOM      8  N   UNL     1      34.686 -19.532 -22.493  0.00  0.00    -0.296 N 
ATOM      9  C   UNL     1      33.846 -19.977 -21.464  0.00  0.00    +0.260 C 
ATOM     10  H   UNL     1      35.650 -19.720 -22.420  0.00  0.00    +0.150 HD
BRANCH   8  11
ATOM     11  C   UNL     1      34.218 -18.811 -23.654  0.00  0.00    +0.117 C 
BRANCH  11  13
ATOM     12  F   UNL     1      34.273 -13.251 -22.829  0.00  0.00    -0.205 F 
ATOM     13  C   UNL     1      34.230 -17.326 -23.436  0.00  0.00    -0.003 C 
ATOM     14  C   UNL     1      33.737 -16.481 -24.423  0.00  0.00    -0.005 C 
ATOM     15  C   UNL     1      33.749 -15.101 -24.221  0.00  0.00    +0.005 C 
ATOM     16  C   UNL     1      34.737 -16.810 -22.249  0.00  0.00    -0.000 C 
ATOM     17  C   UNL     1      34.256 -14.575 -23.032  0.00  0.00    +0.136 C 
ATOM     18  C   UNL     1      34.749 -15.430 -22.046  0.00  0.00    +0.029 C 
ATOM     19  C   UNL     1      33.219 -14.190 -25.276  0.00  0.00    +0.033 C 
ENDBRANCH  11  13
ENDBRANCH   8  11
ENDBRANCH   3   9
BRANCH   4  22
ATOM     20  O   UNL     1      33.020 -23.917 -18.112  0.00  0.00    -0.269 OA
ATOM     21  N   UNL     1      34.051 -22.921 -16.289  0.00  0.00    -0.296 N 
ATOM     22  C   UNL     1      33.766 -23.063 -17.639  0.00  0.00    +0.260 C 
ATOM     23  H   UNL     1      34.663 -22.203 -16.007  0.00  0.00    +0.150 HD
BRANCH  21  24
ATOM     24  C   UNL     1      33.484 -23.782 -15.282  0.00  0.00    +0.117 C 
BRANCH  24  26
ATOM     25  F   UNL     1      37.404 -26.046 -11.948  0.00  0.00    -0.205 F 
ATOM     26  C   UNL     1      34.526 -24.384 -14.400  0.00  0.00    -0.003 C 
ATOM     27  C   UNL     1      35.557 -25.142 -14.955  0.00  0.00    -0.005 C 
ATOM     28  C   UNL     1      36.531 -25.705 -14.129  0.00  0.00    +0.005 C 
ATOM     29  C   UNL     1      34.470 -24.188 -13.020  0.00  0.00    -0.000 C 
ATOM     30  C   UNL     1      36.473 -25.509 -12.749  0.00  0.00    +0.136 C 
ATOM     31  C   UNL     1      35.442 -24.752 -12.195  0.00  0.00    +0.029 C 
ATOM     32  C   UNL     1      37.633 -26.515 -14.726  0.00  0.00    +0.033 C 
ENDBRANCH  24  26
ENDBRANCH  21  24
ENDBRANCH   4  22
TORSDOF 6
ENDMDL
