MODEL 1
REMARK VINA RESULT:     -12.7      0.000      0.000
REMARK  Name = 24743471
REMARK  3 active torsions:
REMARK  status: ('A' for Active; 'I' for Inactive)
REMARK    1  A    between atoms: C_1  and  N_7
REMARK    2  A    between atoms: C_6  and  C_17
REMARK    3  A    between atoms: C_22  and  N_24
REMARK                            x       y       z     vdW  Elec       q    Type
REMARK                         _______ _______ _______ _____ _____    ______ ____
ROOT
ATOM      1  C   UNL     1      35.652 -23.239 -15.990  0.00  0.00    +0.048 C 
ATOM      2  C   UNL     1      34.425 -23.288 -16.652  0.00  0.00    +0.015 C 
ATOM      3  C   UNL     1      36.681 -22.438 -16.486  0.00  0.00    +0.015 C 
ATOM      4  C   UNL     1      34.227 -22.535 -17.810  0.00  0.00    +0.001 C 
ATOM      5  C   UNL     1      36.482 -21.685 -17.644  0.00  0.00    +0.001 C 
ATOM      6  C   UNL     1      35.254 -21.734 -18.305  0.00  0.00    +0.000 C 
ENDROOT
BRANCH   1   7
ATOM      7  N   UNL     1      35.850 -23.983 -14.844  0.00  0.00    -0.311 N 
ATOM      8  N   UNL     1      38.415 -26.270 -14.229  0.00  0.00    +0.387 N 
ATOM      9  C   UNL     1      36.359 -25.747 -13.331  0.00  0.00    -0.003 C 
ATOM     10  C   UNL     1      36.301 -25.378 -14.824  0.00  0.00    +0.050 C 
ATOM     11  C   UNL     1      35.530 -24.690 -12.623  0.00  0.00    +0.021 C 
ATOM     12  C   UNL     1      37.844 -25.738 -12.993  0.00  0.00    -0.076 C 
ATOM     13  C   UNL     1      37.747 -25.537 -15.309  0.00  0.00    -0.057 C 
ATOM     14  C   UNL     1      35.675 -23.448 -13.495  0.00  0.00    +0.091 C 
ATOM     15  C   UNL     1      39.863 -26.134 -14.276  0.00  0.00    -0.101 C 
ATOM     16  H   UNL     1      38.260 -27.276 -14.309  0.00  0.00    -0.080 HD
ENDBRANCH   1   7
BRANCH   6  17
ATOM     17  C   UNL     1      35.049 -20.953 -19.506  0.00  0.00    +0.000 C 
ATOM     18  C   UNL     1      36.141 -20.381 -20.160  0.00  0.00    +0.001 C 
ATOM     19  C   UNL     1      33.761 -20.772 -20.009  0.00  0.00    +0.001 C 
ATOM     20  C   UNL     1      35.943 -19.628 -21.317  0.00  0.00    +0.017 C 
ATOM     21  C   UNL     1      33.564 -20.019 -21.166  0.00  0.00    +0.017 C 
ATOM     22  C   UNL     1      34.655 -19.447 -21.820  0.00  0.00    +0.077 C 
BRANCH  22  24
ATOM     23  O   UNL     1      34.851 -16.500 -22.185  0.00  0.00    -0.268 OA
ATOM     24  N   UNL     1      34.451 -18.667 -23.019  0.00  0.00    -0.155 N 
ATOM     25  N   UNL     1      34.165 -19.434 -24.124  0.00  0.00    -0.170 NA
ATOM     26  C   UNL     1      34.539 -17.272 -23.091  0.00  0.00    +0.272 C 
ATOM     27  C   UNL     1      34.244 -16.653 -24.408  0.00  0.00    +0.062 C 
ATOM     28  C   UNL     1      33.939 -18.836 -25.242  0.00  0.00    +0.118 C 
ATOM     29  C   UNL     1      33.950 -17.396 -25.469  0.00  0.00    +0.027 C 
ENDBRANCH  22  24
ENDBRANCH   6  17
TORSDOF 3
ENDMDL
MODEL 2
REMARK VINA RESULT:     -12.3      0.958      1.799
REMARK  Name = 24743471
REMARK  3 active torsions:
REMARK  status: ('A' for Active; 'I' for Inactive)
REMARK    1  A    between atoms: C_1  and  N_7
REMARK    2  A    between atoms: C_6  and  C_17
REMARK    3  A    between atoms: C_22  and  N_24
REMARK                            x       y       z     vdW  Elec       q    Type
REMARK                         _______ _______ _______ _____ _____    ______ ____
ROOT
ATOM      1  C   UNL     1      35.678 -23.207 -16.030  0.00  0.00    +0.048 C 
ATOM      2  C   UNL     1      36.716 -22.406 -16.505  0.00  0.00    +0.015 C 
ATOM      3  C   UNL     1      34.457 -23.239 -16.705  0.00  0.00    +0.015 C 
ATOM      4  C   UNL     1      36.534 -21.635 -17.654  0.00  0.00    +0.001 C 
ATOM      5  C   UNL     1      34.276 -22.469 -17.854  0.00  0.00    +0.001 C 
ATOM      6  C   UNL     1      35.314 -21.668 -18.328  0.00  0.00    +0.000 C 
ENDROOT
BRANCH   1   7
ATOM      7  N   UNL     1      35.857 -23.971 -14.894  0.00  0.00    -0.311 N 
ATOM      8  N   UNL     1      38.434 -26.241 -14.262  0.00  0.00    +0.387 N 
ATOM      9  C   UNL     1      36.351 -25.758 -13.404  0.00  0.00    -0.003 C 
ATOM     10  C   UNL     1      36.324 -25.361 -14.890  0.00  0.00    +0.050 C 
ATOM     11  C   UNL     1      35.494 -24.724 -12.695  0.00  0.00    +0.021 C 
ATOM     12  C   UNL     1      37.828 -25.740 -13.030  0.00  0.00    -0.076 C 
ATOM     13  C   UNL     1      37.783 -25.495 -15.343  0.00  0.00    -0.057 C 
ATOM     14  C   UNL     1      35.645 -23.464 -13.540  0.00  0.00    +0.091 C 
ATOM     15  C   UNL     1      39.881 -26.088 -14.273  0.00  0.00    -0.101 C 
ATOM     16  H   UNL     1      38.292 -27.247 -14.366  0.00  0.00    -0.080 HD
ENDBRANCH   1   7
BRANCH   6  17
ATOM     17  C   UNL     1      35.124 -20.869 -19.520  0.00  0.00    +0.000 C 
ATOM     18  C   UNL     1      33.853 -20.745 -20.080  0.00  0.00    +0.001 C 
ATOM     19  C   UNL     1      36.212 -20.225 -20.108  0.00  0.00    +0.001 C 
ATOM     20  C   UNL     1      33.669 -19.975 -21.229  0.00  0.00    +0.017 C 
ATOM     21  C   UNL     1      36.029 -19.455 -21.257  0.00  0.00    +0.017 C 
ATOM     22  C   UNL     1      34.757 -19.331 -21.817  0.00  0.00    +0.077 C 
BRANCH  22  24
ATOM     23  O   UNL     1      34.447 -20.231 -24.636  0.00  0.00    -0.268 OA
ATOM     24  N   UNL     1      34.567 -18.534 -23.007  0.00  0.00    -0.155 N 
ATOM     25  N   UNL     1      34.488 -17.185 -22.750  0.00  0.00    -0.170 NA
ATOM     26  C   UNL     1      34.456 -19.046 -24.304  0.00  0.00    +0.272 C 
ATOM     27  C   UNL     1      34.316 -18.056 -25.402  0.00  0.00    +0.062 C 
ATOM     28  C   UNL     1      34.345 -16.380 -23.746  0.00  0.00    +0.118 C 
ATOM     29  C   UNL     1      34.259 -16.753 -25.153  0.00  0.00    +0.027 C 
ENDBRANCH  22  24
ENDBRANCH   6  17
TORSDOF 3
ENDMDL
MODEL 3
REMARK VINA RESULT:     -11.0      1.207      2.318
REMARK  Name = 24743471
REMARK  3 active torsions:
REMARK  status: ('A' for Active; 'I' for Inactive)
REMARK    1  A    between atoms: C_1  and  N_7
REMARK    2  A    between atoms: C_6  and  C_17
REMARK    3  A    between atoms: C_22  and  N_24
REMARK                            x       y       z     vdW  Elec       q    Type
REMARK                         _______ _______ _______ _____ _____    ______ ____
ROOT
ATOM      1  C   UNL     1      36.203 -23.706 -15.780  0.00  0.00    +0.048 C 
ATOM      2  C   UNL     1      37.212 -22.876 -16.267  0.00  0.00    +0.015 C 
ATOM      3  C   UNL     1      34.940 -23.690 -16.372  0.00  0.00    +0.015 C 
ATOM      4  C   UNL     1      36.959 -22.029 -17.346  0.00  0.00    +0.001 C 
ATOM      5  C   UNL     1      34.687 -22.843 -17.452  0.00  0.00    +0.001 C 
ATOM      6  C   UNL     1      35.697 -22.013 -17.938  0.00  0.00    +0.000 C 
ENDROOT
BRANCH   1   7
ATOM      7  N   UNL     1      36.452 -24.546 -14.712  0.00  0.00    -0.311 N 
ATOM      8  N   UNL     1      36.882 -23.636 -11.368  0.00  0.00    +0.387 N 
ATOM      9  C   UNL     1      37.300 -25.474 -12.693  0.00  0.00    -0.003 C 
ATOM     10  C   UNL     1      37.368 -24.240 -13.609  0.00  0.00    +0.050 C 
ATOM     11  C   UNL     1      36.690 -26.574 -13.544  0.00  0.00    +0.021 C 
ATOM     12  C   UNL     1      36.452 -25.026 -11.510  0.00  0.00    -0.076 C 
ATOM     13  C   UNL     1      36.868 -23.088 -12.728  0.00  0.00    -0.057 C 
ATOM     14  C   UNL     1      35.790 -25.835 -14.528  0.00  0.00    +0.091 C 
ATOM     15  C   UNL     1      36.036 -22.881 -10.456  0.00  0.00    -0.101 C 
ATOM     16  H   UNL     1      37.812 -23.573 -10.951  0.00  0.00    -0.080 HD
ENDBRANCH   1   7
BRANCH   6  17
ATOM     17  C   UNL     1      35.434 -21.135 -19.058  0.00  0.00    +0.000 C 
ATOM     18  C   UNL     1      34.138 -21.020 -19.563  0.00  0.00    +0.001 C 
ATOM     19  C   UNL     1      36.474 -20.406 -19.633  0.00  0.00    +0.001 C 
ATOM     20  C   UNL     1      33.884 -20.173 -20.642  0.00  0.00    +0.017 C 
ATOM     21  C   UNL     1      36.220 -19.560 -20.712  0.00  0.00    +0.017 C 
ATOM     22  C   UNL     1      34.924 -19.444 -21.217  0.00  0.00    +0.077 C 
BRANCH  22  24
ATOM     23  O   UNL     1      34.918 -16.470 -21.294  0.00  0.00    -0.268 OA
ATOM     24  N   UNL     1      34.661 -18.568 -22.334  0.00  0.00    -0.155 N 
ATOM     25  N   UNL     1      34.421 -19.242 -23.509  0.00  0.00    -0.170 NA
ATOM     26  C   UNL     1      34.654 -17.170 -22.271  0.00  0.00    +0.272 C 
ATOM     27  C   UNL     1      34.309 -16.448 -23.522  0.00  0.00    +0.062 C 
ATOM     28  C   UNL     1      34.148 -18.555 -24.565  0.00  0.00    +0.118 C 
ATOM     29  C   UNL     1      34.060 -17.103 -24.651  0.00  0.00    +0.027 C 
ENDBRANCH  22  24
ENDBRANCH   6  17
TORSDOF 3
ENDMDL
MODEL 4
REMARK VINA RESULT:     -10.6      2.387     10.293
REMARK  Name = 24743471
REMARK  3 active torsions:
REMARK  status: ('A' for Active; 'I' for Inactive)
REMARK    1  A    between atoms: C_1  and  N_7
REMARK    2  A    between atoms: C_6  and  C_17
REMARK    3  A    between atoms: C_22  and  N_24
REMARK                            x       y       z     vdW  Elec       q    Type
REMARK                         _______ _______ _______ _____ _____    ______ ____
ROOT
ATOM      1  C   UNL     1      35.071 -18.967 -21.511  0.00  0.00    +0.048 C 
ATOM      2  C   UNL     1      33.976 -19.657 -20.992  0.00  0.00    +0.015 C 
ATOM      3  C   UNL     1      36.340 -19.162 -20.965  0.00  0.00    +0.015 C 
ATOM      4  C   UNL     1      34.148 -20.542 -19.928  0.00  0.00    +0.001 C 
ATOM      5  C   UNL     1      36.513 -20.048 -19.900  0.00  0.00    +0.001 C 
ATOM      6  C   UNL     1      35.416 -20.737 -19.383  0.00  0.00    +0.000 C 
ENDROOT
BRANCH   1   7
ATOM      7  N   UNL     1      34.902 -18.091 -22.565  0.00  0.00    -0.311 N 
ATOM      8  N   UNL     1      33.262 -18.716 -25.584  0.00  0.00    +0.387 N 
ATOM      9  C   UNL     1      34.735 -17.155 -24.745  0.00  0.00    -0.003 C 
ATOM     10  C   UNL     1      34.990 -18.465 -23.980  0.00  0.00    +0.050 C 
ATOM     11  C   UNL     1      34.947 -16.047 -23.728  0.00  0.00    +0.021 C 
ATOM     12  C   UNL     1      33.311 -17.289 -25.268  0.00  0.00    -0.076 C 
ATOM     13  C   UNL     1      33.846 -19.388 -24.419  0.00  0.00    -0.057 C 
ATOM     14  C   UNL     1      34.565 -16.680 -22.394  0.00  0.00    +0.091 C 
ATOM     15  C   UNL     1      31.912 -19.176 -25.873  0.00  0.00    -0.101 C 
ATOM     16  H   UNL     1      33.783 -18.928 -26.436  0.00  0.00    -0.080 HD
ENDBRANCH   1   7
BRANCH   6  17
ATOM     17  C   UNL     1      35.596 -21.655 -18.278  0.00  0.00    +0.000 C 
ATOM     18  C   UNL     1      36.807 -21.683 -17.586  0.00  0.00    +0.001 C 
ATOM     19  C   UNL     1      34.560 -22.511 -17.907  0.00  0.00    +0.001 C 
ATOM     20  C   UNL     1      36.981 -22.568 -16.521  0.00  0.00    +0.017 C 
ATOM     21  C   UNL     1      34.734 -23.396 -16.842  0.00  0.00    +0.017 C 
ATOM     22  C   UNL     1      35.945 -23.424 -16.150  0.00  0.00    +0.077 C 
BRANCH  22  24
ATOM     23  O   UNL     1      36.050 -22.837 -13.235  0.00  0.00    -0.268 OA
ATOM     24  N   UNL     1      36.125 -24.340 -15.048  0.00  0.00    -0.155 N 
ATOM     25  N   UNL     1      36.221 -25.654 -15.443  0.00  0.00    -0.170 NA
ATOM     26  C   UNL     1      36.189 -23.968 -13.700  0.00  0.00    +0.272 C 
ATOM     27  C   UNL     1      36.431 -25.056 -12.719  0.00  0.00    +0.062 C 
ATOM     28  C   UNL     1      36.409 -26.553 -14.539  0.00  0.00    +0.118 C 
ATOM     29  C   UNL     1      36.540 -26.322 -13.106  0.00  0.00    +0.027 C 
ENDBRANCH  22  24
ENDBRANCH   6  17
TORSDOF 3
ENDMDL
MODEL 5
REMARK VINA RESULT:     -10.4      2.628     10.400
REMARK  Name = 24743471
REMARK  3 active torsions:
REMARK  status: ('A' for Active; 'I' for Inactive)
REMARK    1  A    between atoms: C_1  and  N_7
REMARK    2  A    between atoms: C_6  and  C_17
REMARK    3  A    between atoms: C_22  and  N_24
REMARK                            x       y       z     vdW  Elec       q    Type
REMARK                         _______ _______ _______ _____ _____    ______ ____
ROOT
ATOM      1  C   UNL     1      34.761 -20.117 -21.512  0.00  0.00    +0.048 C 
ATOM      2  C   UNL     1      33.708 -20.673 -20.785  0.00  0.00    +0.015 C 
ATOM      3  C   UNL     1      36.065 -20.194 -21.021  0.00  0.00    +0.015 C 
ATOM      4  C   UNL     1      33.959 -21.306 -19.567  0.00  0.00    +0.001 C 
ATOM      5  C   UNL     1      36.315 -20.827 -19.804  0.00  0.00    +0.001 C 
ATOM      6  C   UNL     1      35.262 -21.383 -19.078  0.00  0.00    +0.000 C 
ENDROOT
BRANCH   1   7
ATOM      7  N   UNL     1      34.514 -19.491 -22.718  0.00  0.00    -0.311 N 
ATOM      8  N   UNL     1      34.052 -16.074 -23.266  0.00  0.00    +0.387 N 
ATOM      9  C   UNL     1      33.664 -18.041 -24.401  0.00  0.00    -0.003 C 
ATOM     10  C   UNL     1      33.588 -18.370 -22.900  0.00  0.00    +0.050 C 
ATOM     11  C   UNL     1      34.292 -19.263 -25.049  0.00  0.00    +0.021 C 
ATOM     12  C   UNL     1      34.499 -16.770 -24.472  0.00  0.00    -0.076 C 
ATOM     13  C   UNL     1      34.069 -17.089 -22.208  0.00  0.00    -0.057 C 
ATOM     14  C   UNL     1      35.191 -19.846 -23.964  0.00  0.00    +0.091 C 
ATOM     15  C   UNL     1      34.883 -14.923 -22.947  0.00  0.00    -0.101 C 
ATOM     16  H   UNL     1      33.119 -15.678 -23.388  0.00  0.00    -0.080 HD
ENDBRANCH   1   7
BRANCH   6  17
ATOM     17  C   UNL     1      35.523 -22.039 -17.814  0.00  0.00    +0.000 C 
ATOM     18  C   UNL     1      34.513 -22.771 -17.188  0.00  0.00    +0.001 C 
ATOM     19  C   UNL     1      36.782 -21.939 -17.223  0.00  0.00    +0.001 C 
ATOM     20  C   UNL     1      34.764 -23.404 -15.970  0.00  0.00    +0.017 C 
ATOM     21  C   UNL     1      37.032 -22.572 -16.005  0.00  0.00    +0.017 C 
ATOM     22  C   UNL     1      36.023 -23.304 -15.379  0.00  0.00    +0.077 C 
BRANCH  22  24
ATOM     23  O   UNL     1      36.995 -26.071 -14.881  0.00  0.00    -0.268 OA
ATOM     24  N   UNL     1      36.282 -23.959 -14.119  0.00  0.00    -0.155 N 
ATOM     25  N   UNL     1      36.073 -23.146 -13.030  0.00  0.00    -0.170 NA
ATOM     26  C   UNL     1      36.716 -25.282 -13.978  0.00  0.00    +0.272 C 
ATOM     27  C   UNL     1      36.877 -25.788 -12.592  0.00  0.00    +0.062 C 
ATOM     28  C   UNL     1      36.251 -23.639 -11.853  0.00  0.00    +0.118 C 
ATOM     29  C   UNL     1      36.656 -25.005 -11.542  0.00  0.00    +0.027 C 
ENDBRANCH  22  24
ENDBRANCH   6  17
TORSDOF 3
ENDMDL
MODEL 6
REMARK VINA RESULT:     -10.4      0.997      1.662
REMARK  Name = 24743471
REMARK  3 active torsions:
REMARK  status: ('A' for Active; 'I' for Inactive)
REMARK    1  A    between atoms: C_1  and  N_7
REMARK    2  A    between atoms: C_6  and  C_17
REMARK    3  A    between atoms: C_22  and  N_24
REMARK                            x       y       z     vdW  Elec       q    Type
REMARK                         _______ _______ _______ _____ _____    ______ ____
ROOT
ATOM      1  C   UNL     1      35.584 -22.766 -16.064  0.00  0.00    +0.048 C 
ATOM      2  C   UNL     1      36.612 -21.982 -16.587  0.00  0.00    +0.015 C 
ATOM      3  C   UNL     1      34.378 -22.887 -16.756  0.00  0.00    +0.015 C 
ATOM      4  C   UNL     1      36.434 -21.317 -17.801  0.00  0.00    +0.001 C 
ATOM      5  C   UNL     1      34.201 -22.224 -17.970  0.00  0.00    +0.001 C 
ATOM      6  C   UNL     1      35.230 -21.439 -18.492  0.00  0.00    +0.000 C 
ENDROOT
BRANCH   1   7
ATOM      7  N   UNL     1      35.759 -23.425 -14.863  0.00  0.00    -0.311 N 
ATOM      8  N   UNL     1      36.195 -26.855 -14.381  0.00  0.00    +0.387 N 
ATOM      9  C   UNL     1      35.649 -25.019 -13.101  0.00  0.00    -0.003 C 
ATOM     10  C   UNL     1      35.167 -24.724 -14.532  0.00  0.00    +0.050 C 
ATOM     11  C   UNL     1      36.122 -23.684 -12.553  0.00  0.00    +0.021 C 
ATOM     12  C   UNL     1      36.737 -26.070 -13.274  0.00  0.00    -0.076 C 
ATOM     13  C   UNL     1      35.750 -25.868 -15.371  0.00  0.00    -0.057 C 
ATOM     14  C   UNL     1      36.603 -22.920 -13.782  0.00  0.00    +0.091 C 
ATOM     15  C   UNL     1      37.166 -27.791 -14.928  0.00  0.00    -0.101 C 
ATOM     16  H   UNL     1      35.424 -27.450 -14.075  0.00  0.00    -0.080 HD
ENDBRANCH   1   7
BRANCH   6  17
ATOM     17  C   UNL     1      35.045 -20.750 -19.751  0.00  0.00    +0.000 C 
ATOM     18  C   UNL     1      33.762 -20.585 -20.273  0.00  0.00    +0.001 C 
ATOM     19  C   UNL     1      36.149 -20.253 -20.443  0.00  0.00    +0.001 C 
ATOM     20  C   UNL     1      33.583 -19.922 -21.487  0.00  0.00    +0.017 C 
ATOM     21  C   UNL     1      35.970 -19.590 -21.657  0.00  0.00    +0.017 C 
ATOM     22  C   UNL     1      34.687 -19.425 -22.179  0.00  0.00    +0.077 C 
BRANCH  22  24
ATOM     23  O   UNL     1      35.028 -16.533 -22.793  0.00  0.00    -0.268 OA
ATOM     24  N   UNL     1      34.502 -18.738 -23.436  0.00  0.00    -0.155 N 
ATOM     25  N   UNL     1      34.157 -19.578 -24.469  0.00  0.00    -0.170 NA
ATOM     26  C   UNL     1      34.660 -17.361 -23.627  0.00  0.00    +0.272 C 
ATOM     27  C   UNL     1      34.373 -16.838 -24.986  0.00  0.00    +0.062 C 
ATOM     28  C   UNL     1      33.942 -19.064 -25.631  0.00  0.00    +0.118 C 
ATOM     29  C   UNL     1      34.023 -17.650 -25.978  0.00  0.00    +0.027 C 
ENDBRANCH  22  24
ENDBRANCH   6  17
TORSDOF 3
ENDMDL
MODEL 7
REMARK VINA RESULT:     -10.2      6.167     13.517
REMARK  Name = 24743471
REMARK  3 active torsions:
REMARK  status: ('A' for Active; 'I' for Inactive)
REMARK    1  A    between atoms: C_1  and  N_7
REMARK    2  A    between atoms: C_6  and  C_17
REMARK    3  A    between atoms: C_22  and  N_24
REMARK                            x       y       z     vdW  Elec       q    Type
REMARK                         _______ _______ _______ _____ _____    ______ ____
ROOT
ATOM      1  C   UNL     1      32.887 -10.849 -23.772  0.00  0.00    +0.048 C 
ATOM      2  C   UNL     1      32.310 -11.374 -22.616  0.00  0.00    +0.015 C 
ATOM      3  C   UNL     1      33.824 -11.597 -24.485  0.00  0.00    +0.015 C 
ATOM      4  C   UNL     1      32.671 -12.647 -22.172  0.00  0.00    +0.001 C 
ATOM      5  C   UNL     1      34.184 -12.870 -24.041  0.00  0.00    +0.001 C 
ATOM      6  C   UNL     1      33.607 -13.394 -22.885  0.00  0.00    +0.000 C 
ENDROOT
BRANCH   1   7
ATOM      7  N   UNL     1      32.531  -9.590 -24.213  0.00  0.00    -0.311 N 
ATOM      8  N   UNL     1      31.704  -6.823 -22.251  0.00  0.00    +0.387 N 
ATOM      9  C   UNL     1      31.472  -7.473 -24.449  0.00  0.00    -0.003 C 
ATOM     10  C   UNL     1      31.489  -8.758 -23.603  0.00  0.00    +0.050 C 
ATOM     11  C   UNL     1      32.195  -7.829 -25.736  0.00  0.00    +0.021 C 
ATOM     12  C   UNL     1      32.171  -6.435 -23.581  0.00  0.00    -0.076 C 
ATOM     13  C   UNL     1      31.865  -8.279 -22.196  0.00  0.00    -0.057 C 
ATOM     14  C   UNL     1      33.190  -8.909 -25.325  0.00  0.00    +0.091 C 
ATOM     15  C   UNL     1      32.427  -6.143 -21.187  0.00  0.00    -0.101 C 
ATOM     16  H   UNL     1      30.731  -6.550 -22.102  0.00  0.00    -0.080 HD
ENDBRANCH   1   7
BRANCH   6  17
ATOM     17  C   UNL     1      33.981 -14.714 -22.425  0.00  0.00    +0.000 C 
ATOM     18  C   UNL     1      34.236 -14.934 -21.071  0.00  0.00    +0.001 C 
ATOM     19  C   UNL     1      34.087 -15.766 -23.335  0.00  0.00    +0.001 C 
ATOM     20  C   UNL     1      34.597 -16.206 -20.627  0.00  0.00    +0.017 C 
ATOM     21  C   UNL     1      34.448 -17.038 -22.891  0.00  0.00    +0.017 C 
ATOM     22  C   UNL     1      34.703 -17.258 -21.537  0.00  0.00    +0.077 C 
BRANCH  22  24
ATOM     23  O   UNL     1      32.985 -19.657 -21.156  0.00  0.00    -0.268 OA
ATOM     24  N   UNL     1      35.076 -18.575 -21.077  0.00  0.00    -0.155 N 
ATOM     25  N   UNL     1      36.423 -18.703 -20.828  0.00  0.00    -0.170 NA
ATOM     26  C   UNL     1      34.189 -19.643 -20.902  0.00  0.00    +0.272 C 
ATOM     27  C   UNL     1      34.762 -20.906 -20.371  0.00  0.00    +0.062 C 
ATOM     28  C   UNL     1      36.860 -19.832 -20.389  0.00  0.00    +0.118 C 
ATOM     29  C   UNL     1      36.060 -21.020 -20.114  0.00  0.00    +0.027 C 
ENDBRANCH  22  24
ENDBRANCH   6  17
TORSDOF 3
ENDMDL
MODEL 8
REMARK VINA RESULT:      -9.9      7.712     14.957
REMARK  Name = 24743471
REMARK  3 active torsions:
REMARK  status: ('A' for Active; 'I' for Inactive)
REMARK    1  A    between atoms: C_1  and  N_7
REMARK    2  A    between atoms: C_6  and  C_17
REMARK    3  A    between atoms: C_22  and  N_24
REMARK                            x       y       z     vdW  Elec       q    Type
REMARK                         _______ _______ _______ _____ _____    ______ ____
ROOT
ATOM      1  C   UNL     1      32.699  -8.709 -23.395  0.00  0.00    +0.048 C 
ATOM      2  C   UNL     1      33.715  -9.148 -24.244  0.00  0.00    +0.015 C 
ATOM      3  C   UNL     1      31.914  -9.637 -22.710  0.00  0.00    +0.015 C 
ATOM      4  C   UNL     1      33.945 -10.514 -24.409  0.00  0.00    +0.001 C 
ATOM      5  C   UNL     1      32.145 -11.003 -22.875  0.00  0.00    +0.001 C 
ATOM      6  C   UNL     1      33.161 -11.440 -23.724  0.00  0.00    +0.000 C 
ENDROOT
BRANCH   1   7
ATOM      7  N   UNL     1      32.471  -7.357 -23.230  0.00  0.00    -0.311 N 
ATOM      8  N   UNL     1      30.942  -5.184 -25.496  0.00  0.00    +0.387 N 
ATOM      9  C   UNL     1      32.257  -5.019 -23.612  0.00  0.00    -0.003 C 
ATOM     10  C   UNL     1      32.615  -6.354 -24.289  0.00  0.00    +0.050 C 
ATOM     11  C   UNL     1      32.354  -5.287 -22.120  0.00  0.00    +0.021 C 
ATOM     12  C   UNL     1      30.859  -4.694 -24.121  0.00  0.00    -0.076 C 
ATOM     13  C   UNL     1      31.564  -6.509 -25.396  0.00  0.00    -0.057 C 
ATOM     14  C   UNL     1      32.007  -6.765 -21.977  0.00  0.00    +0.091 C 
ATOM     15  C   UNL     1      29.643  -5.228 -26.150  0.00  0.00    -0.101 C 
ATOM     16  H   UNL     1      31.493  -4.557 -26.084  0.00  0.00    -0.080 HD
ENDBRANCH   1   7
BRANCH   6  17
ATOM     17  C   UNL     1      33.399 -12.858 -23.895  0.00  0.00    +0.000 C 
ATOM     18  C   UNL     1      34.007 -13.589 -22.874  0.00  0.00    +0.001 C 
ATOM     19  C   UNL     1      33.023 -13.491 -25.079  0.00  0.00    +0.001 C 
ATOM     20  C   UNL     1      34.237 -14.956 -23.038  0.00  0.00    +0.017 C 
ATOM     21  C   UNL     1      33.253 -14.857 -25.243  0.00  0.00    +0.017 C 
ATOM     22  C   UNL     1      33.861 -15.589 -24.222  0.00  0.00    +0.077 C 
BRANCH  22  24
ATOM     23  O   UNL     1      33.579 -17.247 -26.676  0.00  0.00    -0.268 OA
ATOM     24  N   UNL     1      34.099 -17.003 -24.391  0.00  0.00    -0.155 N 
ATOM     25  N   UNL     1      34.551 -17.620 -23.247  0.00  0.00    -0.170 NA
ATOM     26  C   UNL     1      33.914 -17.709 -25.585  0.00  0.00    +0.272 C 
ATOM     27  C   UNL     1      34.165 -19.172 -25.541  0.00  0.00    +0.062 C 
ATOM     28  C   UNL     1      34.771 -18.889 -23.281  0.00  0.00    +0.118 C 
ATOM     29  C   UNL     1      34.584 -19.767 -24.430  0.00  0.00    +0.027 C 
ENDBRANCH  22  24
ENDBRANCH   6  17
TORSDOF 3
ENDMDL
MODEL 9
REMARK VINA RESULT:      -9.8      1.320      2.665
REMARK  Name = 24743471
REMARK  3 active torsions:
REMARK  status: ('A' for Active; 'I' for Inactive)
REMARK    1  A    between atoms: C_1  and  N_7
REMARK    2  A    between atoms: C_6  and  C_17
REMARK    3  A    between atoms: C_22  and  N_24
REMARK                            x       y       z     vdW  Elec       q    Type
REMARK                         _______ _______ _______ _____ _____    ______ ____
ROOT
ATOM      1  C   UNL     1      35.864 -22.553 -16.675  0.00  0.00    +0.048 C 
ATOM      2  C   UNL     1      36.796 -21.622 -17.134  0.00  0.00    +0.015 C 
ATOM      3  C   UNL     1      34.681 -22.763 -17.385  0.00  0.00    +0.015 C 
ATOM      4  C   UNL     1      36.546 -20.901 -18.302  0.00  0.00    +0.001 C 
ATOM      5  C   UNL     1      34.432 -22.043 -18.553  0.00  0.00    +0.001 C 
ATOM      6  C   UNL     1      35.364 -21.112 -19.011  0.00  0.00    +0.000 C 
ENDROOT
BRANCH   1   7
ATOM      7  N   UNL     1      36.111 -23.268 -15.520  0.00  0.00    -0.311 N 
ATOM      8  N   UNL     1      33.813 -24.116 -13.031  0.00  0.00    +0.387 N 
ATOM      9  C   UNL     1      36.104 -24.032 -13.267  0.00  0.00    -0.003 C 
ATOM     10  C   UNL     1      35.519 -22.968 -14.213  0.00  0.00    +0.050 C 
ATOM     11  C   UNL     1      37.313 -24.594 -13.993  0.00  0.00    +0.021 C 
ATOM     12  C   UNL     1      34.964 -25.018 -13.049  0.00  0.00    -0.076 C 
ATOM     13  C   UNL     1      34.007 -23.222 -14.178  0.00  0.00    -0.057 C 
ATOM     14  C   UNL     1      36.967 -24.452 -15.472  0.00  0.00    +0.091 C 
ATOM     15  C   UNL     1      32.546 -24.828 -13.089  0.00  0.00    -0.101 C 
ATOM     16  H   UNL     1      33.763 -23.593 -12.156  0.00  0.00    -0.080 HD
ENDBRANCH   1   7
BRANCH   6  17
ATOM     17  C   UNL     1      35.104 -20.364 -20.222  0.00  0.00    +0.000 C 
ATOM     18  C   UNL     1      33.801 -20.261 -20.711  0.00  0.00    +0.001 C 
ATOM     19  C   UNL     1      36.154 -19.749 -20.902  0.00  0.00    +0.001 C 
ATOM     20  C   UNL     1      33.549 -19.541 -21.879  0.00  0.00    +0.017 C 
ATOM     21  C   UNL     1      35.903 -19.028 -22.070  0.00  0.00    +0.017 C 
ATOM     22  C   UNL     1      34.600 -18.925 -22.558  0.00  0.00    +0.077 C 
BRANCH  22  24
ATOM     23  O   UNL     1      34.770 -15.990 -23.012  0.00  0.00    -0.268 OA
ATOM     24  N   UNL     1      34.339 -18.180 -23.767  0.00  0.00    -0.155 N 
ATOM     25  N   UNL     1      34.006 -18.977 -24.837  0.00  0.00    -0.170 NA
ATOM     26  C   UNL     1      34.420 -16.787 -23.882  0.00  0.00    +0.272 C 
ATOM     27  C   UNL     1      34.063 -16.205 -25.200  0.00  0.00    +0.062 C 
ATOM     28  C   UNL     1      33.727 -18.411 -25.960  0.00  0.00    +0.118 C 
ATOM     29  C   UNL     1      33.724 -16.977 -26.226  0.00  0.00    +0.027 C 
ENDBRANCH  22  24
ENDBRANCH   6  17
TORSDOF 3
ENDMDL
