MODEL 1
REMARK VINA RESULT:     -12.3      0.000      0.000
REMARK  Name = 5288711
REMARK  4 active torsions:
REMARK  status: ('A' for Active; 'I' for Inactive)
REMARK    1  A    between atoms: C_1  and  S_7
REMARK    2  A    between atoms: C_2  and  N_17
REMARK    3  A    between atoms: S_7  and  N_11
REMARK    4  A    between atoms: N_17  and  C_25
REMARK                            x       y       z     vdW  Elec       q    Type
REMARK                         _______ _______ _______ _____ _____    ______ ____
ROOT
ATOM      1  C   UNL     1      33.757 -21.779 -19.285  0.00  0.00    +0.125 C 
ATOM      2  C   UNL     1      34.245 -19.844 -21.243  0.00  0.00    +0.048 C 
ATOM      3  C   UNL     1      32.691 -21.109 -19.886  0.00  0.00    +0.021 C 
ATOM      4  C   UNL     1      35.066 -21.484 -19.662  0.00  0.00    +0.021 C 
ATOM      5  C   UNL     1      32.934 -20.145 -20.863  0.00  0.00    +0.016 C 
ATOM      6  C   UNL     1      35.311 -20.518 -20.639  0.00  0.00    +0.016 C 
ENDROOT
BRANCH   1   7
ATOM      7  S   UNL     1      33.452 -22.987 -18.062  0.00  0.00    +0.075 S 
ATOM      8  O   UNL     1      33.284 -24.277 -18.719  0.00  0.00    -0.150 OA
ATOM      9  O   UNL     1      34.469 -22.836 -17.028  0.00  0.00    -0.150 OA
BRANCH   7  11
ATOM     10  S   UNL     1      29.747 -23.618 -16.181  0.00  0.00    -0.050 S 
ATOM     11  N   UNL     1      31.928 -22.472 -17.458  0.00  0.00    -0.194 N 
ATOM     12  N   UNL     1      32.191 -23.619 -15.339  0.00  0.00    -0.221 NA
ATOM     13  C   UNL     1      31.402 -23.229 -16.301  0.00  0.00    +0.179 C 
ATOM     14  C   UNL     1      30.081 -24.396 -14.690  0.00  0.00    +0.059 C 
ATOM     15  C   UNL     1      31.428 -24.294 -14.406  0.00  0.00    +0.108 C 
ATOM     16  H   UNL     1      31.435 -21.719 -17.857  0.00  0.00    +0.176 HD
ENDBRANCH   7  11
ENDBRANCH   1   7
BRANCH   2  17
ATOM     17  N   UNL     1      34.490 -18.872 -22.227  0.00  0.00    -0.311 N 
ATOM     18  H   UNL     1      35.259 -18.281 -22.061  0.00  0.00    +0.152 HD
BRANCH  17  25
ATOM     19  O   UNL     1      35.177 -16.097 -22.707  0.00  0.00    -0.270 OA
ATOM     20  N   UNL     1      34.134 -15.334 -24.685  0.00  0.00    -0.280 N 
ATOM     21  C   UNL     1      33.018 -17.243 -25.317  0.00  0.00    +0.019 C 
ATOM     22  C   UNL     1      33.747 -17.508 -24.081  0.00  0.00    +0.069 C 
ATOM     23  C   UNL     1      33.287 -15.910 -25.639  0.00  0.00    +0.051 C 
ATOM     24  C   UNL     1      34.468 -16.252 -23.684  0.00  0.00    +0.251 C 
ATOM     25  C   UNL     1      33.806 -18.639 -23.376  0.00  0.00    +0.066 C 
ATOM     26  C   UNL     1      32.199 -18.013 -26.122  0.00  0.00    +0.001 C 
ATOM     27  C   UNL     1      32.760 -15.299 -26.760  0.00  0.00    +0.015 C 
ATOM     28  C   UNL     1      31.654 -17.414 -27.263  0.00  0.00    +0.000 C 
ATOM     29  C   UNL     1      31.932 -16.071 -27.579  0.00  0.00    +0.001 C 
ATOM     30  H   UNL     1      34.452 -14.404 -24.714  0.00  0.00    +0.155 HD
ENDBRANCH  17  25
ENDBRANCH   2  17
TORSDOF 4
ENDMDL
MODEL 2
REMARK VINA RESULT:     -12.3      1.583      2.237
REMARK  Name = 5288711
REMARK  4 active torsions:
REMARK  status: ('A' for Active; 'I' for Inactive)
REMARK    1  A    between atoms: C_1  and  S_7
REMARK    2  A    between atoms: C_2  and  N_17
REMARK    3  A    between atoms: S_7  and  N_11
REMARK    4  A    between atoms: N_17  and  C_25
REMARK                            x       y       z     vdW  Elec       q    Type
REMARK                         _______ _______ _______ _____ _____    ______ ____
ROOT
ATOM      1  C   UNL     1      34.100 -21.899 -19.036  0.00  0.00    +0.125 C 
ATOM      2  C   UNL     1      35.227 -19.983 -20.732  0.00  0.00    +0.048 C 
ATOM      3  C   UNL     1      33.277 -21.090 -19.820  0.00  0.00    +0.021 C 
ATOM      4  C   UNL     1      35.485 -21.751 -19.099  0.00  0.00    +0.021 C 
ATOM      5  C   UNL     1      33.839 -20.135 -20.666  0.00  0.00    +0.016 C 
ATOM      6  C   UNL     1      36.048 -20.796 -19.945  0.00  0.00    +0.016 C 
ENDROOT
BRANCH   1   7
ATOM      7  S   UNL     1      33.397 -23.095 -17.976  0.00  0.00    +0.075 S 
ATOM      8  O   UNL     1      33.169 -24.313 -18.743  0.00  0.00    -0.150 OA
ATOM      9  O   UNL     1      34.211 -23.149 -16.769  0.00  0.00    -0.150 OA
BRANCH   7  11
ATOM     10  S   UNL     1      29.427 -23.176 -16.599  0.00  0.00    -0.050 S 
ATOM     11  N   UNL     1      31.878 -22.373 -17.622  0.00  0.00    -0.194 N 
ATOM     12  N   UNL     1      31.720 -23.384 -15.425  0.00  0.00    -0.221 NA
ATOM     13  C   UNL     1      31.117 -22.981 -16.508  0.00  0.00    +0.179 C 
ATOM     14  C   UNL     1      29.466 -23.876 -15.034  0.00  0.00    +0.059 C 
ATOM     15  C   UNL     1      30.765 -23.901 -14.571  0.00  0.00    +0.108 C 
ATOM     16  H   UNL     1      31.535 -21.601 -18.128  0.00  0.00    +0.176 HD
ENDBRANCH   7  11
ENDBRANCH   1   7
BRANCH   2  17
ATOM     17  N   UNL     1      35.793 -19.020 -21.584  0.00  0.00    -0.311 N 
ATOM     18  H   UNL     1      36.597 -19.305 -22.076  0.00  0.00    +0.152 HD
BRANCH  17  25
ATOM     19  O   UNL     1      34.701 -19.298 -24.255  0.00  0.00    -0.270 OA
ATOM     20  N   UNL     1      33.863 -17.221 -25.008  0.00  0.00    -0.280 N 
ATOM     21  C   UNL     1      34.335 -15.907 -23.181  0.00  0.00    +0.019 C 
ATOM     22  C   UNL     1      34.785 -17.269 -22.914  0.00  0.00    +0.069 C 
ATOM     23  C   UNL     1      33.783 -15.934 -24.465  0.00  0.00    +0.051 C 
ATOM     24  C   UNL     1      34.470 -18.112 -24.116  0.00  0.00    +0.251 C 
ATOM     25  C   UNL     1      35.378 -17.749 -21.820  0.00  0.00    +0.066 C 
ATOM     26  C   UNL     1      34.365 -14.734 -22.450  0.00  0.00    +0.001 C 
ATOM     27  C   UNL     1      33.248 -14.811 -25.064  0.00  0.00    +0.015 C 
ATOM     28  C   UNL     1      33.828 -13.584 -23.038  0.00  0.00    +0.000 C 
ATOM     29  C   UNL     1      33.275 -13.622 -24.332  0.00  0.00    +0.001 C 
ATOM     30  H   UNL     1      33.536 -17.469 -25.903  0.00  0.00    +0.155 HD
ENDBRANCH  17  25
ENDBRANCH   2  17
TORSDOF 4
ENDMDL
MODEL 3
REMARK VINA RESULT:     -12.3      2.695     10.234
REMARK  Name = 5288711
REMARK  4 active torsions:
REMARK  status: ('A' for Active; 'I' for Inactive)
REMARK    1  A    between atoms: C_1  and  S_7
REMARK    2  A    between atoms: C_2  and  N_17
REMARK    3  A    between atoms: S_7  and  N_11
REMARK    4  A    between atoms: N_17  and  C_25
REMARK                            x       y       z     vdW  Elec       q    Type
REMARK                         _______ _______ _______ _____ _____    ______ ____
ROOT
ATOM      1  C   UNL     1      34.992 -19.664 -21.140  0.00  0.00    +0.125 C 
ATOM      2  C   UNL     1      34.515 -21.665 -19.247  0.00  0.00    +0.048 C 
ATOM      3  C   UNL     1      33.683 -20.026 -20.821  0.00  0.00    +0.021 C 
ATOM      4  C   UNL     1      36.062 -20.301 -20.514  0.00  0.00    +0.021 C 
ATOM      5  C   UNL     1      33.445 -21.023 -19.877  0.00  0.00    +0.016 C 
ATOM      6  C   UNL     1      35.825 -21.299 -19.569  0.00  0.00    +0.016 C 
ENDROOT
BRANCH   1   7
ATOM      7  S   UNL     1      35.290 -18.415 -22.323  0.00  0.00    +0.075 S 
ATOM      8  O   UNL     1      34.529 -17.230 -21.945  0.00  0.00    -0.150 OA
ATOM      9  O   UNL     1      36.733 -18.313 -22.504  0.00  0.00    -0.150 OA
BRANCH   7  11
ATOM     10  S   UNL     1      32.567 -18.453 -25.524  0.00  0.00    -0.050 S 
ATOM     11  N   UNL     1      34.576 -19.106 -23.725  0.00  0.00    -0.194 N 
ATOM     12  N   UNL     1      34.670 -17.045 -24.996  0.00  0.00    -0.221 NA
ATOM     13  C   UNL     1      34.036 -18.149 -24.715  0.00  0.00    +0.179 C 
ATOM     14  C   UNL     1      32.765 -16.965 -26.353  0.00  0.00    +0.059 C 
ATOM     15  C   UNL     1      33.935 -16.360 -25.944  0.00  0.00    +0.108 C 
ATOM     16  H   UNL     1      34.529 -20.080 -23.861  0.00  0.00    +0.176 HD
ENDBRANCH   7  11
ENDBRANCH   1   7
BRANCH   2  17
ATOM     17  N   UNL     1      34.275 -22.670 -18.296  0.00  0.00    -0.311 N 
ATOM     18  H   UNL     1      35.030 -23.275 -18.114  0.00  0.00    +0.152 HD
BRANCH  17  25
ATOM     19  O   UNL     1      35.368 -23.987 -15.955  0.00  0.00    -0.270 OA
ATOM     20  N   UNL     1      33.628 -24.578 -14.471  0.00  0.00    -0.280 N 
ATOM     21  C   UNL     1      31.811 -23.792 -15.642  0.00  0.00    +0.019 C 
ATOM     22  C   UNL     1      33.023 -23.519 -16.408  0.00  0.00    +0.069 C 
ATOM     23  C   UNL     1      32.236 -24.436 -14.476  0.00  0.00    +0.051 C 
ATOM     24  C   UNL     1      34.198 -24.038 -15.629  0.00  0.00    +0.251 C 
ATOM     25  C   UNL     1      33.140 -22.919 -17.594  0.00  0.00    +0.066 C 
ATOM     26  C   UNL     1      30.470 -23.545 -15.864  0.00  0.00    +0.001 C 
ATOM     27  C   UNL     1      31.354 -24.852 -13.499  0.00  0.00    +0.015 C 
ATOM     28  C   UNL     1      29.558 -23.958 -14.886  0.00  0.00    +0.000 C 
ATOM     29  C   UNL     1      29.996 -24.605 -13.715  0.00  0.00    +0.001 C 
ATOM     30  H   UNL     1      34.141 -25.003 -13.747  0.00  0.00    +0.155 HD
ENDBRANCH  17  25
ENDBRANCH   2  17
TORSDOF 4
ENDMDL
MODEL 4
REMARK VINA RESULT:     -11.5      5.090     10.837
REMARK  Name = 5288711
REMARK  4 active torsions:
REMARK  status: ('A' for Active; 'I' for Inactive)
REMARK    1  A    between atoms: C_1  and  S_7
REMARK    2  A    between atoms: C_2  and  N_17
REMARK    3  A    between atoms: S_7  and  N_11
REMARK    4  A    between atoms: N_17  and  C_25
REMARK                            x       y       z     vdW  Elec       q    Type
REMARK                         _______ _______ _______ _____ _____    ______ ____
ROOT
ATOM      1  C   UNL     1      33.553 -14.057 -23.742  0.00  0.00    +0.125 C 
ATOM      2  C   UNL     1      34.421 -16.648 -23.151  0.00  0.00    +0.048 C 
ATOM      3  C   UNL     1      33.432 -15.068 -24.695  0.00  0.00    +0.021 C 
ATOM      4  C   UNL     1      34.107 -14.339 -22.494  0.00  0.00    +0.021 C 
ATOM      5  C   UNL     1      33.864 -16.360 -24.401  0.00  0.00    +0.016 C 
ATOM      6  C   UNL     1      34.540 -15.632 -22.198  0.00  0.00    +0.016 C 
ENDROOT
BRANCH   1   7
ATOM      7  S   UNL     1      33.012 -12.438 -24.111  0.00  0.00    +0.075 S 
ATOM      8  O   UNL     1      32.468 -12.430 -25.463  0.00  0.00    -0.150 OA
ATOM      9  O   UNL     1      32.183 -11.985 -23.001  0.00  0.00    -0.150 OA
BRANCH   7  11
ATOM     10  S   UNL     1      35.646  -9.476 -25.510  0.00  0.00    -0.050 S 
ATOM     11  N   UNL     1      34.502 -11.581 -24.110  0.00  0.00    -0.194 N 
ATOM     12  N   UNL     1      33.443  -9.402 -24.160  0.00  0.00    -0.221 NA
ATOM     13  C   UNL     1      34.434 -10.164 -24.530  0.00  0.00    +0.179 C 
ATOM     14  C   UNL     1      34.786  -7.993 -25.458  0.00  0.00    +0.059 C 
ATOM     15  C   UNL     1      33.647  -8.146 -24.696  0.00  0.00    +0.108 C 
ATOM     16  H   UNL     1      35.350 -12.007 -23.845  0.00  0.00    +0.176 HD
ENDBRANCH   7  11
ENDBRANCH   1   7
BRANCH   2  17
ATOM     17  N   UNL     1      34.856 -17.950 -22.855  0.00  0.00    -0.311 N 
ATOM     18  H   UNL     1      35.678 -18.240 -23.313  0.00  0.00    +0.152 HD
BRANCH  17  25
ATOM     19  O   UNL     1      37.193 -18.855 -21.397  0.00  0.00    -0.270 OA
ATOM     20  N   UNL     1      36.575 -20.494 -19.812  0.00  0.00    -0.280 N 
ATOM     21  C   UNL     1      34.310 -20.597 -20.197  0.00  0.00    +0.019 C 
ATOM     22  C   UNL     1      34.900 -19.614 -21.100  0.00  0.00    +0.069 C 
ATOM     23  C   UNL     1      35.370 -21.101 -19.438  0.00  0.00    +0.051 C 
ATOM     24  C   UNL     1      36.377 -19.560 -20.835  0.00  0.00    +0.251 C 
ATOM     25  C   UNL     1      34.295 -18.861 -22.021  0.00  0.00    +0.066 C 
ATOM     26  C   UNL     1      33.021 -21.053 -19.999  0.00  0.00    +0.001 C 
ATOM     27  C   UNL     1      35.192 -22.065 -18.466  0.00  0.00    +0.015 C 
ATOM     28  C   UNL     1      32.816 -22.031 -19.019  0.00  0.00    +0.000 C 
ATOM     29  C   UNL     1      33.891 -22.531 -18.260  0.00  0.00    +0.001 C 
ATOM     30  H   UNL     1      37.449 -20.699 -19.409  0.00  0.00    +0.155 HD
ENDBRANCH  17  25
ENDBRANCH   2  17
TORSDOF 4
ENDMDL
MODEL 5
REMARK VINA RESULT:     -11.5      1.757      2.085
REMARK  Name = 5288711
REMARK  4 active torsions:
REMARK  status: ('A' for Active; 'I' for Inactive)
REMARK    1  A    between atoms: C_1  and  S_7
REMARK    2  A    between atoms: C_2  and  N_17
REMARK    3  A    between atoms: S_7  and  N_11
REMARK    4  A    between atoms: N_17  and  C_25
REMARK                            x       y       z     vdW  Elec       q    Type
REMARK                         _______ _______ _______ _____ _____    ______ ____
ROOT
ATOM      1  C   UNL     1      33.780 -21.624 -19.400  0.00  0.00    +0.125 C 
ATOM      2  C   UNL     1      34.239 -19.689 -21.365  0.00  0.00    +0.048 C 
ATOM      3  C   UNL     1      32.706 -20.937 -19.968  0.00  0.00    +0.021 C 
ATOM      4  C   UNL     1      35.082 -21.345 -19.814  0.00  0.00    +0.021 C 
ATOM      5  C   UNL     1      32.935 -19.973 -20.949  0.00  0.00    +0.016 C 
ATOM      6  C   UNL     1      35.312 -20.380 -20.794  0.00  0.00    +0.016 C 
ENDROOT
BRANCH   1   7
ATOM      7  S   UNL     1      33.493 -22.832 -18.173  0.00  0.00    +0.075 S 
ATOM      8  O   UNL     1      32.377 -22.393 -17.345  0.00  0.00    -0.150 OA
ATOM      9  O   UNL     1      33.429 -24.129 -18.835  0.00  0.00    -0.150 OA
BRANCH   7  11
ATOM     10  S   UNL     1      35.667 -22.785 -14.576  0.00  0.00    -0.050 S 
ATOM     11  N   UNL     1      34.941 -22.721 -17.253  0.00  0.00    -0.194 N 
ATOM     12  N   UNL     1      34.408 -24.637 -15.868  0.00  0.00    -0.221 NA
ATOM     13  C   UNL     1      34.950 -23.455 -15.969  0.00  0.00    +0.179 C 
ATOM     14  C   UNL     1      35.225 -24.203 -13.718  0.00  0.00    +0.059 C 
ATOM     15  C   UNL     1      34.567 -25.070 -14.566  0.00  0.00    +0.108 C 
ATOM     16  H   UNL     1      35.718 -22.201 -17.562  0.00  0.00    +0.176 HD
ENDBRANCH   7  11
ENDBRANCH   1   7
BRANCH   2  17
ATOM     17  N   UNL     1      34.469 -18.717 -22.353  0.00  0.00    -0.311 N 
ATOM     18  H   UNL     1      35.233 -18.117 -22.191  0.00  0.00    +0.152 HD
BRANCH  17  25
ATOM     19  O   UNL     1      35.108 -15.930 -22.833  0.00  0.00    -0.270 OA
ATOM     20  N   UNL     1      34.046 -15.184 -24.807  0.00  0.00    -0.280 N 
ATOM     21  C   UNL     1      32.962 -17.112 -25.438  0.00  0.00    +0.019 C 
ATOM     22  C   UNL     1      33.699 -17.365 -24.204  0.00  0.00    +0.069 C 
ATOM     23  C   UNL     1      33.207 -15.774 -25.760  0.00  0.00    +0.051 C 
ATOM     24  C   UNL     1      34.399 -16.097 -23.808  0.00  0.00    +0.251 C 
ATOM     25  C   UNL     1      33.780 -18.495 -23.500  0.00  0.00    +0.066 C 
ATOM     26  C   UNL     1      32.155 -17.895 -26.242  0.00  0.00    +0.001 C 
ATOM     27  C   UNL     1      32.667 -15.171 -26.879  0.00  0.00    +0.015 C 
ATOM     28  C   UNL     1      31.597 -17.304 -27.381  0.00  0.00    +0.000 C 
ATOM     29  C   UNL     1      31.851 -15.957 -27.696  0.00  0.00    +0.001 C 
ATOM     30  H   UNL     1      34.348 -14.248 -24.836  0.00  0.00    +0.155 HD
ENDBRANCH  17  25
ENDBRANCH   2  17
TORSDOF 4
ENDMDL
MODEL 6
REMARK VINA RESULT:     -11.4      4.864     10.482
REMARK  Name = 5288711
REMARK  4 active torsions:
REMARK  status: ('A' for Active; 'I' for Inactive)
REMARK    1  A    between atoms: C_1  and  S_7
REMARK    2  A    between atoms: C_2  and  N_17
REMARK    3  A    between atoms: S_7  and  N_11
REMARK    4  A    between atoms: N_17  and  C_25
REMARK                            x       y       z     vdW  Elec       q    Type
REMARK                         _______ _______ _______ _____ _____    ______ ____
ROOT
ATOM      1  C   UNL     1      33.434 -15.697 -25.880  0.00  0.00    +0.125 C 
ATOM      2  C   UNL     1      34.520 -17.286 -23.853  0.00  0.00    +0.048 C 
ATOM      3  C   UNL     1      33.750 -15.132 -24.645  0.00  0.00    +0.021 C 
ATOM      4  C   UNL     1      33.660 -17.054 -26.104  0.00  0.00    +0.021 C 
ATOM      5  C   UNL     1      34.292 -15.924 -23.634  0.00  0.00    +0.016 C 
ATOM      6  C   UNL     1      34.202 -17.848 -25.093  0.00  0.00    +0.016 C 
ENDROOT
BRANCH   1   7
ATOM      7  S   UNL     1      32.755 -14.705 -27.147  0.00  0.00    +0.075 S 
ATOM      8  O   UNL     1      33.841 -14.230 -27.994  0.00  0.00    -0.150 OA
ATOM      9  O   UNL     1      31.651 -15.445 -27.745  0.00  0.00    -0.150 OA
BRANCH   7  11
ATOM     10  S   UNL     1      33.156 -11.404 -24.577  0.00  0.00    -0.050 S 
ATOM     11  N   UNL     1      32.142 -13.380 -26.239  0.00  0.00    -0.194 N 
ATOM     12  N   UNL     1      33.832 -11.836 -27.034  0.00  0.00    -0.221 NA
ATOM     13  C   UNL     1      33.064 -12.237 -26.060  0.00  0.00    +0.179 C 
ATOM     14  C   UNL     1      34.347 -10.384 -25.273  0.00  0.00    +0.059 C 
ATOM     15  C   UNL     1      34.574 -10.763 -26.579  0.00  0.00    +0.108 C 
ATOM     16  H   UNL     1      31.232 -13.381 -25.862  0.00  0.00    +0.176 HD
ENDBRANCH   7  11
ENDBRANCH   1   7
BRANCH   2  17
ATOM     17  N   UNL     1      35.065 -18.084 -22.834  0.00  0.00    -0.311 N 
ATOM     18  H   UNL     1      36.037 -18.002 -22.701  0.00  0.00    +0.152 HD
BRANCH  17  25
ATOM     19  O   UNL     1      37.296 -19.048 -21.253  0.00  0.00    -0.270 OA
ATOM     20  N   UNL     1      36.542 -20.625 -19.664  0.00  0.00    -0.280 N 
ATOM     21  C   UNL     1      34.294 -20.646 -20.149  0.00  0.00    +0.019 C 
ATOM     22  C   UNL     1      34.963 -19.708 -21.044  0.00  0.00    +0.069 C 
ATOM     23  C   UNL     1      35.298 -21.174 -19.332  0.00  0.00    +0.051 C 
ATOM     24  C   UNL     1      36.428 -19.707 -20.714  0.00  0.00    +0.251 C 
ATOM     25  C   UNL     1      34.430 -18.953 -22.007  0.00  0.00    +0.066 C 
ATOM     26  C   UNL     1      32.980 -21.047 -20.001  0.00  0.00    +0.001 C 
ATOM     27  C   UNL     1      35.037 -22.109 -18.350  0.00  0.00    +0.015 C 
ATOM     28  C   UNL     1      32.692 -21.993 -19.010  0.00  0.00    +0.000 C 
ATOM     29  C   UNL     1      33.711 -22.518 -18.194  0.00  0.00    +0.001 C 
ATOM     30  H   UNL     1      37.387 -20.854 -19.217  0.00  0.00    +0.155 HD
ENDBRANCH  17  25
ENDBRANCH   2  17
TORSDOF 4
ENDMDL
MODEL 7
REMARK VINA RESULT:     -11.4      5.173     10.370
REMARK  Name = 5288711
REMARK  4 active torsions:
REMARK  status: ('A' for Active; 'I' for Inactive)
REMARK    1  A    between atoms: C_1  and  S_7
REMARK    2  A    between atoms: C_2  and  N_17
REMARK    3  A    between atoms: S_7  and  N_11
REMARK    4  A    between atoms: N_17  and  C_25
REMARK                            x       y       z     vdW  Elec       q    Type
REMARK                         _______ _______ _______ _____ _____    ______ ____
ROOT
ATOM      1  C   UNL     1      33.638 -13.551 -23.807  0.00  0.00    +0.125 C 
ATOM      2  C   UNL     1      34.404 -16.188 -23.279  0.00  0.00    +0.048 C 
ATOM      3  C   UNL     1      33.479 -14.534 -24.785  0.00  0.00    +0.021 C 
ATOM      4  C   UNL     1      34.179 -13.885 -22.566  0.00  0.00    +0.021 C 
ATOM      5  C   UNL     1      33.861 -15.849 -24.521  0.00  0.00    +0.016 C 
ATOM      6  C   UNL     1      34.561 -15.200 -22.301  0.00  0.00    +0.016 C 
ENDROOT
BRANCH   1   7
ATOM      7  S   UNL     1      33.160 -11.905 -24.136  0.00  0.00    +0.075 S 
ATOM      8  O   UNL     1      34.323 -11.044 -23.965  0.00  0.00    -0.150 OA
ATOM      9  O   UNL     1      32.443 -11.897 -25.405  0.00  0.00    -0.150 OA
BRANCH   7  11
ATOM     10  S   UNL     1      31.679  -9.683 -20.890  0.00  0.00    -0.050 S 
ATOM     11  N   UNL     1      32.062 -11.613 -22.846  0.00  0.00    -0.194 N 
ATOM     12  N   UNL     1      31.712  -9.291 -23.445  0.00  0.00    -0.221 NA
ATOM     13  C   UNL     1      31.822 -10.192 -22.510  0.00  0.00    +0.179 C 
ATOM     14  C   UNL     1      31.445  -8.082 -21.459  0.00  0.00    +0.059 C 
ATOM     15  C   UNL     1      31.494  -8.069 -22.838  0.00  0.00    +0.108 C 
ATOM     16  H   UNL     1      31.619 -12.346 -22.361  0.00  0.00    +0.176 HD
ENDBRANCH   7  11
ENDBRANCH   1   7
BRANCH   2  17
ATOM     17  N   UNL     1      34.789 -17.512 -23.014  0.00  0.00    -0.311 N 
ATOM     18  H   UNL     1      35.609 -17.817 -23.465  0.00  0.00    +0.152 HD
BRANCH  17  25
ATOM     19  O   UNL     1      37.083 -18.648 -21.652  0.00  0.00    -0.270 OA
ATOM     20  N   UNL     1      36.380 -20.325 -20.144  0.00  0.00    -0.280 N 
ATOM     21  C   UNL     1      34.107 -20.256 -20.490  0.00  0.00    +0.019 C 
ATOM     22  C   UNL     1      34.748 -19.267 -21.350  0.00  0.00    +0.069 C 
ATOM     23  C   UNL     1      35.143 -20.870 -19.779  0.00  0.00    +0.051 C 
ATOM     24  C   UNL     1      36.230 -19.327 -21.112  0.00  0.00    +0.251 C 
ATOM     25  C   UNL     1      34.181 -18.428 -22.219  0.00  0.00    +0.066 C 
ATOM     26  C   UNL     1      32.794 -20.636 -20.291  0.00  0.00    +0.001 C 
ATOM     27  C   UNL     1      34.915 -21.871 -18.856  0.00  0.00    +0.015 C 
ATOM     28  C   UNL     1      32.539 -21.649 -19.360  0.00  0.00    +0.000 C 
ATOM     29  C   UNL     1      33.590 -22.260 -18.650  0.00  0.00    +0.001 C 
ATOM     30  H   UNL     1      37.244 -20.609 -19.768  0.00  0.00    +0.155 HD
ENDBRANCH  17  25
ENDBRANCH   2  17
TORSDOF 4
ENDMDL
MODEL 8
REMARK VINA RESULT:     -11.3      3.044     10.470
REMARK  Name = 5288711
REMARK  4 active torsions:
REMARK  status: ('A' for Active; 'I' for Inactive)
REMARK    1  A    between atoms: C_1  and  S_7
REMARK    2  A    between atoms: C_2  and  N_17
REMARK    3  A    between atoms: S_7  and  N_11
REMARK    4  A    between atoms: N_17  and  C_25
REMARK                            x       y       z     vdW  Elec       q    Type
REMARK                         _______ _______ _______ _____ _____    ______ ____
ROOT
ATOM      1  C   UNL     1      34.500 -19.525 -21.490  0.00  0.00    +0.125 C 
ATOM      2  C   UNL     1      33.775 -21.437 -19.583  0.00  0.00    +0.048 C 
ATOM      3  C   UNL     1      33.153 -19.766 -21.220  0.00  0.00    +0.021 C 
ATOM      4  C   UNL     1      35.485 -20.238 -20.808  0.00  0.00    +0.021 C 
ATOM      5  C   UNL     1      32.791 -20.719 -20.269  0.00  0.00    +0.016 C 
ATOM      6  C   UNL     1      35.125 -21.192 -19.856  0.00  0.00    +0.016 C 
ENDROOT
BRANCH   1   7
ATOM      7  S   UNL     1      34.953 -18.332 -22.681  0.00  0.00    +0.075 S 
ATOM      8  O   UNL     1      34.311 -17.070 -22.338  0.00  0.00    -0.150 OA
ATOM      9  O   UNL     1      36.402 -18.382 -22.829  0.00  0.00    -0.150 OA
BRANCH   7  11
ATOM     10  S   UNL     1      32.205 -18.205 -25.858  0.00  0.00    -0.050 S 
ATOM     11  N   UNL     1      34.203 -18.968 -24.091  0.00  0.00    -0.194 N 
ATOM     12  N   UNL     1      34.360 -16.885 -25.320  0.00  0.00    -0.221 NA
ATOM     13  C   UNL     1      33.690 -17.971 -25.056  0.00  0.00    +0.179 C 
ATOM     14  C   UNL     1      32.448 -16.708 -26.657  0.00  0.00    +0.059 C 
ATOM     15  C   UNL     1      33.643 -16.153 -26.246  0.00  0.00    +0.108 C 
ATOM     16  H   UNL     1      34.121 -19.937 -24.248  0.00  0.00    +0.176 HD
ENDBRANCH   7  11
ENDBRANCH   1   7
BRANCH   2  17
ATOM     17  N   UNL     1      33.411 -22.397 -18.625  0.00  0.00    -0.311 N 
ATOM     18  H   UNL     1      32.542 -22.836 -18.770  0.00  0.00    +0.152 HD
BRANCH  17  25
ATOM     19  O   UNL     1      31.227 -22.958 -16.802  0.00  0.00    -0.270 OA
ATOM     20  N   UNL     1      32.075 -23.705 -14.728  0.00  0.00    -0.280 N 
ATOM     21  C   UNL     1      34.333 -23.628 -15.161  0.00  0.00    +0.019 C 
ATOM     22  C   UNL     1      33.607 -23.193 -16.349  0.00  0.00    +0.069 C 
ATOM     23  C   UNL     1      33.355 -23.927 -14.207  0.00  0.00    +0.051 C 
ATOM     24  C   UNL     1      32.137 -23.249 -16.049  0.00  0.00    +0.251 C 
ATOM     25  C   UNL     1      34.098 -22.800 -17.526  0.00  0.00    +0.066 C 
ATOM     26  C   UNL     1      35.675 -23.774 -14.865  0.00  0.00    +0.001 C 
ATOM     27  C   UNL     1      33.671 -24.376 -12.940  0.00  0.00    +0.015 C 
ATOM     28  C   UNL     1      36.017 -24.228 -13.587  0.00  0.00    +0.000 C 
ATOM     29  C   UNL     1      35.025 -24.526 -12.634  0.00  0.00    +0.001 C 
ATOM     30  H   UNL     1      31.239 -23.850 -14.229  0.00  0.00    +0.155 HD
ENDBRANCH  17  25
ENDBRANCH   2  17
TORSDOF 4
ENDMDL
MODEL 9
REMARK VINA RESULT:     -11.1      2.295      3.071
REMARK  Name = 5288711
REMARK  4 active torsions:
REMARK  status: ('A' for Active; 'I' for Inactive)
REMARK    1  A    between atoms: C_1  and  S_7
REMARK    2  A    between atoms: C_2  and  N_17
REMARK    3  A    between atoms: S_7  and  N_11
REMARK    4  A    between atoms: N_17  and  C_25
REMARK                            x       y       z     vdW  Elec       q    Type
REMARK                         _______ _______ _______ _____ _____    ______ ____
ROOT
ATOM      1  C   UNL     1      33.763 -22.071 -18.659  0.00  0.00    +0.125 C 
ATOM      2  C   UNL     1      35.042 -20.284 -20.388  0.00  0.00    +0.048 C 
ATOM      3  C   UNL     1      33.010 -21.275 -19.522  0.00  0.00    +0.021 C 
ATOM      4  C   UNL     1      35.154 -21.976 -18.659  0.00  0.00    +0.021 C 
ATOM      5  C   UNL     1      33.647 -20.384 -20.385  0.00  0.00    +0.016 C 
ATOM      6  C   UNL     1      35.793 -21.084 -19.522  0.00  0.00    +0.016 C 
ENDROOT
BRANCH   1   7
ATOM      7  S   UNL     1      32.965 -23.187 -17.579  0.00  0.00    +0.075 S 
ATOM      8  O   UNL     1      31.535 -22.909 -17.602  0.00  0.00    -0.150 OA
ATOM      9  O   UNL     1      33.441 -24.527 -17.897  0.00  0.00    -0.150 OA
BRANCH   7  11
ATOM     10  S   UNL     1      34.302 -23.883 -13.656  0.00  0.00    -0.050 S 
ATOM     11  N   UNL     1      33.600 -22.691 -16.060  0.00  0.00    -0.194 N 
ATOM     12  N   UNL     1      35.260 -24.455 -15.987  0.00  0.00    -0.221 NA
ATOM     13  C   UNL     1      34.421 -23.692 -15.345  0.00  0.00    +0.179 C 
ATOM     14  C   UNL     1      35.489 -25.117 -13.754  0.00  0.00    +0.059 C 
ATOM     15  C   UNL     1      35.878 -25.280 -15.068  0.00  0.00    +0.108 C 
ATOM     16  H   UNL     1      33.428 -21.795 -15.690  0.00  0.00    +0.176 HD
ENDBRANCH   7  11
ENDBRANCH   1   7
BRANCH   2  17
ATOM     17  N   UNL     1      35.684 -19.386 -21.256  0.00  0.00    -0.311 N 
ATOM     18  H   UNL     1      36.491 -19.728 -21.703  0.00  0.00    +0.152 HD
BRANCH  17  25
ATOM     19  O   UNL     1      34.662 -19.734 -23.947  0.00  0.00    -0.270 OA
ATOM     20  N   UNL     1      33.950 -17.657 -24.818  0.00  0.00    -0.280 N 
ATOM     21  C   UNL     1      34.427 -16.284 -23.036  0.00  0.00    +0.019 C 
ATOM     22  C   UNL     1      34.803 -17.652 -22.695  0.00  0.00    +0.069 C 
ATOM     23  C   UNL     1      33.915 -16.344 -24.335  0.00  0.00    +0.051 C 
ATOM     24  C   UNL     1      34.485 -18.533 -23.868  0.00  0.00    +0.251 C 
ATOM     25  C   UNL     1      35.338 -18.109 -21.561  0.00  0.00    +0.066 C 
ATOM     26  C   UNL     1      34.491 -15.082 -22.357  0.00  0.00    +0.001 C 
ATOM     27  C   UNL     1      33.453 -15.225 -25.000  0.00  0.00    +0.015 C 
ATOM     28  C   UNL     1      34.028 -13.935 -23.012  0.00  0.00    +0.000 C 
ATOM     29  C   UNL     1      33.514 -14.007 -24.320  0.00  0.00    +0.001 C 
ATOM     30  H   UNL     1      33.638 -17.929 -25.711  0.00  0.00    +0.155 HD
ENDBRANCH  17  25
ENDBRANCH   2  17
TORSDOF 4
ENDMDL
