MODEL 1
REMARK VINA RESULT:     -13.6      0.000      0.000
REMARK  Name = 21081761
REMARK  5 active torsions:
REMARK  status: ('A' for Active; 'I' for Inactive)
REMARK    1  A    between atoms: N_2  and  C_6
REMARK    2  A    between atoms: C_3  and  C_25
REMARK    3  A    between atoms: C_7  and  O_12
REMARK    4  A    between atoms: O_12  and  C_16
REMARK    5  A    between atoms: N_24  and  C_31
REMARK                            x       y       z     vdW  Elec       q    Type
REMARK                         _______ _______ _______ _____ _____    ______ ____
ROOT
ATOM      1  O   UNL     1      32.334 -22.315 -19.968  0.00  0.00    -0.270 OA
ATOM      2  N   UNL     1      34.160 -21.022 -19.220  0.00  0.00    -0.280 N 
ATOM      3  C   UNL     1      33.149 -21.980 -19.117  0.00  0.00    +0.254 C 
ATOM      4  H   UNL     1      34.718 -20.894 -18.419  0.00  0.00    +0.155 HD
ENDROOT
BRANCH   2   6
ATOM      5  F   UNL     1      37.388 -18.685 -21.863  0.00  0.00    -0.201 F 
ATOM      6  C   UNL     1      34.477 -20.225 -20.320  0.00  0.00    +0.053 C 
ATOM      7  C   UNL     1      35.109 -18.628 -22.518  0.00  0.00    +0.173 C 
ATOM      8  C   UNL     1      35.799 -19.844 -20.549  0.00  0.00    +0.047 C 
ATOM      9  C   UNL     1      33.470 -19.807 -21.191  0.00  0.00    +0.018 C 
ATOM     10  C   UNL     1      36.116 -19.045 -21.648  0.00  0.00    +0.176 C 
ATOM     11  C   UNL     1      33.786 -19.008 -22.290  0.00  0.00    +0.041 C 
BRANCH   7  12
ATOM     12  O   UNL     1      35.421 -17.835 -23.607  0.00  0.00    -0.451 OA
BRANCH  12  16
ATOM     13  N   UNL     1      32.602 -15.064 -26.066  0.00  0.00    -0.297 N 
ATOM     14  N   UNL     1      33.369 -14.162 -23.969  0.00  0.00    -0.229 NA
ATOM     15  C   UNL     1      33.956 -16.369 -24.863  0.00  0.00    +0.067 C 
ATOM     16  C   UNL     1      34.751 -16.652 -23.739  0.00  0.00    +0.150 C 
ATOM     17  C   UNL     1      33.316 -15.135 -24.899  0.00  0.00    +0.135 C 
ATOM     18  C   UNL     1      33.604 -17.051 -26.058  0.00  0.00    +0.022 C 
ATOM     19  C   UNL     1      32.770 -16.224 -26.779  0.00  0.00    +0.063 C 
ATOM     20  C   UNL     1      34.841 -15.679 -22.745  0.00  0.00    +0.058 C 
ATOM     21  C   UNL     1      34.148 -14.488 -22.911  0.00  0.00    +0.103 C 
ATOM     22  H   UNL     1      32.052 -14.299 -26.351  0.00  0.00    +0.154 HD
ENDBRANCH  12  16
ENDBRANCH   7  12
ENDBRANCH   2   6
BRANCH   3  25
ATOM     23  O   UNL     1      35.441 -22.870 -17.636  0.00  0.00    -0.269 OA
ATOM     24  N   UNL     1      34.177 -23.592 -15.773  0.00  0.00    -0.233 N 
ATOM     25  C   UNL     1      33.118 -22.624 -17.800  0.00  0.00    +0.108 C 
ATOM     26  C   UNL     1      34.363 -23.023 -17.060  0.00  0.00    +0.261 C 
ATOM     27  C   UNL     1      32.885 -23.820 -15.296  0.00  0.00    +0.072 C 
ATOM     28  C   UNL     1      31.912 -22.867 -17.273  0.00  0.00    +0.010 C 
ATOM     29  C   UNL     1      31.790 -23.491 -15.989  0.00  0.00    +0.017 C 
BRANCH  24  31
ATOM     30  F   UNL     1      38.610 -24.993 -12.689  0.00  0.00    -0.204 F 
ATOM     31  C   UNL     1      35.329 -23.956 -14.971  0.00  0.00    +0.059 C 
ATOM     32  C   UNL     1      35.887 -25.230 -15.090  0.00  0.00    +0.018 C 
ATOM     33  C   UNL     1      35.880 -23.033 -14.081  0.00  0.00    +0.018 C 
ATOM     34  C   UNL     1      36.996 -25.579 -14.319  0.00  0.00    +0.031 C 
ATOM     35  C   UNL     1      36.988 -23.383 -13.311  0.00  0.00    +0.031 C 
ATOM     36  C   UNL     1      37.546 -24.656 -13.430  0.00  0.00    +0.140 C 
ENDBRANCH  24  31
ENDBRANCH   3  25
TORSDOF 5
ENDMDL
MODEL 2
REMARK VINA RESULT:     -13.0      2.477      3.685
REMARK  Name = 21081761
REMARK  5 active torsions:
REMARK  status: ('A' for Active; 'I' for Inactive)
REMARK    1  A    between atoms: N_2  and  C_6
REMARK    2  A    between atoms: C_3  and  C_25
REMARK    3  A    between atoms: C_7  and  O_12
REMARK    4  A    between atoms: O_12  and  C_16
REMARK    5  A    between atoms: N_24  and  C_31
REMARK                            x       y       z     vdW  Elec       q    Type
REMARK                         _______ _______ _______ _____ _____    ______ ____
ROOT
ATOM      1  O   UNL     1      35.710 -22.503 -20.172  0.00  0.00    -0.270 OA
ATOM      2  N   UNL     1      34.602 -20.488 -19.644  0.00  0.00    -0.280 N 
ATOM      3  C   UNL     1      35.086 -21.776 -19.408  0.00  0.00    +0.254 C 
ATOM      4  H   UNL     1      34.118 -20.063 -18.899  0.00  0.00    +0.155 HD
ENDROOT
BRANCH   2   6
ATOM      5  F   UNL     1      32.766 -18.889 -23.761  0.00  0.00    -0.201 F 
ATOM      6  C   UNL     1      34.718 -19.729 -20.809  0.00  0.00    +0.053 C 
ATOM      7  C   UNL     1      34.954 -18.212 -23.139  0.00  0.00    +0.173 C 
ATOM      8  C   UNL     1      33.665 -19.685 -21.723  0.00  0.00    +0.047 C 
ATOM      9  C   UNL     1      35.889 -19.013 -21.060  0.00  0.00    +0.018 C 
ATOM     10  C   UNL     1      33.782 -18.927 -22.888  0.00  0.00    +0.176 C 
ATOM     11  C   UNL     1      36.007 -18.256 -22.226  0.00  0.00    +0.041 C 
BRANCH   7  12
ATOM     12  O   UNL     1      35.071 -17.462 -24.294  0.00  0.00    -0.451 OA
BRANCH  12  16
ATOM     13  N   UNL     1      32.292 -14.400 -26.433  0.00  0.00    -0.297 N 
ATOM     14  N   UNL     1      33.198 -13.677 -24.322  0.00  0.00    -0.229 NA
ATOM     15  C   UNL     1      33.629 -15.847 -25.382  0.00  0.00    +0.067 C 
ATOM     16  C   UNL     1      34.458 -16.241 -24.318  0.00  0.00    +0.150 C 
ATOM     17  C   UNL     1      33.053 -14.582 -25.308  0.00  0.00    +0.135 C 
ATOM     18  C   UNL     1      33.189 -16.430 -26.600  0.00  0.00    +0.022 C 
ATOM     19  C   UNL     1      32.368 -15.518 -27.225  0.00  0.00    +0.063 C 
ATOM     20  C   UNL     1      34.643 -15.342 -23.269  0.00  0.00    +0.058 C 
ATOM     21  C   UNL     1      34.006 -14.109 -23.326  0.00  0.00    +0.103 C 
ATOM     22  H   UNL     1      31.770 -13.592 -26.642  0.00  0.00    +0.154 HD
ENDBRANCH  12  16
ENDBRANCH   7  12
ENDBRANCH   2   6
BRANCH   3  25
ATOM     23  O   UNL     1      32.482 -22.532 -18.464  0.00  0.00    -0.269 OA
ATOM     24  N   UNL     1      33.250 -23.163 -16.318  0.00  0.00    -0.233 N 
ATOM     25  C   UNL     1      34.771 -22.254 -18.057  0.00  0.00    +0.108 C 
ATOM     26  C   UNL     1      33.390 -22.677 -17.645  0.00  0.00    +0.261 C 
ATOM     27  C   UNL     1      34.348 -23.157 -15.458  0.00  0.00    +0.072 C 
ATOM     28  C   UNL     1      35.779 -22.286 -17.177  0.00  0.00    +0.010 C 
ATOM     29  C   UNL     1      35.561 -22.741 -15.836  0.00  0.00    +0.017 C 
BRANCH  24  31
ATOM     30  F   UNL     1      28.289 -25.000 -14.546  0.00  0.00    -0.204 F 
ATOM     31  C   UNL     1      31.960 -23.641 -15.858  0.00  0.00    +0.059 C 
ATOM     32  C   UNL     1      31.892 -24.604 -14.851  0.00  0.00    +0.018 C 
ATOM     33  C   UNL     1      30.787 -23.136 -16.421  0.00  0.00    +0.018 C 
ATOM     34  C   UNL     1      30.652 -25.063 -14.407  0.00  0.00    +0.031 C 
ATOM     35  C   UNL     1      29.547 -23.595 -15.977  0.00  0.00    +0.031 C 
ATOM     36  C   UNL     1      29.479 -24.558 -14.971  0.00  0.00    +0.140 C 
ENDBRANCH  24  31
ENDBRANCH   3  25
TORSDOF 5
ENDMDL
MODEL 3
REMARK VINA RESULT:     -12.8      2.816     11.552
REMARK  Name = 21081761
REMARK  5 active torsions:
REMARK  status: ('A' for Active; 'I' for Inactive)
REMARK    1  A    between atoms: N_2  and  C_6
REMARK    2  A    between atoms: C_3  and  C_25
REMARK    3  A    between atoms: C_7  and  O_12
REMARK    4  A    between atoms: O_12  and  C_16
REMARK    5  A    between atoms: N_24  and  C_31
REMARK                            x       y       z     vdW  Elec       q    Type
REMARK                         _______ _______ _______ _____ _____    ______ ____
ROOT
ATOM      1  O   UNL     1      32.833 -20.577 -20.037  0.00  0.00    -0.270 OA
ATOM      2  N   UNL     1      35.050 -21.066 -19.394  0.00  0.00    -0.280 N 
ATOM      3  C   UNL     1      34.047 -20.482 -20.171  0.00  0.00    +0.254 C 
ATOM      4  H   UNL     1      35.976 -20.870 -19.664  0.00  0.00    +0.155 HD
ENDROOT
BRANCH   2   6
ATOM      5  F   UNL     1      32.381 -24.033 -16.760  0.00  0.00    -0.201 F 
ATOM      6  C   UNL     1      34.899 -21.896 -18.283  0.00  0.00    +0.053 C 
ATOM      7  C   UNL     1      34.596 -23.553 -16.060  0.00  0.00    +0.173 C 
ATOM      8  C   UNL     1      33.693 -22.565 -18.070  0.00  0.00    +0.047 C 
ATOM      9  C   UNL     1      35.953 -22.057 -17.385  0.00  0.00    +0.018 C 
ATOM     10  C   UNL     1      33.541 -23.393 -16.958  0.00  0.00    +0.176 C 
ATOM     11  C   UNL     1      35.802 -22.885 -16.272  0.00  0.00    +0.041 C 
BRANCH   7  12
ATOM     12  O   UNL     1      34.446 -24.373 -14.957  0.00  0.00    -0.451 OA
BRANCH  12  16
ATOM     13  N   UNL     1      37.871 -24.429 -11.804  0.00  0.00    -0.297 N 
ATOM     14  N   UNL     1      37.922 -26.214 -13.420  0.00  0.00    -0.229 NA
ATOM     15  C   UNL     1      36.241 -24.431 -13.330  0.00  0.00    +0.067 C 
ATOM     16  C   UNL     1      35.572 -24.957 -14.447  0.00  0.00    +0.150 C 
ATOM     17  C   UNL     1      37.378 -25.102 -12.891  0.00  0.00    +0.135 C 
ATOM     18  C   UNL     1      36.060 -23.319 -12.465  0.00  0.00    +0.022 C 
ATOM     19  C   UNL     1      37.077 -23.344 -11.536  0.00  0.00    +0.063 C 
ATOM     20  C   UNL     1      36.092 -26.110 -15.034  0.00  0.00    +0.058 C 
ATOM     21  C   UNL     1      37.237 -26.677 -14.492  0.00  0.00    +0.103 C 
ATOM     22  H   UNL     1      38.672 -24.686 -11.291  0.00  0.00    +0.154 HD
ENDBRANCH  12  16
ENDBRANCH   7  12
ENDBRANCH   2   6
BRANCH   3  25
ATOM     23  O   UNL     1      32.593 -19.612 -22.489  0.00  0.00    -0.269 OA
ATOM     24  N   UNL     1      34.405 -18.383 -23.382  0.00  0.00    -0.233 N 
ATOM     25  C   UNL     1      34.588 -19.666 -21.264  0.00  0.00    +0.108 C 
ATOM     26  C   UNL     1      33.754 -19.208 -22.427  0.00  0.00    +0.261 C 
ATOM     27  C   UNL     1      35.766 -18.104 -23.245  0.00  0.00    +0.072 C 
ATOM     28  C   UNL     1      35.887 -19.350 -21.197  0.00  0.00    +0.010 C 
ATOM     29  C   UNL     1      36.497 -18.555 -22.221  0.00  0.00    +0.017 C 
BRANCH  24  31
ATOM     30  F   UNL     1      31.531 -16.350 -27.711  0.00  0.00    -0.204 F 
ATOM     31  C   UNL     1      33.658 -17.854 -24.507  0.00  0.00    +0.059 C 
ATOM     32  C   UNL     1      33.658 -16.483 -24.762  0.00  0.00    +0.018 C 
ATOM     33  C   UNL     1      32.940 -18.718 -25.335  0.00  0.00    +0.018 C 
ATOM     34  C   UNL     1      32.940 -15.975 -25.845  0.00  0.00    +0.031 C 
ATOM     35  C   UNL     1      32.222 -18.210 -26.418  0.00  0.00    +0.031 C 
ATOM     36  C   UNL     1      32.222 -16.839 -26.672  0.00  0.00    +0.140 C 
ENDBRANCH  24  31
ENDBRANCH   3  25
TORSDOF 5
ENDMDL
MODEL 4
REMARK VINA RESULT:     -12.8      1.567      2.017
REMARK  Name = 21081761
REMARK  5 active torsions:
REMARK  status: ('A' for Active; 'I' for Inactive)
REMARK    1  A    between atoms: N_2  and  C_6
REMARK    2  A    between atoms: C_3  and  C_25
REMARK    3  A    between atoms: C_7  and  O_12
REMARK    4  A    between atoms: O_12  and  C_16
REMARK    5  A    between atoms: N_24  and  C_31
REMARK                            x       y       z     vdW  Elec       q    Type
REMARK                         _______ _______ _______ _____ _____    ______ ____
ROOT
ATOM      1  O   UNL     1      36.454 -21.487 -19.907  0.00  0.00    -0.270 OA
ATOM      2  N   UNL     1      34.367 -20.392 -20.012  0.00  0.00    -0.280 N 
ATOM      3  C   UNL     1      35.308 -21.300 -19.519  0.00  0.00    +0.254 C 
ATOM      4  H   UNL     1      33.490 -20.391 -19.564  0.00  0.00    +0.155 HD
ENDROOT
BRANCH   2   6
ATOM      5  F   UNL     1      33.005 -18.721 -24.281  0.00  0.00    -0.201 F 
ATOM      6  C   UNL     1      34.518 -19.488 -21.063  0.00  0.00    +0.053 C 
ATOM      7  C   UNL     1      34.821 -17.679 -23.165  0.00  0.00    +0.173 C 
ATOM      8  C   UNL     1      33.671 -19.555 -22.170  0.00  0.00    +0.047 C 
ATOM      9  C   UNL     1      35.516 -18.514 -21.007  0.00  0.00    +0.018 C 
ATOM     10  C   UNL     1      33.822 -18.651 -23.221  0.00  0.00    +0.176 C 
ATOM     11  C   UNL     1      35.668 -17.611 -22.059  0.00  0.00    +0.041 C 
BRANCH   7  12
ATOM     12  O   UNL     1      34.973 -16.784 -24.207  0.00  0.00    -0.451 OA
BRANCH  12  16
ATOM     13  N   UNL     1      32.215 -13.616 -26.217  0.00  0.00    -0.297 N 
ATOM     14  N   UNL     1      32.840 -13.149 -23.938  0.00  0.00    -0.229 NA
ATOM     15  C   UNL     1      33.537 -15.117 -25.224  0.00  0.00    +0.067 C 
ATOM     16  C   UNL     1      34.277 -15.610 -24.137  0.00  0.00    +0.150 C 
ATOM     17  C   UNL     1      32.865 -13.911 -25.047  0.00  0.00    +0.135 C 
ATOM     18  C   UNL     1      33.271 -15.546 -26.552  0.00  0.00    +0.022 C 
ATOM     19  C   UNL     1      32.455 -14.603 -27.138  0.00  0.00    +0.063 C 
ATOM     20  C   UNL     1      34.285 -14.859 -22.962  0.00  0.00    +0.058 C 
ATOM     21  C   UNL     1      33.568 -13.670 -22.924  0.00  0.00    +0.103 C 
ATOM     22  H   UNL     1      31.659 -12.818 -26.373  0.00  0.00    +0.154 HD
ENDBRANCH  12  16
ENDBRANCH   7  12
ENDBRANCH   2   6
BRANCH   3  25
ATOM     23  O   UNL     1      36.825 -22.175 -17.245  0.00  0.00    -0.269 OA
ATOM     24  N   UNL     1      34.978 -23.203 -16.186  0.00  0.00    -0.233 N 
ATOM     25  C   UNL     1      34.789 -22.092 -18.399  0.00  0.00    +0.108 C 
ATOM     26  C   UNL     1      35.632 -22.477 -17.216  0.00  0.00    +0.261 C 
ATOM     27  C   UNL     1      33.644 -23.583 -16.345  0.00  0.00    +0.072 C 
ATOM     28  C   UNL     1      33.513 -22.486 -18.476  0.00  0.00    +0.010 C 
ATOM     29  C   UNL     1      32.924 -23.261 -17.424  0.00  0.00    +0.017 C 
BRANCH  24  31
ATOM     30  F   UNL     1      37.778 -24.606 -11.569  0.00  0.00    -0.204 F 
ATOM     31  C   UNL     1      35.706 -23.568 -14.986  0.00  0.00    +0.059 C 
ATOM     32  C   UNL     1      35.227 -23.179 -13.735  0.00  0.00    +0.018 C 
ATOM     33  C   UNL     1      36.885 -24.308 -15.083  0.00  0.00    +0.018 C 
ATOM     34  C   UNL     1      35.927 -23.530 -12.580  0.00  0.00    +0.031 C 
ATOM     35  C   UNL     1      37.585 -24.659 -13.929  0.00  0.00    +0.031 C 
ATOM     36  C   UNL     1      37.106 -24.270 -12.678  0.00  0.00    +0.140 C 
ENDBRANCH  24  31
ENDBRANCH   3  25
TORSDOF 5
ENDMDL
MODEL 5
REMARK VINA RESULT:     -12.6      4.599     11.985
REMARK  Name = 21081761
REMARK  5 active torsions:
REMARK  status: ('A' for Active; 'I' for Inactive)
REMARK    1  A    between atoms: N_2  and  C_6
REMARK    2  A    between atoms: C_3  and  C_25
REMARK    3  A    between atoms: C_7  and  O_12
REMARK    4  A    between atoms: O_12  and  C_16
REMARK    5  A    between atoms: N_24  and  C_31
REMARK                            x       y       z     vdW  Elec       q    Type
REMARK                         _______ _______ _______ _____ _____    ______ ____
ROOT
ATOM      1  O   UNL     1      32.720 -14.145 -25.379  0.00  0.00    -0.270 OA
ATOM      2  N   UNL     1      33.995 -13.912 -23.407  0.00  0.00    -0.280 N 
ATOM      3  C   UNL     1      33.237 -13.473 -24.494  0.00  0.00    +0.254 C 
ATOM      4  H   UNL     1      34.328 -13.212 -22.800  0.00  0.00    +0.155 HD
ENDROOT
BRANCH   2   6
ATOM      5  F   UNL     1      34.824 -18.440 -24.703  0.00  0.00    -0.201 F 
ATOM      6  C   UNL     1      34.339 -15.223 -23.077  0.00  0.00    +0.053 C 
ATOM      7  C   UNL     1      35.026 -17.845 -22.415  0.00  0.00    +0.173 C 
ATOM      8  C   UNL     1      34.412 -16.198 -24.072  0.00  0.00    +0.047 C 
ATOM      9  C   UNL     1      34.611 -15.560 -21.750  0.00  0.00    +0.018 C 
ATOM     10  C   UNL     1      34.755 -17.509 -23.742  0.00  0.00    +0.176 C 
ATOM     11  C   UNL     1      34.954 -16.871 -21.419  0.00  0.00    +0.041 C 
BRANCH   7  12
ATOM     12  O   UNL     1      35.365 -19.144 -22.087  0.00  0.00    -0.451 OA
BRANCH  12  16
ATOM     13  N   UNL     1      34.695 -22.027 -18.493  0.00  0.00    -0.297 N 
ATOM     14  N   UNL     1      32.694 -21.244 -19.579  0.00  0.00    -0.229 NA
ATOM     15  C   UNL     1      34.983 -20.642 -20.221  0.00  0.00    +0.067 C 
ATOM     16  C   UNL     1      34.514 -19.830 -21.266  0.00  0.00    +0.150 C 
ATOM     17  C   UNL     1      34.032 -21.297 -19.444  0.00  0.00    +0.135 C 
ATOM     18  C   UNL     1      36.256 -21.003 -19.704  0.00  0.00    +0.022 C 
ATOM     19  C   UNL     1      36.048 -21.855 -18.642  0.00  0.00    +0.063 C 
ATOM     20  C   UNL     1      33.135 -19.738 -21.451  0.00  0.00    +0.058 C 
ATOM     21  C   UNL     1      32.299 -20.449 -20.601  0.00  0.00    +0.103 C 
ATOM     22  H   UNL     1      34.268 -22.589 -17.806  0.00  0.00    +0.154 HD
ENDBRANCH  12  16
ENDBRANCH   7  12
ENDBRANCH   2   6
BRANCH   3  25
ATOM     23  O   UNL     1      32.483 -11.837 -22.258  0.00  0.00    -0.269 OA
ATOM     24  N   UNL     1      32.658  -9.807 -23.458  0.00  0.00    -0.233 N 
ATOM     25  C   UNL     1      33.080 -12.014 -24.516  0.00  0.00    +0.108 C 
ATOM     26  C   UNL     1      32.727 -11.216 -23.293  0.00  0.00    +0.261 C 
ATOM     27  C   UNL     1      32.840  -9.248 -24.723  0.00  0.00    +0.072 C 
ATOM     28  C   UNL     1      33.249 -11.405 -25.695  0.00  0.00    +0.010 C 
ATOM     29  C   UNL     1      33.117  -9.982 -25.806  0.00  0.00    +0.017 C 
BRANCH  24  31
ATOM     30  F   UNL     1      31.569  -6.547 -19.064  0.00  0.00    -0.204 F 
ATOM     31  C   UNL     1      32.375  -8.960 -22.316  0.00  0.00    +0.059 C 
ATOM     32  C   UNL     1      33.063  -7.758 -22.152  0.00  0.00    +0.018 C 
ATOM     33  C   UNL     1      31.414  -9.347 -21.381  0.00  0.00    +0.018 C 
ATOM     34  C   UNL     1      32.790  -6.942 -21.053  0.00  0.00    +0.031 C 
ATOM     35  C   UNL     1      31.141  -8.532 -20.283  0.00  0.00    +0.031 C 
ATOM     36  C   UNL     1      31.829  -7.329 -20.119  0.00  0.00    +0.140 C 
ENDBRANCH  24  31
ENDBRANCH   3  25
TORSDOF 5
ENDMDL
MODEL 6
REMARK VINA RESULT:     -12.5      2.812     11.552
REMARK  Name = 21081761
REMARK  5 active torsions:
REMARK  status: ('A' for Active; 'I' for Inactive)
REMARK    1  A    between atoms: N_2  and  C_6
REMARK    2  A    between atoms: C_3  and  C_25
REMARK    3  A    between atoms: C_7  and  O_12
REMARK    4  A    between atoms: O_12  and  C_16
REMARK    5  A    between atoms: N_24  and  C_31
REMARK                            x       y       z     vdW  Elec       q    Type
REMARK                         _______ _______ _______ _____ _____    ______ ____
ROOT
ATOM      1  O   UNL     1      33.831 -19.545 -25.366  0.00  0.00    -0.270 OA
ATOM      2  N   UNL     1      33.813 -18.024 -23.563  0.00  0.00    -0.280 N 
ATOM      3  C   UNL     1      33.577 -18.454 -24.871  0.00  0.00    +0.254 C 
ATOM      4  H   UNL     1      33.536 -17.102 -23.354  0.00  0.00    +0.155 HD
ENDROOT
BRANCH   2   6
ATOM      5  F   UNL     1      37.679 -19.354 -21.083  0.00  0.00    -0.201 F 
ATOM      6  C   UNL     1      34.393 -18.741 -22.516  0.00  0.00    +0.053 C 
ATOM      7  C   UNL     1      35.554 -20.177 -20.425  0.00  0.00    +0.173 C 
ATOM      8  C   UNL     1      35.773 -18.690 -22.316  0.00  0.00    +0.047 C 
ATOM      9  C   UNL     1      33.594 -19.509 -21.670  0.00  0.00    +0.018 C 
ATOM     10  C   UNL     1      36.354 -19.408 -21.271  0.00  0.00    +0.176 C 
ATOM     11  C   UNL     1      34.174 -20.228 -20.625  0.00  0.00    +0.041 C 
BRANCH   7  12
ATOM     12  O   UNL     1      36.128 -20.889 -19.389  0.00  0.00    -0.451 OA
BRANCH  12  16
ATOM     13  N   UNL     1      35.325 -23.354 -15.522  0.00  0.00    -0.297 N 
ATOM     14  N   UNL     1      33.578 -23.427 -17.179  0.00  0.00    -0.229 NA
ATOM     15  C   UNL     1      35.680 -22.182 -17.389  0.00  0.00    +0.067 C 
ATOM     16  C   UNL     1      35.314 -21.711 -18.661  0.00  0.00    +0.150 C 
ATOM     17  C   UNL     1      34.778 -23.014 -16.732  0.00  0.00    +0.135 C 
ATOM     18  C   UNL     1      36.801 -22.029 -16.530  0.00  0.00    +0.022 C 
ATOM     19  C   UNL     1      36.554 -22.761 -15.390  0.00  0.00    +0.063 C 
ATOM     20  C   UNL     1      34.080 -22.108 -19.172  0.00  0.00    +0.058 C 
ATOM     21  C   UNL     1      33.278 -22.944 -18.407  0.00  0.00    +0.103 C 
ATOM     22  H   UNL     1      34.900 -23.936 -14.850  0.00  0.00    +0.154 HD
ENDBRANCH  12  16
ENDBRANCH   7  12
ENDBRANCH   2   6
BRANCH   3  25
ATOM     23  O   UNL     1      34.201 -15.652 -24.810  0.00  0.00    -0.269 OA
ATOM     24  N   UNL     1      32.684 -15.097 -26.537  0.00  0.00    -0.233 N 
ATOM     25  C   UNL     1      32.945 -17.419 -25.696  0.00  0.00    +0.108 C 
ATOM     26  C   UNL     1      33.354 -15.974 -25.644  0.00  0.00    +0.261 C 
ATOM     27  C   UNL     1      31.655 -15.583 -27.344  0.00  0.00    +0.072 C 
ATOM     28  C   UNL     1      31.953 -17.811 -26.504  0.00  0.00    +0.010 C 
ATOM     29  C   UNL     1      31.282 -16.867 -27.346  0.00  0.00    +0.017 C 
BRANCH  24  31
ATOM     30  F   UNL     1      34.117  -9.709 -26.734  0.00  0.00    -0.204 F 
ATOM     31  C   UNL     1      33.057 -13.696 -26.588  0.00  0.00    +0.059 C 
ATOM     32  C   UNL     1      33.788 -13.208 -27.671  0.00  0.00    +0.018 C 
ATOM     33  C   UNL     1      32.683 -12.837 -25.554  0.00  0.00    +0.018 C 
ATOM     34  C   UNL     1      34.146 -11.861 -27.721  0.00  0.00    +0.031 C 
ATOM     35  C   UNL     1      33.041 -11.490 -25.603  0.00  0.00    +0.031 C 
ATOM     36  C   UNL     1      33.772 -11.002 -26.687  0.00  0.00    +0.140 C 
ENDBRANCH  24  31
ENDBRANCH   3  25
TORSDOF 5
ENDMDL
MODEL 7
REMARK VINA RESULT:     -12.3      2.609     11.162
REMARK  Name = 21081761
REMARK  5 active torsions:
REMARK  status: ('A' for Active; 'I' for Inactive)
REMARK    1  A    between atoms: N_2  and  C_6
REMARK    2  A    between atoms: C_3  and  C_25
REMARK    3  A    between atoms: C_7  and  O_12
REMARK    4  A    between atoms: O_12  and  C_16
REMARK    5  A    between atoms: N_24  and  C_31
REMARK                            x       y       z     vdW  Elec       q    Type
REMARK                         _______ _______ _______ _____ _____    ______ ____
ROOT
ATOM      1  O   UNL     1      36.116 -18.293 -22.782  0.00  0.00    -0.270 OA
ATOM      2  N   UNL     1      33.919 -18.760 -22.061  0.00  0.00    -0.280 N 
ATOM      3  C   UNL     1      34.906 -18.105 -22.800  0.00  0.00    +0.254 C 
ATOM      4  H   UNL     1      32.993 -18.463 -22.216  0.00  0.00    +0.155 HD
ENDROOT
BRANCH   2   6
ATOM      5  F   UNL     1      36.768 -21.624 -19.503  0.00  0.00    -0.201 F 
ATOM      6  C   UNL     1      34.085 -19.785 -21.129  0.00  0.00    +0.053 C 
ATOM      7  C   UNL     1      34.417 -21.835 -19.266  0.00  0.00    +0.173 C 
ATOM      8  C   UNL     1      35.367 -20.203 -20.773  0.00  0.00    +0.047 C 
ATOM      9  C   UNL     1      32.968 -20.391 -20.553  0.00  0.00    +0.018 C 
ATOM     10  C   UNL     1      35.534 -21.228 -19.841  0.00  0.00    +0.176 C 
ATOM     11  C   UNL     1      33.134 -21.417 -19.622  0.00  0.00    +0.041 C 
BRANCH   7  12
ATOM     12  O   UNL     1      34.581 -22.852 -18.345  0.00  0.00    -0.451 OA
BRANCH  12  16
ATOM     13  N   UNL     1      33.520 -23.568 -13.868  0.00  0.00    -0.297 N 
ATOM     14  N   UNL     1      31.643 -23.197 -15.331  0.00  0.00    -0.229 NA
ATOM     15  C   UNL     1      33.995 -23.221 -16.022  0.00  0.00    +0.067 C 
ATOM     16  C   UNL     1      33.643 -22.966 -17.357  0.00  0.00    +0.150 C 
ATOM     17  C   UNL     1      32.962 -23.319 -15.095  0.00  0.00    +0.135 C 
ATOM     18  C   UNL     1      35.208 -23.422 -15.310  0.00  0.00    +0.022 C 
ATOM     19  C   UNL     1      34.884 -23.633 -13.988  0.00  0.00    +0.063 C 
ATOM     20  C   UNL     1      32.288 -22.829 -17.658  0.00  0.00    +0.058 C 
ATOM     21  C   UNL     1      31.361 -22.952 -16.632  0.00  0.00    +0.103 C 
ATOM     22  H   UNL     1      33.018 -23.684 -13.029  0.00  0.00    +0.154 HD
ENDBRANCH  12  16
ENDBRANCH   7  12
ENDBRANCH   2   6
BRANCH   3  25
ATOM     23  O   UNL     1      34.241 -15.418 -22.038  0.00  0.00    -0.269 OA
ATOM     24  N   UNL     1      33.580 -14.775 -24.216  0.00  0.00    -0.233 N 
ATOM     25  C   UNL     1      34.351 -17.076 -23.688  0.00  0.00    +0.108 C 
ATOM     26  C   UNL     1      34.070 -15.673 -23.230  0.00  0.00    +0.261 C 
ATOM     27  C   UNL     1      33.317 -15.238 -25.505  0.00  0.00    +0.072 C 
ATOM     28  C   UNL     1      34.081 -17.444 -24.946  0.00  0.00    +0.010 C 
ATOM     29  C   UNL     1      33.540 -16.502 -25.880  0.00  0.00    +0.017 C 
BRANCH  24  31
ATOM     30  F   UNL     1      32.628  -9.442 -22.882  0.00  0.00    -0.204 F 
ATOM     31  C   UNL     1      33.332 -13.389 -23.869  0.00  0.00    +0.059 C 
ATOM     32  C   UNL     1      32.418 -13.074 -22.864  0.00  0.00    +0.018 C 
ATOM     33  C   UNL     1      34.009 -12.371 -24.541  0.00  0.00    +0.018 C 
ATOM     34  C   UNL     1      32.180 -11.741 -22.530  0.00  0.00    +0.031 C 
ATOM     35  C   UNL     1      33.772 -11.037 -24.207  0.00  0.00    +0.031 C 
ATOM     36  C   UNL     1      32.858 -10.722 -23.202  0.00  0.00    +0.140 C 
ENDBRANCH  24  31
ENDBRANCH   3  25
TORSDOF 5
ENDMDL
MODEL 8
REMARK VINA RESULT:     -12.3      5.582      8.942
REMARK  Name = 21081761
REMARK  5 active torsions:
REMARK  status: ('A' for Active; 'I' for Inactive)
REMARK    1  A    between atoms: N_2  and  C_6
REMARK    2  A    between atoms: C_3  and  C_25
REMARK    3  A    between atoms: C_7  and  O_12
REMARK    4  A    between atoms: O_12  and  C_16
REMARK    5  A    between atoms: N_24  and  C_31
REMARK                            x       y       z     vdW  Elec       q    Type
REMARK                         _______ _______ _______ _____ _____    ______ ____
ROOT
ATOM      1  O   UNL     1      34.966 -14.131 -21.457  0.00  0.00    -0.270 OA
ATOM      2  N   UNL     1      33.431 -14.035 -23.246  0.00  0.00    -0.280 N 
ATOM      3  C   UNL     1      34.347 -14.640 -22.383  0.00  0.00    +0.254 C 
ATOM      4  H   UNL     1      33.036 -14.616 -23.935  0.00  0.00    +0.155 HD
ENDROOT
BRANCH   2   6
ATOM      5  F   UNL     1      30.498 -10.605 -21.662  0.00  0.00    -0.201 F 
ATOM      6  C   UNL     1      33.008 -12.706 -23.250  0.00  0.00    +0.053 C 
ATOM      7  C   UNL     1      32.160 -10.048 -23.261  0.00  0.00    +0.173 C 
ATOM      8  C   UNL     1      31.944 -12.309 -22.440  0.00  0.00    +0.047 C 
ATOM      9  C   UNL     1      33.648 -11.772 -24.066  0.00  0.00    +0.018 C 
ATOM     10  C   UNL     1      31.520 -10.980 -22.445  0.00  0.00    +0.176 C 
ATOM     11  C   UNL     1      33.224 -10.444 -24.073  0.00  0.00    +0.041 C 
BRANCH   7  12
ATOM     12  O   UNL     1      31.739  -8.731 -23.268  0.00  0.00    -0.451 OA
BRANCH  12  16
ATOM     13  N   UNL     1      30.774  -5.002 -20.654  0.00  0.00    -0.297 N 
ATOM     14  N   UNL     1      32.447  -6.487 -19.762  0.00  0.00    -0.229 NA
ATOM     15  C   UNL     1      31.260  -6.801 -21.884  0.00  0.00    +0.067 C 
ATOM     16  C   UNL     1      31.956  -7.994 -22.139  0.00  0.00    +0.150 C 
ATOM     17  C   UNL     1      31.556  -6.126 -20.704  0.00  0.00    +0.135 C 
ATOM     18  C   UNL     1      30.263  -6.041 -22.554  0.00  0.00    +0.022 C 
ATOM     19  C   UNL     1      29.984  -4.941 -21.773  0.00  0.00    +0.063 C 
ATOM     20  C   UNL     1      32.891  -8.415 -21.194  0.00  0.00    +0.058 C 
ATOM     21  C   UNL     1      33.088  -7.642 -20.058  0.00  0.00    +0.103 C 
ATOM     22  H   UNL     1      30.777  -4.339 -19.925  0.00  0.00    +0.154 HD
ENDBRANCH  12  16
ENDBRANCH   7  12
ENDBRANCH   2   6
BRANCH   3  25
ATOM     23  O   UNL     1      34.698 -16.726 -20.441  0.00  0.00    -0.269 OA
ATOM     24  N   UNL     1      34.810 -18.451 -22.055  0.00  0.00    -0.233 N 
ATOM     25  C   UNL     1      34.543 -16.063 -22.682  0.00  0.00    +0.108 C 
ATOM     26  C   UNL     1      34.674 -17.109 -21.611  0.00  0.00    +0.261 C 
ATOM     27  C   UNL     1      34.890 -18.725 -23.421  0.00  0.00    +0.072 C 
ATOM     28  C   UNL     1      34.621 -16.405 -23.974  0.00  0.00    +0.010 C 
ATOM     29  C   UNL     1      34.809 -17.773 -24.356  0.00  0.00    +0.017 C 
BRANCH  24  31
ATOM     30  F   UNL     1      35.115 -22.589 -18.326  0.00  0.00    -0.204 F 
ATOM     31  C   UNL     1      34.890 -19.527 -21.085  0.00  0.00    +0.059 C 
ATOM     32  C   UNL     1      33.724 -20.147 -20.635  0.00  0.00    +0.018 C 
ATOM     33  C   UNL     1      36.132 -19.942 -20.604  0.00  0.00    +0.018 C 
ATOM     34  C   UNL     1      33.800 -21.182 -19.703  0.00  0.00    +0.031 C 
ATOM     35  C   UNL     1      36.208 -20.977 -19.672  0.00  0.00    +0.031 C 
ATOM     36  C   UNL     1      35.042 -21.597 -19.222  0.00  0.00    +0.140 C 
ENDBRANCH  24  31
ENDBRANCH   3  25
TORSDOF 5
ENDMDL
MODEL 9
REMARK VINA RESULT:     -12.2      2.549      4.164
REMARK  Name = 21081761
REMARK  5 active torsions:
REMARK  status: ('A' for Active; 'I' for Inactive)
REMARK    1  A    between atoms: N_2  and  C_6
REMARK    2  A    between atoms: C_3  and  C_25
REMARK    3  A    between atoms: C_7  and  O_12
REMARK    4  A    between atoms: O_12  and  C_16
REMARK    5  A    between atoms: N_24  and  C_31
REMARK                            x       y       z     vdW  Elec       q    Type
REMARK                         _______ _______ _______ _____ _____    ______ ____
ROOT
ATOM      1  O   UNL     1      36.120 -22.319 -19.892  0.00  0.00    -0.270 OA
ATOM      2  N   UNL     1      34.592 -20.537 -19.657  0.00  0.00    -0.280 N 
ATOM      3  C   UNL     1      35.257 -21.705 -19.277  0.00  0.00    +0.254 C 
ATOM      4  H   UNL     1      33.924 -20.193 -19.021  0.00  0.00    +0.155 HD
ENDROOT
BRANCH   2   6
ATOM      5  F   UNL     1      32.848 -18.809 -23.761  0.00  0.00    -0.201 F 
ATOM      6  C   UNL     1      34.759 -19.799 -20.829  0.00  0.00    +0.053 C 
ATOM      7  C   UNL     1      35.094 -18.323 -23.172  0.00  0.00    +0.173 C 
ATOM      8  C   UNL     1      33.701 -19.668 -21.729  0.00  0.00    +0.047 C 
ATOM      9  C   UNL     1      35.984 -19.189 -21.100  0.00  0.00    +0.018 C 
ATOM     10  C   UNL     1      33.868 -18.931 -22.901  0.00  0.00    +0.176 C 
ATOM     11  C   UNL     1      36.152 -18.452 -22.273  0.00  0.00    +0.041 C 
BRANCH   7  12
ATOM     12  O   UNL     1      35.261 -17.593 -24.334  0.00  0.00    -0.451 OA
BRANCH  12  16
ATOM     13  N   UNL     1      33.436 -13.697 -22.554  0.00  0.00    -0.297 N 
ATOM     14  N   UNL     1      32.898 -14.133 -24.861  0.00  0.00    -0.229 NA
ATOM     15  C   UNL     1      34.296 -15.559 -23.438  0.00  0.00    +0.067 C 
ATOM     16  C   UNL     1      34.499 -16.469 -24.488  0.00  0.00    +0.150 C 
ATOM     17  C   UNL     1      33.503 -14.446 -23.700  0.00  0.00    +0.135 C 
ATOM     18  C   UNL     1      34.710 -15.459 -22.083  0.00  0.00    +0.022 C 
ATOM     19  C   UNL     1      34.166 -14.304 -21.565  0.00  0.00    +0.063 C 
ATOM     20  C   UNL     1      33.895 -16.194 -25.714  0.00  0.00    +0.058 C 
ATOM     21  C   UNL     1      33.127 -15.044 -25.836  0.00  0.00    +0.103 C 
ATOM     22  H   UNL     1      32.940 -12.852 -22.456  0.00  0.00    +0.154 HD
ENDBRANCH  12  16
ENDBRANCH   7  12
ENDBRANCH   2   6
BRANCH   3  25
ATOM     23  O   UNL     1      32.555 -22.354 -18.555  0.00  0.00    -0.269 OA
ATOM     24  N   UNL     1      33.124 -23.076 -16.377  0.00  0.00    -0.233 N 
ATOM     25  C   UNL     1      34.817 -22.201 -17.968  0.00  0.00    +0.108 C 
ATOM     26  C   UNL     1      33.389 -22.564 -17.675  0.00  0.00    +0.261 C 
ATOM     27  C   UNL     1      34.152 -23.146 -15.436  0.00  0.00    +0.072 C 
ATOM     28  C   UNL     1      35.751 -22.303 -17.015  0.00  0.00    +0.010 C 
ATOM     29  C   UNL     1      35.408 -22.781 -15.708  0.00  0.00    +0.017 C 
BRANCH  24  31
ATOM     30  F   UNL     1      27.959 -24.709 -15.042  0.00  0.00    -0.204 F 
ATOM     31  C   UNL     1      31.781 -23.501 -16.029  0.00  0.00    +0.059 C 
ATOM     32  C   UNL     1      30.682 -22.933 -16.675  0.00  0.00    +0.018 C 
ATOM     33  C   UNL     1      31.589 -24.477 -15.051  0.00  0.00    +0.018 C 
ATOM     34  C   UNL     1      29.391 -23.342 -16.341  0.00  0.00    +0.031 C 
ATOM     35  C   UNL     1      30.298 -24.885 -14.718  0.00  0.00    +0.031 C 
ATOM     36  C   UNL     1      29.199 -24.318 -15.363  0.00  0.00    +0.140 C 
ENDBRANCH  24  31
ENDBRANCH   3  25
TORSDOF 5
ENDMDL
