MODEL 1
REMARK VINA RESULT:     -11.9      0.000      0.000
REMARK  Name = 77993
REMARK  6 active torsions:
REMARK  status: ('A' for Active; 'I' for Inactive)
REMARK    1  A    between atoms: C_2  and  C_11
REMARK    2  A    between atoms: C_7  and  C_19
REMARK    3  A    between atoms: C_11  and  C_13
REMARK    4  A    between atoms: C_19  and  C_20
REMARK    5  A    between atoms: C_20  and  S_21
REMARK    6  A    between atoms: S_21  and  C_24
REMARK                            x       y       z     vdW  Elec       q    Type
REMARK                         _______ _______ _______ _____ _____    ______ ____
ROOT
ATOM      1  N   UNL     1      33.053 -23.654 -16.127  0.00  0.00    -0.312 N 
ATOM      2  C   UNL     1      35.191 -23.209 -15.855  0.00  0.00    -0.008 C 
ATOM      3  C   UNL     1      34.802 -22.661 -17.096  0.00  0.00    +0.010 C 
ATOM      4  C   UNL     1      34.114 -23.811 -15.275  0.00  0.00    +0.058 C 
ATOM      5  C   UNL     1      33.445 -22.955 -17.248  0.00  0.00    +0.048 C 
ATOM      6  C   UNL     1      35.459 -21.943 -18.115  0.00  0.00    -0.003 C 
ATOM      7  C   UNL     1      34.735 -21.546 -19.244  0.00  0.00    -0.020 C 
ATOM      8  C   UNL     1      32.710 -22.564 -18.371  0.00  0.00    +0.014 C 
ATOM      9  C   UNL     1      33.382 -21.853 -19.369  0.00  0.00    -0.003 C 
ATOM     10  H   UNL     1      32.143 -23.990 -15.963  0.00  0.00    +0.152 HD
ENDROOT
BRANCH   2  11
ATOM     11  C   UNL     1      36.564 -23.145 -15.260  0.00  0.00    +0.007 C 
BRANCH  11  13
ATOM     12  N   UNL     1      37.266 -23.887 -12.976  0.00  0.00    +0.387 N 
ATOM     13  C   UNL     1      36.846 -24.310 -14.320  0.00  0.00    -0.054 C 
ATOM     14  C   UNL     1      38.036 -25.147 -14.795  0.00  0.00    -0.023 C 
ATOM     15  C   UNL     1      38.708 -25.650 -13.522  0.00  0.00    -0.025 C 
ATOM     16  C   UNL     1      37.882 -25.077 -12.382  0.00  0.00    -0.077 C 
ATOM     17  C   UNL     1      36.166 -23.391 -12.158  0.00  0.00    -0.101 C 
ATOM     18  H   UNL     1      37.910 -23.099 -13.031  0.00  0.00    -0.080 HD
ENDBRANCH  11  13
ENDBRANCH   2  11
BRANCH   7  19
ATOM     19  C   UNL     1      35.425 -20.785 -20.329  0.00  0.00    +0.052 C 
BRANCH  19  20
ATOM     20  C   UNL     1      34.530 -19.770 -21.044  0.00  0.00    +0.161 C 
BRANCH  20  21
ATOM     21  S   UNL     1      35.417 -18.334 -21.564  0.00  0.00    +0.009 S 
ATOM     22  O   UNL     1      36.823 -18.676 -21.693  0.00  0.00    -0.169 OA
ATOM     23  O   UNL     1      35.007 -17.228 -20.716  0.00  0.00    -0.169 OA
BRANCH  21  24
ATOM     24  C   UNL     1      34.808 -18.023 -23.194  0.00  0.00    +0.106 C 
ATOM     25  C   UNL     1      34.404 -19.089 -23.980  0.00  0.00    +0.018 C 
ATOM     26  C   UNL     1      34.747 -16.719 -23.655  0.00  0.00    +0.018 C 
ATOM     27  C   UNL     1      33.924 -18.843 -25.266  0.00  0.00    +0.001 C 
ATOM     28  C   UNL     1      34.266 -16.474 -24.942  0.00  0.00    +0.001 C 
ATOM     29  C   UNL     1      33.855 -17.535 -25.747  0.00  0.00    +0.000 C 
ENDBRANCH  21  24
ENDBRANCH  20  21
ENDBRANCH  19  20
ENDBRANCH   7  19
TORSDOF 6
ENDMDL
MODEL 2
REMARK VINA RESULT:     -11.6      1.269      1.920
REMARK  Name = 77993
REMARK  6 active torsions:
REMARK  status: ('A' for Active; 'I' for Inactive)
REMARK    1  A    between atoms: C_2  and  C_11
REMARK    2  A    between atoms: C_7  and  C_19
REMARK    3  A    between atoms: C_11  and  C_13
REMARK    4  A    between atoms: C_19  and  C_20
REMARK    5  A    between atoms: C_20  and  S_21
REMARK    6  A    between atoms: S_21  and  C_24
REMARK                            x       y       z     vdW  Elec       q    Type
REMARK                         _______ _______ _______ _____ _____    ______ ____
ROOT
ATOM      1  N   UNL     1      33.192 -23.567 -16.342  0.00  0.00    -0.312 N 
ATOM      2  C   UNL     1      35.329 -23.116 -16.075  0.00  0.00    -0.008 C 
ATOM      3  C   UNL     1      34.928 -22.540 -17.299  0.00  0.00    +0.010 C 
ATOM      4  C   UNL     1      34.261 -23.739 -15.502  0.00  0.00    +0.058 C 
ATOM      5  C   UNL     1      33.571 -22.839 -17.448  0.00  0.00    +0.048 C 
ATOM      6  C   UNL     1      35.571 -21.794 -18.305  0.00  0.00    -0.003 C 
ATOM      7  C   UNL     1      34.837 -21.374 -19.419  0.00  0.00    -0.020 C 
ATOM      8  C   UNL     1      32.824 -22.426 -18.556  0.00  0.00    +0.014 C 
ATOM      9  C   UNL     1      33.484 -21.687 -19.542  0.00  0.00    -0.003 C 
ATOM     10  H   UNL     1      32.286 -23.914 -16.179  0.00  0.00    +0.152 HD
ENDROOT
BRANCH   2  11
ATOM     11  C   UNL     1      36.706 -23.057 -15.489  0.00  0.00    +0.007 C 
BRANCH  11  13
ATOM     12  N   UNL     1      37.211 -23.809 -13.157  0.00  0.00    +0.387 N 
ATOM     13  C   UNL     1      36.989 -24.222 -14.549  0.00  0.00    -0.054 C 
ATOM     14  C   UNL     1      38.300 -24.931 -14.901  0.00  0.00    -0.023 C 
ATOM     15  C   UNL     1      38.867 -25.412 -13.571  0.00  0.00    -0.025 C 
ATOM     16  C   UNL     1      37.865 -24.956 -12.522  0.00  0.00    -0.077 C 
ATOM     17  C   UNL     1      35.982 -23.443 -12.461  0.00  0.00    -0.101 C 
ATOM     18  H   UNL     1      37.779 -22.963 -13.118  0.00  0.00    -0.080 HD
ENDBRANCH  11  13
ENDBRANCH   2  11
BRANCH   7  19
ATOM     19  C   UNL     1      35.513 -20.583 -20.490  0.00  0.00    +0.052 C 
BRANCH  19  20
ATOM     20  C   UNL     1      34.744 -19.331 -20.921  0.00  0.00    +0.161 C 
BRANCH  20  21
ATOM     21  S   UNL     1      35.395 -18.611 -22.396  0.00  0.00    +0.009 S 
ATOM     22  O   UNL     1      34.685 -19.161 -23.537  0.00  0.00    -0.169 OA
ATOM     23  O   UNL     1      36.844 -18.691 -22.326  0.00  0.00    -0.169 OA
BRANCH  21  24
ATOM     24  C   UNL     1      34.939 -16.907 -22.276  0.00  0.00    +0.106 C 
ATOM     25  C   UNL     1      34.780 -16.166 -23.435  0.00  0.00    +0.018 C 
ATOM     26  C   UNL     1      34.748 -16.345 -21.025  0.00  0.00    +0.018 C 
ATOM     27  C   UNL     1      34.420 -14.822 -23.340  0.00  0.00    +0.001 C 
ATOM     28  C   UNL     1      34.388 -15.000 -20.930  0.00  0.00    +0.001 C 
ATOM     29  C   UNL     1      34.224 -14.240 -22.087  0.00  0.00    +0.000 C 
ENDBRANCH  21  24
ENDBRANCH  20  21
ENDBRANCH  19  20
ENDBRANCH   7  19
TORSDOF 6
ENDMDL
MODEL 3
REMARK VINA RESULT:     -11.4      5.582     11.682
REMARK  Name = 77993
REMARK  6 active torsions:
REMARK  status: ('A' for Active; 'I' for Inactive)
REMARK    1  A    between atoms: C_2  and  C_11
REMARK    2  A    between atoms: C_7  and  C_19
REMARK    3  A    between atoms: C_11  and  C_13
REMARK    4  A    between atoms: C_19  and  C_20
REMARK    5  A    between atoms: C_20  and  S_21
REMARK    6  A    between atoms: S_21  and  C_24
REMARK                            x       y       z     vdW  Elec       q    Type
REMARK                         _______ _______ _______ _____ _____    ______ ____
ROOT
ATOM      1  N   UNL     1      30.969 -15.680 -27.788  0.00  0.00    -0.312 N 
ATOM      2  C   UNL     1      32.671 -14.479 -27.079  0.00  0.00    -0.008 C 
ATOM      3  C   UNL     1      32.813 -15.773 -26.534  0.00  0.00    +0.010 C 
ATOM      4  C   UNL     1      31.542 -14.437 -27.842  0.00  0.00    +0.058 C 
ATOM      5  C   UNL     1      31.724 -16.517 -26.996  0.00  0.00    +0.048 C 
ATOM      6  C   UNL     1      33.753 -16.400 -25.692  0.00  0.00    -0.003 C 
ATOM      7  C   UNL     1      33.570 -17.742 -25.345  0.00  0.00    -0.020 C 
ATOM      8  C   UNL     1      31.529 -17.859 -26.657  0.00  0.00    +0.014 C 
ATOM      9  C   UNL     1      32.474 -18.460 -25.821  0.00  0.00    -0.003 C 
ATOM     10  H   UNL     1      30.139 -15.939 -28.249  0.00  0.00    +0.152 HD
ENDROOT
BRANCH   2  11
ATOM     11  C   UNL     1      33.605 -13.329 -26.861  0.00  0.00    +0.007 C 
BRANCH  11  13
ATOM     12  N   UNL     1      34.059 -11.313 -25.451  0.00  0.00    +0.387 N 
ATOM     13  C   UNL     1      33.076 -12.336 -25.835  0.00  0.00    -0.054 C 
ATOM     14  C   UNL     1      32.760 -13.014 -24.499  0.00  0.00    -0.023 C 
ATOM     15  C   UNL     1      33.065 -11.967 -23.434  0.00  0.00    -0.025 C 
ATOM     16  C   UNL     1      33.545 -10.746 -24.201  0.00  0.00    -0.077 C 
ATOM     17  C   UNL     1      34.246 -10.284 -26.467  0.00  0.00    -0.101 C 
ATOM     18  H   UNL     1      34.985 -11.726 -25.342  0.00  0.00    -0.080 HD
ENDBRANCH  11  13
ENDBRANCH   2  11
BRANCH   7  19
ATOM     19  C   UNL     1      34.562 -18.413 -24.452  0.00  0.00    +0.052 C 
BRANCH  19  20
ATOM     20  C   UNL     1      33.987 -18.857 -23.104  0.00  0.00    +0.161 C 
BRANCH  20  21
ATOM     21  S   UNL     1      35.107 -18.582 -21.767  0.00  0.00    +0.009 S 
ATOM     22  O   UNL     1      34.701 -17.381 -21.058  0.00  0.00    -0.169 OA
ATOM     23  O   UNL     1      36.458 -18.703 -22.288  0.00  0.00    -0.169 OA
BRANCH  21  24
ATOM     24  C   UNL     1      34.819 -19.946 -20.681  0.00  0.00    +0.106 C 
ATOM     25  C   UNL     1      35.898 -20.579 -20.088  0.00  0.00    +0.018 C 
ATOM     26  C   UNL     1      33.518 -20.358 -20.443  0.00  0.00    +0.018 C 
ATOM     27  C   UNL     1      35.671 -21.655 -19.231  0.00  0.00    +0.001 C 
ATOM     28  C   UNL     1      33.291 -21.434 -19.585  0.00  0.00    +0.001 C 
ATOM     29  C   UNL     1      34.367 -22.083 -18.980  0.00  0.00    +0.000 C 
ENDBRANCH  21  24
ENDBRANCH  20  21
ENDBRANCH  19  20
ENDBRANCH   7  19
TORSDOF 6
ENDMDL
MODEL 4
REMARK VINA RESULT:     -11.2      5.529     10.867
REMARK  Name = 77993
REMARK  6 active torsions:
REMARK  status: ('A' for Active; 'I' for Inactive)
REMARK    1  A    between atoms: C_2  and  C_11
REMARK    2  A    between atoms: C_7  and  C_19
REMARK    3  A    between atoms: C_11  and  C_13
REMARK    4  A    between atoms: C_19  and  C_20
REMARK    5  A    between atoms: C_20  and  S_21
REMARK    6  A    between atoms: S_21  and  C_24
REMARK                            x       y       z     vdW  Elec       q    Type
REMARK                         _______ _______ _______ _____ _____    ______ ____
ROOT
ATOM      1  N   UNL     1      32.806 -14.473 -26.707  0.00  0.00    -0.312 N 
ATOM      2  C   UNL     1      33.357 -13.936 -24.646  0.00  0.00    -0.008 C 
ATOM      3  C   UNL     1      33.443 -15.341 -24.752  0.00  0.00    +0.010 C 
ATOM      4  C   UNL     1      32.968 -13.421 -25.846  0.00  0.00    +0.058 C 
ATOM      5  C   UNL     1      33.090 -15.659 -26.066  0.00  0.00    +0.048 C 
ATOM      6  C   UNL     1      33.784 -16.385 -23.870  0.00  0.00    -0.003 C 
ATOM      7  C   UNL     1      33.759 -17.705 -24.333  0.00  0.00    -0.020 C 
ATOM      8  C   UNL     1      33.061 -16.973 -26.543  0.00  0.00    +0.014 C 
ATOM      9  C   UNL     1      33.402 -17.993 -25.650  0.00  0.00    -0.003 C 
ATOM     10  H   UNL     1      32.529 -14.395 -27.648  0.00  0.00    +0.152 HD
ENDROOT
BRANCH   2  11
ATOM     11  C   UNL     1      33.646 -13.131 -23.416  0.00  0.00    +0.007 C 
BRANCH  11  13
ATOM     12  N   UNL     1      32.509 -11.057 -22.600  0.00  0.00    +0.387 N 
ATOM     13  C   UNL     1      32.390 -12.505 -22.823  0.00  0.00    -0.054 C 
ATOM     14  C   UNL     1      32.099 -13.037 -21.418  0.00  0.00    -0.023 C 
ATOM     15  C   UNL     1      31.465 -11.872 -20.668  0.00  0.00    -0.025 C 
ATOM     16  C   UNL     1      31.426 -10.728 -21.670  0.00  0.00    -0.077 C 
ATOM     17  C   UNL     1      32.415 -10.275 -23.827  0.00  0.00    -0.101 C 
ATOM     18  H   UNL     1      33.429 -10.824 -22.227  0.00  0.00    -0.080 HD
ENDBRANCH  11  13
ENDBRANCH   2  11
BRANCH   7  19
ATOM     19  C   UNL     1      34.118 -18.818 -23.404  0.00  0.00    +0.052 C 
BRANCH  19  20
ATOM     20  C   UNL     1      35.603 -18.867 -23.034  0.00  0.00    +0.161 C 
BRANCH  20  21
ATOM     21  S   UNL     1      35.872 -18.716 -21.295  0.00  0.00    +0.009 S 
ATOM     22  O   UNL     1      35.311 -17.454 -20.844  0.00  0.00    -0.169 OA
ATOM     23  O   UNL     1      37.265 -19.034 -21.032  0.00  0.00    -0.169 OA
BRANCH  21  24
ATOM     24  C   UNL     1      34.880 -20.001 -20.597  0.00  0.00    +0.106 C 
ATOM     25  C   UNL     1      35.500 -21.093 -20.013  0.00  0.00    +0.018 C 
ATOM     26  C   UNL     1      33.500 -19.893 -20.646  0.00  0.00    +0.018 C 
ATOM     27  C   UNL     1      34.716 -22.106 -19.462  0.00  0.00    +0.001 C 
ATOM     28  C   UNL     1      32.717 -20.907 -20.094  0.00  0.00    +0.001 C 
ATOM     29  C   UNL     1      33.325 -22.013 -19.503  0.00  0.00    +0.000 C 
ENDBRANCH  21  24
ENDBRANCH  20  21
ENDBRANCH  19  20
ENDBRANCH   7  19
TORSDOF 6
ENDMDL
MODEL 5
REMARK VINA RESULT:     -11.1      3.813     10.038
REMARK  Name = 77993
REMARK  6 active torsions:
REMARK  status: ('A' for Active; 'I' for Inactive)
REMARK    1  A    between atoms: C_2  and  C_11
REMARK    2  A    between atoms: C_7  and  C_19
REMARK    3  A    between atoms: C_11  and  C_13
REMARK    4  A    between atoms: C_19  and  C_20
REMARK    5  A    between atoms: C_20  and  S_21
REMARK    6  A    between atoms: S_21  and  C_24
REMARK                            x       y       z     vdW  Elec       q    Type
REMARK                         _______ _______ _______ _____ _____    ______ ____
ROOT
ATOM      1  N   UNL     1      32.265 -21.015 -20.382  0.00  0.00    -0.312 N 
ATOM      2  C   UNL     1      34.128 -19.991 -20.947  0.00  0.00    -0.008 C 
ATOM      3  C   UNL     1      34.422 -20.818 -19.843  0.00  0.00    +0.010 C 
ATOM      4  C   UNL     1      32.809 -20.121 -21.265  0.00  0.00    +0.058 C 
ATOM      5  C   UNL     1      33.227 -21.458 -19.501  0.00  0.00    +0.048 C 
ATOM      6  C   UNL     1      35.579 -21.097 -19.089  0.00  0.00    -0.003 C 
ATOM      7  C   UNL     1      35.499 -22.002 -18.025  0.00  0.00    -0.020 C 
ATOM      8  C   UNL     1      33.133 -22.364 -18.441  0.00  0.00    +0.014 C 
ATOM      9  C   UNL     1      34.293 -22.625 -17.707  0.00  0.00    -0.003 C 
ATOM     10  H   UNL     1      31.323 -21.301 -20.377  0.00  0.00    +0.152 HD
ENDROOT
BRANCH   2  11
ATOM     11  C   UNL     1      35.102 -19.106 -21.663  0.00  0.00    +0.007 C 
BRANCH  11  13
ATOM     12  N   UNL     1      34.811 -18.005 -23.891  0.00  0.00    +0.387 N 
ATOM     13  C   UNL     1      34.412 -18.019 -22.476  0.00  0.00    -0.054 C 
ATOM     14  C   UNL     1      34.808 -16.618 -22.003  0.00  0.00    -0.023 C 
ATOM     15  C   UNL     1      34.795 -15.751 -23.257  0.00  0.00    -0.025 C 
ATOM     16  C   UNL     1      34.400 -16.689 -24.386  0.00  0.00    -0.077 C 
ATOM     17  C   UNL     1      34.209 -19.081 -24.670  0.00  0.00    -0.101 C 
ATOM     18  H   UNL     1      35.814 -18.163 -23.984  0.00  0.00    -0.080 HD
ENDBRANCH  11  13
ENDBRANCH   2  11
BRANCH   7  19
ATOM     19  C   UNL     1      36.721 -22.301 -17.221  0.00  0.00    +0.052 C 
BRANCH  19  20
ATOM     20  C   UNL     1      36.460 -22.441 -15.718  0.00  0.00    +0.161 C 
BRANCH  20  21
ATOM     21  S   UNL     1      36.895 -24.037 -15.102  0.00  0.00    +0.009 S 
ATOM     22  O   UNL     1      38.340 -24.180 -15.154  0.00  0.00    -0.169 OA
ATOM     23  O   UNL     1      36.039 -25.013 -15.754  0.00  0.00    -0.169 OA
BRANCH  21  24
ATOM     24  C   UNL     1      36.444 -23.972 -13.394  0.00  0.00    +0.106 C 
ATOM     25  C   UNL     1      37.175 -23.175 -12.530  0.00  0.00    +0.018 C 
ATOM     26  C   UNL     1      35.366 -24.721 -12.952  0.00  0.00    +0.018 C 
ATOM     27  C   UNL     1      36.817 -23.124 -11.183  0.00  0.00    +0.001 C 
ATOM     28  C   UNL     1      35.009 -24.670 -11.604  0.00  0.00    +0.001 C 
ATOM     29  C   UNL     1      35.734 -23.872 -10.720  0.00  0.00    +0.000 C 
ENDBRANCH  21  24
ENDBRANCH  20  21
ENDBRANCH  19  20
ENDBRANCH   7  19
TORSDOF 6
ENDMDL
MODEL 6
REMARK VINA RESULT:     -10.9      2.037      4.227
REMARK  Name = 77993
REMARK  6 active torsions:
REMARK  status: ('A' for Active; 'I' for Inactive)
REMARK    1  A    between atoms: C_2  and  C_11
REMARK    2  A    between atoms: C_7  and  C_19
REMARK    3  A    between atoms: C_11  and  C_13
REMARK    4  A    between atoms: C_19  and  C_20
REMARK    5  A    between atoms: C_20  and  S_21
REMARK    6  A    between atoms: S_21  and  C_24
REMARK                            x       y       z     vdW  Elec       q    Type
REMARK                         _______ _______ _______ _____ _____    ______ ____
ROOT
ATOM      1  N   UNL     1      35.530 -22.877 -15.016  0.00  0.00    -0.312 N 
ATOM      2  C   UNL     1      33.760 -23.486 -16.172  0.00  0.00    -0.008 C 
ATOM      3  C   UNL     1      34.596 -22.752 -17.040  0.00  0.00    +0.010 C 
ATOM      4  C   UNL     1      34.343 -23.555 -14.942  0.00  0.00    +0.058 C 
ATOM      5  C   UNL     1      35.712 -22.375 -16.286  0.00  0.00    +0.048 C 
ATOM      6  C   UNL     1      34.529 -22.361 -18.392  0.00  0.00    -0.003 C 
ATOM      7  C   UNL     1      35.576 -21.612 -18.939  0.00  0.00    -0.020 C 
ATOM      8  C   UNL     1      36.765 -21.626 -16.820  0.00  0.00    +0.014 C 
ATOM      9  C   UNL     1      36.676 -21.250 -18.163  0.00  0.00    -0.003 C 
ATOM     10  H   UNL     1      36.163 -22.764 -14.271  0.00  0.00    +0.152 HD
ENDROOT
BRANCH   2  11
ATOM     11  C   UNL     1      32.442 -24.098 -16.536  0.00  0.00    +0.007 C 
BRANCH  11  13
ATOM     12  N   UNL     1      30.344 -24.411 -15.209  0.00  0.00    +0.387 N 
ATOM     13  C   UNL     1      31.277 -23.444 -15.805  0.00  0.00    -0.054 C 
ATOM     14  C   UNL     1      30.377 -22.657 -16.762  0.00  0.00    -0.023 C 
ATOM     15  C   UNL     1      28.969 -22.789 -16.191  0.00  0.00    -0.025 C 
ATOM     16  C   UNL     1      29.124 -23.644 -14.944  0.00  0.00    -0.077 C 
ATOM     17  C   UNL     1      30.858 -25.033 -13.995  0.00  0.00    -0.101 C 
ATOM     18  H   UNL     1      30.185 -25.195 -15.842  0.00  0.00    -0.080 HD
ENDBRANCH  11  13
ENDBRANCH   2  11
BRANCH   7  19
ATOM     19  C   UNL     1      35.511 -21.193 -20.371  0.00  0.00    +0.052 C 
BRANCH  19  20
ATOM     20  C   UNL     1      34.661 -19.943 -20.617  0.00  0.00    +0.161 C 
BRANCH  20  21
ATOM     21  S   UNL     1      35.621 -18.573 -21.180  0.00  0.00    +0.009 S 
ATOM     22  O   UNL     1      37.006 -18.993 -21.308  0.00  0.00    -0.169 OA
ATOM     23  O   UNL     1      35.277 -17.424 -20.360  0.00  0.00    -0.169 OA
BRANCH  21  24
ATOM     24  C   UNL     1      35.020 -18.273 -22.815  0.00  0.00    +0.106 C 
ATOM     25  C   UNL     1      34.947 -16.971 -23.281  0.00  0.00    +0.018 C 
ATOM     26  C   UNL     1      34.632 -19.346 -23.600  0.00  0.00    +0.018 C 
ATOM     27  C   UNL     1      34.473 -16.735 -24.571  0.00  0.00    +0.001 C 
ATOM     28  C   UNL     1      34.158 -19.109 -24.891  0.00  0.00    +0.001 C 
ATOM     29  C   UNL     1      34.078 -17.805 -25.376  0.00  0.00    +0.000 C 
ENDBRANCH  21  24
ENDBRANCH  20  21
ENDBRANCH  19  20
ENDBRANCH   7  19
TORSDOF 6
ENDMDL
MODEL 7
REMARK VINA RESULT:     -10.6      4.877      9.275
REMARK  Name = 77993
REMARK  6 active torsions:
REMARK  status: ('A' for Active; 'I' for Inactive)
REMARK    1  A    between atoms: C_2  and  C_11
REMARK    2  A    between atoms: C_7  and  C_19
REMARK    3  A    between atoms: C_11  and  C_13
REMARK    4  A    between atoms: C_19  and  C_20
REMARK    5  A    between atoms: C_20  and  S_21
REMARK    6  A    between atoms: S_21  and  C_24
REMARK                            x       y       z     vdW  Elec       q    Type
REMARK                         _______ _______ _______ _____ _____    ______ ____
ROOT
ATOM      1  N   UNL     1      30.381 -22.490 -16.811  0.00  0.00    -0.312 N 
ATOM      2  C   UNL     1      32.410 -22.897 -17.558  0.00  0.00    -0.008 C 
ATOM      3  C   UNL     1      32.397 -23.213 -16.183  0.00  0.00    +0.010 C 
ATOM      4  C   UNL     1      31.173 -22.458 -17.927  0.00  0.00    +0.058 C 
ATOM      5  C   UNL     1      31.102 -22.947 -15.730  0.00  0.00    +0.048 C 
ATOM      6  C   UNL     1      33.350 -23.698 -15.265  0.00  0.00    -0.003 C 
ATOM      7  C   UNL     1      32.973 -23.900 -13.933  0.00  0.00    -0.020 C 
ATOM      8  C   UNL     1      30.712 -23.144 -14.402  0.00  0.00    +0.014 C 
ATOM      9  C   UNL     1      31.674 -23.626 -13.509  0.00  0.00    -0.003 C 
ATOM     10  H   UNL     1      29.434 -22.225 -16.784  0.00  0.00    +0.152 HD
ENDROOT
BRANCH   2  11
ATOM     11  C   UNL     1      33.588 -23.022 -18.475  0.00  0.00    +0.007 C 
BRANCH  11  13
ATOM     12  N   UNL     1      33.939 -21.224 -20.179  0.00  0.00    +0.387 N 
ATOM     13  C   UNL     1      34.212 -21.672 -18.806  0.00  0.00    -0.054 C 
ATOM     14  C   UNL     1      35.741 -21.730 -18.772  0.00  0.00    -0.023 C 
ATOM     15  C   UNL     1      36.206 -20.747 -19.839  0.00  0.00    -0.025 C 
ATOM     16  C   UNL     1      34.931 -20.177 -20.438  0.00  0.00    -0.077 C 
ATOM     17  C   UNL     1      32.580 -20.729 -20.363  0.00  0.00    -0.101 C 
ATOM     18  H   UNL     1      34.010 -22.002 -20.834  0.00  0.00    -0.080 HD
ENDBRANCH  11  13
ENDBRANCH   2  11
BRANCH   7  19
ATOM     19  C   UNL     1      33.978 -24.413 -12.955  0.00  0.00    +0.052 C 
BRANCH  19  20
ATOM     20  C   UNL     1      35.248 -23.563 -12.862  0.00  0.00    +0.161 C 
BRANCH  20  21
ATOM     21  S   UNL     1      36.487 -24.307 -11.847  0.00  0.00    +0.009 S 
ATOM     22  O   UNL     1      35.873 -25.363 -11.060  0.00  0.00    -0.169 OA
ATOM     23  O   UNL     1      37.224 -23.240 -11.192  0.00  0.00    -0.169 OA
BRANCH  21  24
ATOM     24  C   UNL     1      37.573 -25.088 -13.002  0.00  0.00    +0.106 C 
ATOM     25  C   UNL     1      38.894 -24.681 -13.070  0.00  0.00    +0.018 C 
ATOM     26  C   UNL     1      37.082 -26.094 -13.818  0.00  0.00    +0.018 C 
ATOM     27  C   UNL     1      39.751 -25.298 -13.981  0.00  0.00    +0.001 C 
ATOM     28  C   UNL     1      37.939 -26.711 -14.729  0.00  0.00    +0.001 C 
ATOM     29  C   UNL     1      39.273 -26.313 -14.811  0.00  0.00    +0.000 C 
ENDBRANCH  21  24
ENDBRANCH  20  21
ENDBRANCH  19  20
ENDBRANCH   7  19
TORSDOF 6
ENDMDL
MODEL 8
REMARK VINA RESULT:     -10.5      2.543      4.539
REMARK  Name = 77993
REMARK  6 active torsions:
REMARK  status: ('A' for Active; 'I' for Inactive)
REMARK    1  A    between atoms: C_2  and  C_11
REMARK    2  A    between atoms: C_7  and  C_19
REMARK    3  A    between atoms: C_11  and  C_13
REMARK    4  A    between atoms: C_19  and  C_20
REMARK    5  A    between atoms: C_20  and  S_21
REMARK    6  A    between atoms: S_21  and  C_24
REMARK                            x       y       z     vdW  Elec       q    Type
REMARK                         _______ _______ _______ _____ _____    ______ ____
ROOT
ATOM      1  N   UNL     1      35.391 -22.918 -15.654  0.00  0.00    -0.312 N 
ATOM      2  C   UNL     1      33.487 -23.302 -16.688  0.00  0.00    -0.008 C 
ATOM      3  C   UNL     1      34.314 -22.588 -17.580  0.00  0.00    +0.010 C 
ATOM      4  C   UNL     1      34.157 -23.497 -15.517  0.00  0.00    +0.058 C 
ATOM      5  C   UNL     1      35.515 -22.355 -16.905  0.00  0.00    +0.048 C 
ATOM      6  C   UNL     1      34.174 -22.108 -18.898  0.00  0.00    -0.003 C 
ATOM      7  C   UNL     1      35.237 -21.417 -19.489  0.00  0.00    -0.020 C 
ATOM      8  C   UNL     1      36.585 -21.666 -17.483  0.00  0.00    +0.014 C 
ATOM      9  C   UNL     1      36.423 -21.199 -18.790  0.00  0.00    -0.003 C 
ATOM     10  H   UNL     1      36.089 -22.907 -14.960  0.00  0.00    +0.152 HD
ENDROOT
BRANCH   2  11
ATOM     11  C   UNL     1      32.095 -23.776 -16.971  0.00  0.00    +0.007 C 
BRANCH  11  13
ATOM     12  N   UNL     1      30.524 -24.476 -15.155  0.00  0.00    +0.387 N 
ATOM     13  C   UNL     1      31.104 -23.348 -15.897  0.00  0.00    -0.054 C 
ATOM     14  C   UNL     1      29.870 -22.672 -16.499  0.00  0.00    -0.023 C 
ATOM     15  C   UNL     1      28.715 -23.050 -15.578  0.00  0.00    -0.025 C 
ATOM     16  C   UNL     1      29.334 -23.925 -14.500  0.00  0.00    -0.077 C 
ATOM     17  C   UNL     1      31.442 -25.062 -14.186  0.00  0.00    -0.101 C 
ATOM     18  H   UNL     1      30.303 -25.247 -15.785  0.00  0.00    -0.080 HD
ENDBRANCH  11  13
ENDBRANCH   2  11
BRANCH   7  19
ATOM     19  C   UNL     1      35.095 -20.904 -20.885  0.00  0.00    +0.052 C 
BRANCH  19  20
ATOM     20  C   UNL     1      34.663 -19.438 -20.970  0.00  0.00    +0.161 C 
BRANCH  20  21
ATOM     21  S   UNL     1      35.386 -18.599 -22.345  0.00  0.00    +0.009 S 
ATOM     22  O   UNL     1      34.733 -19.047 -23.562  0.00  0.00    -0.169 OA
ATOM     23  O   UNL     1      36.830 -18.691 -22.212  0.00  0.00    -0.169 OA
BRANCH  21  24
ATOM     24  C   UNL     1      34.926 -16.909 -22.103  0.00  0.00    +0.106 C 
ATOM     25  C   UNL     1      34.756 -16.090 -23.206  0.00  0.00    +0.018 C 
ATOM     26  C   UNL     1      34.743 -16.436 -20.815  0.00  0.00    +0.018 C 
ATOM     27  C   UNL     1      34.392 -14.757 -23.015  0.00  0.00    +0.001 C 
ATOM     28  C   UNL     1      34.379 -15.102 -20.624  0.00  0.00    +0.001 C 
ATOM     29  C   UNL     1      34.204 -14.264 -21.724  0.00  0.00    +0.000 C 
ENDBRANCH  21  24
ENDBRANCH  20  21
ENDBRANCH  19  20
ENDBRANCH   7  19
TORSDOF 6
ENDMDL
MODEL 9
REMARK VINA RESULT:     -10.5      1.879      2.793
REMARK  Name = 77993
REMARK  6 active torsions:
REMARK  status: ('A' for Active; 'I' for Inactive)
REMARK    1  A    between atoms: C_2  and  C_11
REMARK    2  A    between atoms: C_7  and  C_19
REMARK    3  A    between atoms: C_11  and  C_13
REMARK    4  A    between atoms: C_19  and  C_20
REMARK    5  A    between atoms: C_20  and  S_21
REMARK    6  A    between atoms: S_21  and  C_24
REMARK                            x       y       z     vdW  Elec       q    Type
REMARK                         _______ _______ _______ _____ _____    ______ ____
ROOT
ATOM      1  N   UNL     1      32.925 -24.002 -13.383  0.00  0.00    -0.312 N 
ATOM      2  C   UNL     1      34.972 -23.556 -14.053  0.00  0.00    -0.008 C 
ATOM      3  C   UNL     1      34.129 -23.449 -15.179  0.00  0.00    +0.010 C 
ATOM      4  C   UNL     1      34.224 -23.893 -12.965  0.00  0.00    +0.058 C 
ATOM      5  C   UNL     1      32.837 -23.736 -14.731  0.00  0.00    +0.048 C 
ATOM      6  C   UNL     1      34.321 -23.139 -16.540  0.00  0.00    -0.003 C 
ATOM      7  C   UNL     1      33.218 -23.126 -17.399  0.00  0.00    -0.020 C 
ATOM      8  C   UNL     1      31.725 -23.727 -15.579  0.00  0.00    +0.014 C 
ATOM      9  C   UNL     1      31.940 -23.416 -16.925  0.00  0.00    -0.003 C 
ATOM     10  H   UNL     1      32.164 -24.235 -12.804  0.00  0.00    +0.152 HD
ENDROOT
BRANCH   2  11
ATOM     11  C   UNL     1      36.454 -23.336 -14.044  0.00  0.00    +0.007 C 
BRANCH  11  13
ATOM     12  N   UNL     1      37.939 -25.204 -13.293  0.00  0.00    +0.387 N 
ATOM     13  C   UNL     1      37.231 -24.590 -14.425  0.00  0.00    -0.054 C 
ATOM     14  C   UNL     1      38.368 -24.279 -15.402  0.00  0.00    -0.023 C 
ATOM     15  C   UNL     1      39.475 -25.269 -15.060  0.00  0.00    -0.025 C 
ATOM     16  C   UNL     1      38.929 -26.094 -13.905  0.00  0.00    -0.077 C 
ATOM     17  C   UNL     1      37.057 -25.930 -12.387  0.00  0.00    -0.101 C 
ATOM     18  H   UNL     1      38.366 -24.490 -12.704  0.00  0.00    -0.080 HD
ENDBRANCH  11  13
ENDBRANCH   2  11
BRANCH   7  19
ATOM     19  C   UNL     1      33.414 -22.799 -18.843  0.00  0.00    +0.052 C 
BRANCH  19  20
ATOM     20  C   UNL     1      33.766 -21.333 -19.108  0.00  0.00    +0.161 C 
BRANCH  20  21
ATOM     21  S   UNL     1      35.382 -21.138 -19.792  0.00  0.00    +0.009 S 
ATOM     22  O   UNL     1      35.747 -22.361 -20.485  0.00  0.00    -0.169 OA
ATOM     23  O   UNL     1      36.243 -20.602 -18.751  0.00  0.00    -0.169 OA
BRANCH  21  24
ATOM     24  C   UNL     1      35.177 -19.888 -21.024  0.00  0.00    +0.106 C 
ATOM     25  C   UNL     1      36.214 -19.004 -21.272  0.00  0.00    +0.018 C 
ATOM     26  C   UNL     1      33.982 -19.815 -21.721  0.00  0.00    +0.018 C 
ATOM     27  C   UNL     1      36.051 -18.018 -22.244  0.00  0.00    +0.001 C 
ATOM     28  C   UNL     1      33.820 -18.828 -22.694  0.00  0.00    +0.001 C 
ATOM     29  C   UNL     1      34.854 -17.930 -22.955  0.00  0.00    +0.000 C 
ENDBRANCH  21  24
ENDBRANCH  20  21
ENDBRANCH  19  20
ENDBRANCH   7  19
TORSDOF 6
ENDMDL
