MODEL 1
REMARK VINA RESULT:     -12.3      0.000      0.000
REMARK  Name = 447546
REMARK  10 active torsions:
REMARK  status: ('A' for Active; 'I' for Inactive)
REMARK    1  A    between atoms: N_1  and  C_23
REMARK    2  A    between atoms: C_8  and  N_11
REMARK    3  A    between atoms: N_12  and  C_16
REMARK    4  A    between atoms: C_16  and  C_17
REMARK    5  A    between atoms: C_23  and  C_24
REMARK    6  A    between atoms: C_24  and  C_25
REMARK    7  A    between atoms: C_25  and  N_26
REMARK    8  A    between atoms: C_25  and  C_36
REMARK    9  A    between atoms: C_30  and  C_33
REMARK   10  A    between atoms: C_36  and  O_37
REMARK                            x       y       z     vdW  Elec       q    Type
REMARK                         _______ _______ _______ _____ _____    ______ ____
ROOT
ATOM      1  N   UNL     1      35.838 -23.230 -15.894  0.00  0.00    -0.286 N 
ATOM      2  C   UNL     1      35.269 -22.684 -17.023  0.00  0.00    +0.053 C 
ATOM      3  C   UNL     1      33.945 -23.128 -17.070  0.00  0.00    +0.015 C 
ATOM      4  C   UNL     1      34.922 -24.000 -15.228  0.00  0.00    +0.065 C 
ATOM      5  C   UNL     1      33.742 -23.956 -15.931  0.00  0.00    +0.017 C 
ATOM      6  C   UNL     1      35.818 -21.841 -17.995  0.00  0.00    +0.030 C 
ATOM      7  C   UNL     1      33.128 -22.711 -18.140  0.00  0.00    +0.003 C 
ATOM      8  C   UNL     1      34.988 -21.440 -19.046  0.00  0.00    +0.053 C 
ATOM      9  C   UNL     1      33.663 -21.866 -19.119  0.00  0.00    +0.015 C 
ENDROOT
BRANCH   8  11
ATOM     10  O   UNL     1      33.569 -19.836 -21.149  0.00  0.00    -0.252 OA
ATOM     11  N   UNL     1      35.496 -20.597 -20.036  0.00  0.00    -0.268 N 
ATOM     12  N   UNL     1      35.668 -19.134 -21.818  0.00  0.00    -0.285 N 
ATOM     13  C   UNL     1      34.789 -19.860 -21.007  0.00  0.00    +0.305 C 
ATOM     14  H   UNL     1      36.476 -20.505 -20.058  0.00  0.00    +0.156 HD
ATOM     15  H   UNL     1      36.634 -19.203 -21.643  0.00  0.00    +0.151 HD
BRANCH  12  16
ATOM     16  C   UNL     1      35.224 -18.286 -22.901  0.00  0.00    +0.118 C 
BRANCH  16  17
ATOM     17  C   UNL     1      34.884 -16.903 -22.428  0.00  0.00    -0.003 C 
ATOM     18  C   UNL     1      34.600 -15.899 -23.352  0.00  0.00    -0.003 C 
ATOM     19  C   UNL     1      34.850 -16.622 -21.061  0.00  0.00    -0.003 C 
ATOM     20  C   UNL     1      34.284 -14.613 -22.912  0.00  0.00    -0.000 C 
ATOM     21  C   UNL     1      34.535 -15.336 -20.621  0.00  0.00    -0.000 C 
ATOM     22  C   UNL     1      34.251 -14.332 -21.547  0.00  0.00    -0.000 C 
ENDBRANCH  16  17
ENDBRANCH  12  16
ENDBRANCH   8  11
BRANCH   1  23
ATOM     23  C   UNL     1      37.204 -23.030 -15.461  0.00  0.00    +0.097 C 
BRANCH  23  24
ATOM     24  C   UNL     1      38.123 -24.238 -15.691  0.00  0.00    +0.040 C 
BRANCH  24  25
ATOM     25  C   UNL     1      38.795 -24.802 -14.419  0.00  0.00    +0.091 C 
BRANCH  25  26
ATOM     26  N   UNL     1      37.850 -25.061 -13.319  0.00  0.00    -0.246 NA
ATOM     27  N   UNL     1      36.446 -26.043 -11.907  0.00  0.00    -0.251 NA
ATOM     28  C   UNL     1      37.394 -24.151 -12.399  0.00  0.00    +0.125 C 
ATOM     29  C   UNL     1      37.260 -26.190 -12.994  0.00  0.00    +0.201 C 
ATOM     30  C   UNL     1      36.522 -24.737 -11.511  0.00  0.00    +0.124 C 
BRANCH  30  33
ATOM     31  O   UNL     1      34.935 -24.761  -9.759  0.00  0.00    -0.269 OA
ATOM     32  N   UNL     1      36.168 -22.862 -10.019  0.00  0.00    -0.324 N 
ATOM     33  C   UNL     1      35.824 -24.162 -10.410  0.00  0.00    +0.257 C 
ATOM     34  H   UNL     1      35.705 -22.437  -9.263  0.00  0.00    +0.145 HD
ATOM     35  H   UNL     1      36.874 -22.373 -10.502  0.00  0.00    +0.145 HD
ENDBRANCH  30  33
ENDBRANCH  25  26
BRANCH  25  36
ATOM     36  C   UNL     1      39.596 -26.073 -14.749  0.00  0.00    +0.153 C 
BRANCH  36  37
ATOM     37  O   UNL     1      40.080 -26.000 -16.085  0.00  0.00    -0.381 OA
ATOM     38  H   UNL     1      41.031 -26.188 -16.095  0.00  0.00    +0.210 HD
ENDBRANCH  36  37
ENDBRANCH  25  36
ENDBRANCH  24  25
ENDBRANCH  23  24
ENDBRANCH   1  23
TORSDOF 10
ENDMDL
MODEL 2
REMARK VINA RESULT:     -12.1      4.220      6.404
REMARK  Name = 447546
REMARK  10 active torsions:
REMARK  status: ('A' for Active; 'I' for Inactive)
REMARK    1  A    between atoms: N_1  and  C_23
REMARK    2  A    between atoms: C_8  and  N_11
REMARK    3  A    between atoms: N_12  and  C_16
REMARK    4  A    between atoms: C_16  and  C_17
REMARK    5  A    between atoms: C_23  and  C_24
REMARK    6  A    between atoms: C_24  and  C_25
REMARK    7  A    between atoms: C_25  and  N_26
REMARK    8  A    between atoms: C_25  and  C_36
REMARK    9  A    between atoms: C_30  and  C_33
REMARK   10  A    between atoms: C_36  and  O_37
REMARK                            x       y       z     vdW  Elec       q    Type
REMARK                         _______ _______ _______ _____ _____    ______ ____
ROOT
ATOM      1  N   UNL     1      34.281 -21.779 -18.944  0.00  0.00    -0.286 N 
ATOM      2  C   UNL     1      34.572 -20.870 -19.936  0.00  0.00    +0.053 C 
ATOM      3  C   UNL     1      35.934 -20.575 -19.834  0.00  0.00    +0.015 C 
ATOM      4  C   UNL     1      35.408 -22.070 -18.223  0.00  0.00    +0.065 C 
ATOM      5  C   UNL     1      36.447 -21.339 -18.751  0.00  0.00    +0.017 C 
ATOM      6  C   UNL     1      33.743 -20.291 -20.903  0.00  0.00    +0.030 C 
ATOM      7  C   UNL     1      36.497 -19.657 -20.743  0.00  0.00    +0.003 C 
ATOM      8  C   UNL     1      34.325 -19.384 -21.794  0.00  0.00    +0.053 C 
ATOM      9  C   UNL     1      35.681 -19.071 -21.717  0.00  0.00    +0.015 C 
ENDROOT
BRANCH   8  11
ATOM     10  O   UNL     1      34.447 -19.599 -24.785  0.00  0.00    -0.252 OA
ATOM     11  N   UNL     1      33.534 -18.786 -22.776  0.00  0.00    -0.268 N 
ATOM     12  N   UNL     1      32.644 -18.151 -24.814  0.00  0.00    -0.285 N 
ATOM     13  C   UNL     1      33.627 -18.916 -24.176  0.00  0.00    +0.305 C 
ATOM     14  H   UNL     1      32.816 -18.197 -22.447  0.00  0.00    +0.156 HD
ATOM     15  H   UNL     1      32.022 -17.629 -24.258  0.00  0.00    +0.151 HD
BRANCH  12  16
ATOM     16  C   UNL     1      32.501 -18.092 -26.250  0.00  0.00    +0.118 C 
BRANCH  16  17
ATOM     17  C   UNL     1      32.249 -16.693 -26.733  0.00  0.00    -0.003 C 
ATOM     18  C   UNL     1      33.210 -15.703 -26.537  0.00  0.00    -0.003 C 
ATOM     19  C   UNL     1      31.051 -16.383 -27.379  0.00  0.00    -0.003 C 
ATOM     20  C   UNL     1      32.976 -14.403 -26.985  0.00  0.00    -0.000 C 
ATOM     21  C   UNL     1      30.817 -15.083 -27.828  0.00  0.00    -0.000 C 
ATOM     22  C   UNL     1      31.779 -14.094 -27.631  0.00  0.00    -0.000 C 
ENDBRANCH  16  17
ENDBRANCH  12  16
ENDBRANCH   8  11
BRANCH   1  23
ATOM     23  C   UNL     1      32.978 -22.355 -18.687  0.00  0.00    +0.097 C 
BRANCH  23  24
ATOM     24  C   UNL     1      32.982 -23.489 -17.652  0.00  0.00    +0.040 C 
BRANCH  24  25
ATOM     25  C   UNL     1      32.460 -23.099 -16.250  0.00  0.00    +0.091 C 
BRANCH  25  26
ATOM     26  N   UNL     1      31.031 -23.394 -16.052  0.00  0.00    -0.246 NA
ATOM     27  N   UNL     1      29.115 -24.245 -15.321  0.00  0.00    -0.251 NA
ATOM     28  C   UNL     1      29.975 -22.812 -16.709  0.00  0.00    +0.125 C 
ATOM     29  C   UNL     1      30.478 -24.251 -15.223  0.00  0.00    +0.201 C 
ATOM     30  C   UNL     1      28.776 -23.324 -16.272  0.00  0.00    +0.124 C 
BRANCH  30  33
ATOM     31  O   UNL     1      26.977 -23.302 -17.807  0.00  0.00    -0.269 OA
ATOM     32  N   UNL     1      26.619 -22.344 -15.770  0.00  0.00    -0.324 N 
ATOM     33  C   UNL     1      27.449 -23.006 -16.683  0.00  0.00    +0.257 C 
ATOM     34  H   UNL     1      25.698 -22.109 -16.023  0.00  0.00    +0.145 HD
ATOM     35  H   UNL     1      26.958 -22.112 -14.874  0.00  0.00    +0.145 HD
ENDBRANCH  30  33
ENDBRANCH  25  26
BRANCH  25  36
ATOM     36  C   UNL     1      33.304 -23.770 -15.153  0.00  0.00    +0.153 C 
BRANCH  36  37
ATOM     37  O   UNL     1      34.256 -22.842 -14.647  0.00  0.00    -0.381 OA
ATOM     38  H   UNL     1      34.643 -23.190 -13.829  0.00  0.00    +0.210 HD
ENDBRANCH  36  37
ENDBRANCH  25  36
ENDBRANCH  24  25
ENDBRANCH  23  24
ENDBRANCH   1  23
TORSDOF 10
ENDMDL
MODEL 3
REMARK VINA RESULT:     -12.1      2.285      4.173
REMARK  Name = 447546
REMARK  10 active torsions:
REMARK  status: ('A' for Active; 'I' for Inactive)
REMARK    1  A    between atoms: N_1  and  C_23
REMARK    2  A    between atoms: C_8  and  N_11
REMARK    3  A    between atoms: N_12  and  C_16
REMARK    4  A    between atoms: C_16  and  C_17
REMARK    5  A    between atoms: C_23  and  C_24
REMARK    6  A    between atoms: C_24  and  C_25
REMARK    7  A    between atoms: C_25  and  N_26
REMARK    8  A    between atoms: C_25  and  C_36
REMARK    9  A    between atoms: C_30  and  C_33
REMARK   10  A    between atoms: C_36  and  O_37
REMARK                            x       y       z     vdW  Elec       q    Type
REMARK                         _______ _______ _______ _____ _____    ______ ____
ROOT
ATOM      1  N   UNL     1      32.490 -24.546 -14.324  0.00  0.00    -0.286 N 
ATOM      2  C   UNL     1      31.874 -23.877 -15.358  0.00  0.00    +0.053 C 
ATOM      3  C   UNL     1      30.496 -23.985 -15.153  0.00  0.00    +0.015 C 
ATOM      4  C   UNL     1      31.552 -25.070 -13.475  0.00  0.00    +0.065 C 
ATOM      5  C   UNL     1      30.309 -24.740 -13.962  0.00  0.00    +0.017 C 
ATOM      6  C   UNL     1      32.424 -23.192 -16.448  0.00  0.00    +0.030 C 
ATOM      7  C   UNL     1      29.623 -23.381 -16.080  0.00  0.00    +0.003 C 
ATOM      8  C   UNL     1      31.538 -22.601 -17.353  0.00  0.00    +0.053 C 
ATOM      9  C   UNL     1      30.160 -22.692 -17.174  0.00  0.00    +0.015 C 
ENDROOT
BRANCH   8  11
ATOM     10  O   UNL     1      34.347 -22.384 -18.387  0.00  0.00    -0.252 OA
ATOM     11  N   UNL     1      32.046 -21.906 -18.452  0.00  0.00    -0.268 N 
ATOM     12  N   UNL     1      33.475 -21.030 -20.046  0.00  0.00    -0.285 N 
ATOM     13  C   UNL     1      33.379 -21.833 -18.903  0.00  0.00    +0.305 C 
ATOM     14  H   UNL     1      31.386 -21.403 -18.983  0.00  0.00    +0.156 HD
ATOM     15  H   UNL     1      32.654 -20.622 -20.402  0.00  0.00    +0.151 HD
BRANCH  12  16
ATOM     16  C   UNL     1      34.723 -20.775 -20.727  0.00  0.00    +0.118 C 
BRANCH  16  17
ATOM     17  C   UNL     1      34.689 -19.489 -21.500  0.00  0.00    -0.003 C 
ATOM     18  C   UNL     1      34.273 -19.485 -22.830  0.00  0.00    -0.003 C 
ATOM     19  C   UNL     1      35.072 -18.296 -20.886  0.00  0.00    -0.003 C 
ATOM     20  C   UNL     1      34.241 -18.289 -23.548  0.00  0.00    -0.000 C 
ATOM     21  C   UNL     1      35.041 -17.100 -21.604  0.00  0.00    -0.000 C 
ATOM     22  C   UNL     1      34.625 -17.097 -22.935  0.00  0.00    -0.000 C 
ENDBRANCH  16  17
ENDBRANCH  12  16
ENDBRANCH   8  11
BRANCH   1  23
ATOM     23  C   UNL     1      33.919 -24.684 -14.146  0.00  0.00    +0.097 C 
BRANCH  23  24
ATOM     24  C   UNL     1      34.474 -23.970 -12.906  0.00  0.00    +0.040 C 
BRANCH  24  25
ATOM     25  C   UNL     1      35.487 -24.789 -12.075  0.00  0.00    +0.091 C 
BRANCH  25  26
ATOM     26  N   UNL     1      36.538 -25.424 -12.889  0.00  0.00    -0.246 NA
ATOM     27  N   UNL     1      37.660 -26.811 -14.210  0.00  0.00    -0.251 NA
ATOM     28  C   UNL     1      37.812 -24.955 -13.093  0.00  0.00    +0.125 C 
ATOM     29  C   UNL     1      36.480 -26.543 -13.576  0.00  0.00    +0.201 C 
ATOM     30  C   UNL     1      38.527 -25.799 -13.910  0.00  0.00    +0.124 C 
BRANCH  30  33
ATOM     31  O   UNL     1      40.493 -24.608 -14.464  0.00  0.00    -0.269 OA
ATOM     32  N   UNL     1      40.541 -26.872 -14.721  0.00  0.00    -0.324 N 
ATOM     33  C   UNL     1      39.871 -25.694 -14.372  0.00  0.00    +0.257 C 
ATOM     34  H   UNL     1      41.469 -26.833 -15.044  0.00  0.00    +0.145 HD
ATOM     35  H   UNL     1      40.083 -27.741 -14.644  0.00  0.00    +0.145 HD
ENDBRANCH  30  33
ENDBRANCH  25  26
BRANCH  25  36
ATOM     36  C   UNL     1      36.114 -23.917 -10.974  0.00  0.00    +0.153 C 
BRANCH  36  37
ATOM     37  O   UNL     1      35.664 -24.360  -9.699  0.00  0.00    -0.381 OA
ATOM     38  H   UNL     1      35.676 -25.330  -9.672  0.00  0.00    +0.210 HD
ENDBRANCH  36  37
ENDBRANCH  25  36
ENDBRANCH  24  25
ENDBRANCH  23  24
ENDBRANCH   1  23
TORSDOF 10
ENDMDL
MODEL 4
REMARK VINA RESULT:     -11.7      6.889     14.269
REMARK  Name = 447546
REMARK  10 active torsions:
REMARK  status: ('A' for Active; 'I' for Inactive)
REMARK    1  A    between atoms: N_1  and  C_23
REMARK    2  A    between atoms: C_8  and  N_11
REMARK    3  A    between atoms: N_12  and  C_16
REMARK    4  A    between atoms: C_16  and  C_17
REMARK    5  A    between atoms: C_23  and  C_24
REMARK    6  A    between atoms: C_24  and  C_25
REMARK    7  A    between atoms: C_25  and  N_26
REMARK    8  A    between atoms: C_25  and  C_36
REMARK    9  A    between atoms: C_30  and  C_33
REMARK   10  A    between atoms: C_36  and  O_37
REMARK                            x       y       z     vdW  Elec       q    Type
REMARK                         _______ _______ _______ _____ _____    ______ ____
ROOT
ATOM      1  N   UNL     1      33.229 -12.530 -25.624  0.00  0.00    -0.286 N 
ATOM      2  C   UNL     1      33.080 -13.889 -25.783  0.00  0.00    +0.053 C 
ATOM      3  C   UNL     1      32.550 -14.097 -27.059  0.00  0.00    +0.015 C 
ATOM      4  C   UNL     1      32.814 -11.874 -26.752  0.00  0.00    +0.065 C 
ATOM      5  C   UNL     1      32.389 -12.817 -27.657  0.00  0.00    +0.017 C 
ATOM      6  C   UNL     1      33.370 -14.939 -24.904  0.00  0.00    +0.030 C 
ATOM      7  C   UNL     1      32.296 -15.418 -27.480  0.00  0.00    +0.003 C 
ATOM      8  C   UNL     1      33.109 -16.240 -25.345  0.00  0.00    +0.053 C 
ATOM      9  C   UNL     1      32.582 -16.478 -26.612  0.00  0.00    +0.015 C 
ENDROOT
BRANCH   8  11
ATOM     10  O   UNL     1      35.201 -16.552 -23.216  0.00  0.00    -0.252 OA
ATOM     11  N   UNL     1      33.386 -17.317 -24.500  0.00  0.00    -0.268 N 
ATOM     12  N   UNL     1      34.332 -18.668 -22.879  0.00  0.00    -0.285 N 
ATOM     13  C   UNL     1      34.383 -17.420 -23.510  0.00  0.00    +0.305 C 
ATOM     14  H   UNL     1      32.809 -18.107 -24.611  0.00  0.00    +0.156 HD
ATOM     15  H   UNL     1      33.647 -19.312 -23.170  0.00  0.00    +0.151 HD
BRANCH  12  16
ATOM     16  C   UNL     1      35.237 -19.054 -21.821  0.00  0.00    +0.118 C 
BRANCH  16  17
ATOM     17  C   UNL     1      34.612 -20.044 -20.881  0.00  0.00    -0.003 C 
ATOM     18  C   UNL     1      35.414 -20.943 -20.180  0.00  0.00    -0.003 C 
ATOM     19  C   UNL     1      33.227 -20.063 -20.708  0.00  0.00    -0.003 C 
ATOM     20  C   UNL     1      34.833 -21.862 -19.307  0.00  0.00    -0.000 C 
ATOM     21  C   UNL     1      32.646 -20.982 -19.834  0.00  0.00    -0.000 C 
ATOM     22  C   UNL     1      33.450 -21.882 -19.134  0.00  0.00    -0.000 C 
ENDBRANCH  16  17
ENDBRANCH  12  16
ENDBRANCH   8  11
BRANCH   1  23
ATOM     23  C   UNL     1      33.746 -11.873 -24.443  0.00  0.00    +0.097 C 
BRANCH  23  24
ATOM     24  C   UNL     1      32.670 -11.249 -23.544  0.00  0.00    +0.040 C 
BRANCH  24  25
ATOM     25  C   UNL     1      32.541  -9.713 -23.643  0.00  0.00    +0.091 C 
BRANCH  25  26
ATOM     26  N   UNL     1      32.282  -9.059 -22.349  0.00  0.00    -0.246 NA
ATOM     27  N   UNL     1      31.687  -8.659 -20.248  0.00  0.00    -0.251 NA
ATOM     28  C   UNL     1      32.528  -7.746 -22.031  0.00  0.00    +0.125 C 
ATOM     29  C   UNL     1      31.776  -9.580 -21.253  0.00  0.00    +0.201 C 
ATOM     30  C   UNL     1      32.166  -7.475 -20.731  0.00  0.00    +0.124 C 
BRANCH  30  33
ATOM     31  O   UNL     1      32.469  -6.193 -18.768  0.00  0.00    -0.269 OA
ATOM     32  N   UNL     1      32.102  -5.054 -20.708  0.00  0.00    -0.324 N 
ATOM     33  C   UNL     1      32.250  -6.254 -20.002  0.00  0.00    +0.257 C 
ATOM     34  H   UNL     1      32.154  -4.194 -20.233  0.00  0.00    +0.145 HD
ATOM     35  H   UNL     1      31.944  -5.071 -21.680  0.00  0.00    +0.145 HD
ENDBRANCH  30  33
ENDBRANCH  25  26
BRANCH  25  36
ATOM     36  C   UNL     1      33.788  -9.108 -24.310  0.00  0.00    +0.153 C 
BRANCH  36  37
ATOM     37  O   UNL     1      33.402  -8.372 -25.466  0.00  0.00    -0.381 OA
ATOM     38  H   UNL     1      33.935  -8.659 -26.224  0.00  0.00    +0.210 HD
ENDBRANCH  36  37
ENDBRANCH  25  36
ENDBRANCH  24  25
ENDBRANCH  23  24
ENDBRANCH   1  23
TORSDOF 10
ENDMDL
MODEL 5
REMARK VINA RESULT:     -11.6      6.888     13.757
REMARK  Name = 447546
REMARK  10 active torsions:
REMARK  status: ('A' for Active; 'I' for Inactive)
REMARK    1  A    between atoms: N_1  and  C_23
REMARK    2  A    between atoms: C_8  and  N_11
REMARK    3  A    between atoms: N_12  and  C_16
REMARK    4  A    between atoms: C_16  and  C_17
REMARK    5  A    between atoms: C_23  and  C_24
REMARK    6  A    between atoms: C_24  and  C_25
REMARK    7  A    between atoms: C_25  and  N_26
REMARK    8  A    between atoms: C_25  and  C_36
REMARK    9  A    between atoms: C_30  and  C_33
REMARK   10  A    between atoms: C_36  and  O_37
REMARK                            x       y       z     vdW  Elec       q    Type
REMARK                         _______ _______ _______ _____ _____    ______ ____
ROOT
ATOM      1  N   UNL     1      32.655 -13.619 -26.828  0.00  0.00    -0.286 N 
ATOM      2  C   UNL     1      32.689 -14.970 -26.567  0.00  0.00    +0.053 C 
ATOM      3  C   UNL     1      31.645 -15.554 -27.290  0.00  0.00    +0.015 C 
ATOM      4  C   UNL     1      31.630 -13.329 -27.689  0.00  0.00    +0.065 C 
ATOM      5  C   UNL     1      30.988 -14.506 -27.993  0.00  0.00    +0.017 C 
ATOM      6  C   UNL     1      33.553 -15.713 -25.755  0.00  0.00    +0.030 C 
ATOM      7  C   UNL     1      31.453 -16.947 -27.199  0.00  0.00    +0.003 C 
ATOM      8  C   UNL     1      33.343 -17.093 -25.681  0.00  0.00    +0.053 C 
ATOM      9  C   UNL     1      32.311 -17.703 -26.392  0.00  0.00    +0.015 C 
ENDROOT
BRANCH   8  11
ATOM     10  O   UNL     1      34.150 -16.767 -22.809  0.00  0.00    -0.252 OA
ATOM     11  N   UNL     1      34.184 -17.872 -24.884  0.00  0.00    -0.268 N 
ATOM     12  N   UNL     1      35.407 -18.685 -23.098  0.00  0.00    -0.285 N 
ATOM     13  C   UNL     1      34.536 -17.680 -23.533  0.00  0.00    +0.305 C 
ATOM     14  H   UNL     1      34.583 -18.658 -25.323  0.00  0.00    +0.156 HD
ATOM     15  H   UNL     1      35.673 -19.385 -23.737  0.00  0.00    +0.151 HD
BRANCH  12  16
ATOM     16  C   UNL     1      35.935 -18.743 -21.754  0.00  0.00    +0.118 C 
BRANCH  16  17
ATOM     17  C   UNL     1      35.214 -19.755 -20.911  0.00  0.00    -0.003 C 
ATOM     18  C   UNL     1      35.937 -20.668 -20.146  0.00  0.00    -0.003 C 
ATOM     19  C   UNL     1      33.819 -19.781 -20.893  0.00  0.00    -0.003 C 
ATOM     20  C   UNL     1      35.267 -21.608 -19.363  0.00  0.00    -0.000 C 
ATOM     21  C   UNL     1      33.148 -20.721 -20.111  0.00  0.00    -0.000 C 
ATOM     22  C   UNL     1      33.873 -21.634 -19.345  0.00  0.00    -0.000 C 
ENDBRANCH  16  17
ENDBRANCH  12  16
ENDBRANCH   8  11
BRANCH   1  23
ATOM     23  C   UNL     1      33.562 -12.634 -26.280  0.00  0.00    +0.097 C 
BRANCH  23  24
ATOM     24  C   UNL     1      33.179 -12.131 -24.881  0.00  0.00    +0.040 C 
BRANCH  24  25
ATOM     25  C   UNL     1      33.052 -10.597 -24.747  0.00  0.00    +0.091 C 
BRANCH  25  26
ATOM     26  N   UNL     1      32.585 -10.158 -23.421  0.00  0.00    -0.246 NA
ATOM     27  N   UNL     1      31.682 -10.103 -21.394  0.00  0.00    -0.251 NA
ATOM     28  C   UNL     1      32.728  -8.907 -22.875  0.00  0.00    +0.125 C 
ATOM     29  C   UNL     1      31.951 -10.854 -22.503  0.00  0.00    +0.201 C 
ATOM     30  C   UNL     1      32.176  -8.849 -21.616  0.00  0.00    +0.124 C 
BRANCH  30  33
ATOM     31  O   UNL     1      31.146  -6.948 -20.660  0.00  0.00    -0.269 OA
ATOM     32  N   UNL     1      33.156  -7.588 -19.796  0.00  0.00    -0.324 N 
ATOM     33  C   UNL     1      32.105  -7.756 -20.706  0.00  0.00    +0.257 C 
ATOM     34  H   UNL     1      33.137  -6.842 -19.154  0.00  0.00    +0.145 HD
ATOM     35  H   UNL     1      33.915  -8.215 -19.798  0.00  0.00    +0.145 HD
ENDBRANCH  30  33
ENDBRANCH  25  26
BRANCH  25  36
ATOM     36  C   UNL     1      34.382  -9.911 -25.103  0.00  0.00    +0.153 C 
BRANCH  36  37
ATOM     37  O   UNL     1      35.419 -10.419 -24.272  0.00  0.00    -0.381 OA
ATOM     38  H   UNL     1      35.459  -9.901 -23.452  0.00  0.00    +0.210 HD
ENDBRANCH  36  37
ENDBRANCH  25  36
ENDBRANCH  24  25
ENDBRANCH  23  24
ENDBRANCH   1  23
TORSDOF 10
ENDMDL
MODEL 6
REMARK VINA RESULT:     -11.6      3.545      6.238
REMARK  Name = 447546
REMARK  10 active torsions:
REMARK  status: ('A' for Active; 'I' for Inactive)
REMARK    1  A    between atoms: N_1  and  C_23
REMARK    2  A    between atoms: C_8  and  N_11
REMARK    3  A    between atoms: N_12  and  C_16
REMARK    4  A    between atoms: C_16  and  C_17
REMARK    5  A    between atoms: C_23  and  C_24
REMARK    6  A    between atoms: C_24  and  C_25
REMARK    7  A    between atoms: C_25  and  N_26
REMARK    8  A    between atoms: C_25  and  C_36
REMARK    9  A    between atoms: C_30  and  C_33
REMARK   10  A    between atoms: C_36  and  O_37
REMARK                            x       y       z     vdW  Elec       q    Type
REMARK                         _______ _______ _______ _____ _____    ______ ____
ROOT
ATOM      1  N   UNL     1      35.284 -24.041 -13.597  0.00  0.00    -0.286 N 
ATOM      2  C   UNL     1      35.979 -23.537 -14.673  0.00  0.00    +0.053 C 
ATOM      3  C   UNL     1      37.273 -24.059 -14.607  0.00  0.00    +0.015 C 
ATOM      4  C   UNL     1      36.091 -24.862 -12.856  0.00  0.00    +0.065 C 
ATOM      5  C   UNL     1      37.327 -24.893 -13.456  0.00  0.00    +0.017 C 
ATOM      6  C   UNL     1      35.566 -22.667 -15.689  0.00  0.00    +0.030 C 
ATOM      7  C   UNL     1      38.202 -23.697 -15.602  0.00  0.00    +0.003 C 
ATOM      8  C   UNL     1      36.505 -22.323 -16.666  0.00  0.00    +0.053 C 
ATOM      9  C   UNL     1      37.803 -22.829 -16.625  0.00  0.00    +0.015 C 
ENDROOT
BRANCH   8  11
ATOM     10  O   UNL     1      34.670 -22.762 -18.999  0.00  0.00    -0.252 OA
ATOM     11  N   UNL     1      36.134 -21.460 -17.698  0.00  0.00    -0.268 N 
ATOM     12  N   UNL     1      35.153 -20.581 -19.599  0.00  0.00    -0.285 N 
ATOM     13  C   UNL     1      35.264 -21.710 -18.778  0.00  0.00    +0.305 C 
ATOM     14  H   UNL     1      36.531 -20.559 -17.667  0.00  0.00    +0.156 HD
ATOM     15  H   UNL     1      35.660 -19.774 -19.357  0.00  0.00    +0.151 HD
BRANCH  12  16
ATOM     16  C   UNL     1      34.327 -20.547 -20.784  0.00  0.00    +0.118 C 
BRANCH  16  17
ATOM     17  C   UNL     1      34.576 -19.317 -21.607  0.00  0.00    -0.003 C 
ATOM     18  C   UNL     1      34.755 -18.084 -20.983  0.00  0.00    -0.003 C 
ATOM     19  C   UNL     1      34.629 -19.408 -22.999  0.00  0.00    -0.003 C 
ATOM     20  C   UNL     1      34.986 -16.941 -21.748  0.00  0.00    -0.000 C 
ATOM     21  C   UNL     1      34.860 -18.265 -23.764  0.00  0.00    -0.000 C 
ATOM     22  C   UNL     1      35.039 -17.031 -23.138  0.00  0.00    -0.000 C 
ENDBRANCH  16  17
ENDBRANCH  12  16
ENDBRANCH   8  11
BRANCH   1  23
ATOM     23  C   UNL     1      33.901 -23.754 -13.280  0.00  0.00    +0.097 C 
BRANCH  23  24
ATOM     24  C   UNL     1      32.937 -23.908 -14.465  0.00  0.00    +0.040 C 
BRANCH  24  25
ATOM     25  C   UNL     1      31.436 -23.817 -14.105  0.00  0.00    +0.091 C 
BRANCH  25  26
ATOM     26  N   UNL     1      30.588 -23.376 -15.226  0.00  0.00    -0.246 NA
ATOM     27  N   UNL     1      29.877 -22.538 -17.154  0.00  0.00    -0.251 NA
ATOM     28  C   UNL     1      29.223 -23.485 -15.312  0.00  0.00    +0.125 C 
ATOM     29  C   UNL     1      30.950 -22.802 -16.351  0.00  0.00    +0.201 C 
ATOM     30  C   UNL     1      28.758 -22.972 -16.501  0.00  0.00    +0.124 C 
BRANCH  30  33
ATOM     31  O   UNL     1      27.003 -23.529 -17.983  0.00  0.00    -0.269 OA
ATOM     32  N   UNL     1      26.527 -22.049 -16.316  0.00  0.00    -0.324 N 
ATOM     33  C   UNL     1      27.424 -22.885 -16.992  0.00  0.00    +0.257 C 
ATOM     34  H   UNL     1      25.598 -21.966 -16.631  0.00  0.00    +0.145 HD
ATOM     35  H   UNL     1      26.825 -21.542 -15.526  0.00  0.00    +0.145 HD
ENDBRANCH  30  33
ENDBRANCH  25  26
BRANCH  25  36
ATOM     36  C   UNL     1      30.932 -25.158 -13.546  0.00  0.00    +0.153 C 
BRANCH  36  37
ATOM     37  O   UNL     1      30.104 -24.923 -12.412  0.00  0.00    -0.381 OA
ATOM     38  H   UNL     1      30.394 -25.487 -11.679  0.00  0.00    +0.210 HD
ENDBRANCH  36  37
ENDBRANCH  25  36
ENDBRANCH  24  25
ENDBRANCH  23  24
ENDBRANCH   1  23
TORSDOF 10
ENDMDL
MODEL 7
REMARK VINA RESULT:     -11.6      4.202      6.747
REMARK  Name = 447546
REMARK  10 active torsions:
REMARK  status: ('A' for Active; 'I' for Inactive)
REMARK    1  A    between atoms: N_1  and  C_23
REMARK    2  A    between atoms: C_8  and  N_11
REMARK    3  A    between atoms: N_12  and  C_16
REMARK    4  A    between atoms: C_16  and  C_17
REMARK    5  A    between atoms: C_23  and  C_24
REMARK    6  A    between atoms: C_24  and  C_25
REMARK    7  A    between atoms: C_25  and  N_26
REMARK    8  A    between atoms: C_25  and  C_36
REMARK    9  A    between atoms: C_30  and  C_33
REMARK   10  A    between atoms: C_36  and  O_37
REMARK                            x       y       z     vdW  Elec       q    Type
REMARK                         _______ _______ _______ _____ _____    ______ ____
ROOT
ATOM      1  N   UNL     1      33.549 -23.079 -16.683  0.00  0.00    -0.286 N 
ATOM      2  C   UNL     1      34.365 -22.429 -17.582  0.00  0.00    +0.053 C 
ATOM      3  C   UNL     1      35.647 -22.401 -17.026  0.00  0.00    +0.015 C 
ATOM      4  C   UNL     1      34.268 -23.462 -15.583  0.00  0.00    +0.065 C 
ATOM      5  C   UNL     1      35.569 -23.057 -15.766  0.00  0.00    +0.017 C 
ATOM      6  C   UNL     1      34.070 -21.870 -18.830  0.00  0.00    +0.030 C 
ATOM      7  C   UNL     1      36.686 -21.784 -17.751  0.00  0.00    +0.003 C 
ATOM      8  C   UNL     1      35.118 -21.264 -19.530  0.00  0.00    +0.053 C 
ATOM      9  C   UNL     1      36.406 -21.222 -19.001  0.00  0.00    +0.015 C 
ENDROOT
BRANCH   8  11
ATOM     10  O   UNL     1      35.886 -18.581 -20.635  0.00  0.00    -0.252 OA
ATOM     11  N   UNL     1      34.867 -20.696 -20.780  0.00  0.00    -0.268 N 
ATOM     12  N   UNL     1      34.803 -19.235 -22.571  0.00  0.00    -0.285 N 
ATOM     13  C   UNL     1      35.250 -19.427 -21.259  0.00  0.00    +0.305 C 
ATOM     14  H   UNL     1      34.358 -21.256 -21.410  0.00  0.00    +0.156 HD
ATOM     15  H   UNL     1      34.299 -19.959 -23.006  0.00  0.00    +0.151 HD
BRANCH  12  16
ATOM     16  C   UNL     1      35.050 -18.022 -23.318  0.00  0.00    +0.118 C 
BRANCH  16  17
ATOM     17  C   UNL     1      34.022 -17.803 -24.390  0.00  0.00    -0.003 C 
ATOM     18  C   UNL     1      33.705 -16.509 -24.798  0.00  0.00    -0.003 C 
ATOM     19  C   UNL     1      33.385 -18.896 -24.978  0.00  0.00    -0.003 C 
ATOM     20  C   UNL     1      32.749 -16.306 -25.794  0.00  0.00    -0.000 C 
ATOM     21  C   UNL     1      32.429 -18.693 -25.974  0.00  0.00    -0.000 C 
ATOM     22  C   UNL     1      32.112 -17.398 -26.382  0.00  0.00    -0.000 C 
ENDBRANCH  16  17
ENDBRANCH  12  16
ENDBRANCH   8  11
BRANCH   1  23
ATOM     23  C   UNL     1      32.134 -23.329 -16.860  0.00  0.00    +0.097 C 
BRANCH  23  24
ATOM     24  C   UNL     1      31.527 -24.282 -15.822  0.00  0.00    +0.040 C 
BRANCH  24  25
ATOM     25  C   UNL     1      30.276 -23.744 -15.090  0.00  0.00    +0.091 C 
BRANCH  25  26
ATOM     26  N   UNL     1      29.083 -23.657 -15.950  0.00  0.00    -0.246 NA
ATOM     27  N   UNL     1      27.419 -24.143 -17.336  0.00  0.00    -0.251 NA
ATOM     28  C   UNL     1      28.314 -22.542 -16.173  0.00  0.00    +0.125 C 
ATOM     29  C   UNL     1      28.517 -24.603 -16.665  0.00  0.00    +0.201 C 
ATOM     30  C   UNL     1      27.275 -22.820 -17.030  0.00  0.00    +0.124 C 
BRANCH  30  33
ATOM     31  O   UNL     1      25.570 -21.199 -16.794  0.00  0.00    -0.269 OA
ATOM     32  N   UNL     1      26.005 -21.953 -18.901  0.00  0.00    -0.324 N 
ATOM     33  C   UNL     1      26.250 -21.961 -17.522  0.00  0.00    +0.257 C 
ATOM     34  H   UNL     1      25.304 -21.371 -19.272  0.00  0.00    +0.145 HD
ATOM     35  H   UNL     1      26.534 -22.529 -19.499  0.00  0.00    +0.145 HD
ENDBRANCH  30  33
ENDBRANCH  25  26
BRANCH  25  36
ATOM     36  C   UNL     1      29.976 -24.588 -13.840  0.00  0.00    +0.153 C 
BRANCH  36  37
ATOM     37  O   UNL     1      31.120 -24.614 -12.994  0.00  0.00    -0.381 OA
ATOM     38  H   UNL     1      31.915 -24.761 -13.531  0.00  0.00    +0.210 HD
ENDBRANCH  36  37
ENDBRANCH  25  36
ENDBRANCH  24  25
ENDBRANCH  23  24
ENDBRANCH   1  23
TORSDOF 10
ENDMDL
MODEL 8
REMARK VINA RESULT:     -11.4      7.054     14.539
REMARK  Name = 447546
REMARK  10 active torsions:
REMARK  status: ('A' for Active; 'I' for Inactive)
REMARK    1  A    between atoms: N_1  and  C_23
REMARK    2  A    between atoms: C_8  and  N_11
REMARK    3  A    between atoms: N_12  and  C_16
REMARK    4  A    between atoms: C_16  and  C_17
REMARK    5  A    between atoms: C_23  and  C_24
REMARK    6  A    between atoms: C_24  and  C_25
REMARK    7  A    between atoms: C_25  and  N_26
REMARK    8  A    between atoms: C_25  and  C_36
REMARK    9  A    between atoms: C_30  and  C_33
REMARK   10  A    between atoms: C_36  and  O_37
REMARK                            x       y       z     vdW  Elec       q    Type
REMARK                         _______ _______ _______ _____ _____    ______ ____
ROOT
ATOM      1  N   UNL     1      33.002 -11.909 -25.063  0.00  0.00    -0.286 N 
ATOM      2  C   UNL     1      33.069 -13.241 -25.407  0.00  0.00    +0.053 C 
ATOM      3  C   UNL     1      32.818 -13.323 -26.779  0.00  0.00    +0.015 C 
ATOM      4  C   UNL     1      32.720 -11.150 -26.167  0.00  0.00    +0.065 C 
ATOM      5  C   UNL     1      32.601 -11.996 -27.243  0.00  0.00    +0.017 C 
ATOM      6  C   UNL     1      33.329 -14.367 -24.617  0.00  0.00    +0.030 C 
ATOM      7  C   UNL     1      32.827 -14.591 -27.394  0.00  0.00    +0.003 C 
ATOM      8  C   UNL     1      33.332 -15.613 -25.251  0.00  0.00    +0.053 C 
ATOM      9  C   UNL     1      33.086 -15.725 -26.618  0.00  0.00    +0.015 C 
ENDROOT
BRANCH   8  11
ATOM     10  O   UNL     1      35.297 -16.086 -23.033  0.00  0.00    -0.252 OA
ATOM     11  N   UNL     1      33.589 -16.762 -24.500  0.00  0.00    -0.268 N 
ATOM     12  N   UNL     1      34.473 -18.245 -22.962  0.00  0.00    -0.285 N 
ATOM     13  C   UNL     1      34.525 -16.939 -23.462  0.00  0.00    +0.305 C 
ATOM     14  H   UNL     1      33.043 -17.550 -24.724  0.00  0.00    +0.156 HD
ATOM     15  H   UNL     1      33.827 -18.873 -23.358  0.00  0.00    +0.151 HD
BRANCH  12  16
ATOM     16  C   UNL     1      35.323 -18.713 -21.891  0.00  0.00    +0.118 C 
BRANCH  16  17
ATOM     17  C   UNL     1      34.632 -19.731 -21.031  0.00  0.00    -0.003 C 
ATOM     18  C   UNL     1      35.382 -20.653 -20.302  0.00  0.00    -0.003 C 
ATOM     19  C   UNL     1      33.239 -19.754 -20.959  0.00  0.00    -0.003 C 
ATOM     20  C   UNL     1      34.740 -21.599 -19.503  0.00  0.00    -0.000 C 
ATOM     21  C   UNL     1      32.597 -20.700 -20.160  0.00  0.00    -0.000 C 
ATOM     22  C   UNL     1      33.348 -21.622 -19.431  0.00  0.00    -0.000 C 
ENDBRANCH  16  17
ENDBRANCH  12  16
ENDBRANCH   8  11
BRANCH   1  23
ATOM     23  C   UNL     1      33.198 -11.374 -23.733  0.00  0.00    +0.097 C 
BRANCH  23  24
ATOM     24  C   UNL     1      32.236 -10.237 -23.362  0.00  0.00    +0.040 C 
BRANCH  24  25
ATOM     25  C   UNL     1      31.871 -10.150 -21.863  0.00  0.00    +0.091 C 
BRANCH  25  26
ATOM     26  N   UNL     1      31.788  -8.769 -21.356  0.00  0.00    -0.246 NA
ATOM     27  N   UNL     1      32.000  -6.943 -20.112  0.00  0.00    -0.251 NA
ATOM     28  C   UNL     1      31.171  -7.707 -21.968  0.00  0.00    +0.125 C 
ATOM     29  C   UNL     1      32.277  -8.275 -20.240  0.00  0.00    +0.201 C 
ATOM     30  C   UNL     1      31.290  -6.562 -21.215  0.00  0.00    +0.124 C 
BRANCH  30  33
ATOM     31  O   UNL     1      29.681  -4.834 -21.095  0.00  0.00    -0.269 OA
ATOM     32  N   UNL     1      31.632  -4.366 -22.176  0.00  0.00    -0.324 N 
ATOM     33  C   UNL     1      30.802  -5.249 -21.475  0.00  0.00    +0.257 C 
ATOM     34  H   UNL     1      31.325  -3.452 -22.372  0.00  0.00    +0.145 HD
ATOM     35  H   UNL     1      32.524  -4.660 -22.473  0.00  0.00    +0.145 HD
ENDBRANCH  30  33
ENDBRANCH  25  26
BRANCH  25  36
ATOM     36  C   UNL     1      30.560 -10.904 -21.581  0.00  0.00    +0.153 C 
BRANCH  36  37
ATOM     37  O   UNL     1      30.853 -12.180 -21.022  0.00  0.00    -0.381 OA
ATOM     38  H   UNL     1      31.345 -12.709 -21.669  0.00  0.00    +0.210 HD
ENDBRANCH  36  37
ENDBRANCH  25  36
ENDBRANCH  24  25
ENDBRANCH  23  24
ENDBRANCH   1  23
TORSDOF 10
ENDMDL
MODEL 9
REMARK VINA RESULT:     -11.4      5.300      9.970
REMARK  Name = 447546
REMARK  10 active torsions:
REMARK  status: ('A' for Active; 'I' for Inactive)
REMARK    1  A    between atoms: N_1  and  C_23
REMARK    2  A    between atoms: C_8  and  N_11
REMARK    3  A    between atoms: N_12  and  C_16
REMARK    4  A    between atoms: C_16  and  C_17
REMARK    5  A    between atoms: C_23  and  C_24
REMARK    6  A    between atoms: C_24  and  C_25
REMARK    7  A    between atoms: C_25  and  N_26
REMARK    8  A    between atoms: C_25  and  C_36
REMARK    9  A    between atoms: C_30  and  C_33
REMARK   10  A    between atoms: C_36  and  O_37
REMARK                            x       y       z     vdW  Elec       q    Type
REMARK                         _______ _______ _______ _____ _____    ______ ____
ROOT
ATOM      1  N   UNL     1      34.342 -16.385 -23.693  0.00  0.00    -0.286 N 
ATOM      2  C   UNL     1      33.823 -15.239 -24.252  0.00  0.00    +0.053 C 
ATOM      3  C   UNL     1      33.515 -15.535 -25.582  0.00  0.00    +0.015 C 
ATOM      4  C   UNL     1      34.372 -17.392 -24.620  0.00  0.00    +0.065 C 
ATOM      5  C   UNL     1      33.866 -16.896 -25.799  0.00  0.00    +0.017 C 
ATOM      6  C   UNL     1      33.605 -13.976 -23.688  0.00  0.00    +0.030 C 
ATOM      7  C   UNL     1      32.962 -14.522 -26.391  0.00  0.00    +0.003 C 
ATOM      8  C   UNL     1      33.056 -12.988 -24.510  0.00  0.00    +0.053 C 
ATOM      9  C   UNL     1      32.737 -13.255 -25.840  0.00  0.00    +0.015 C 
ENDROOT
BRANCH   8  11
ATOM     10  O   UNL     1      34.762 -10.520 -24.560  0.00  0.00    -0.252 OA
ATOM     11  N   UNL     1      32.820 -11.716 -23.987  0.00  0.00    -0.268 N 
ATOM     12  N   UNL     1      33.051  -9.494 -23.390  0.00  0.00    -0.285 N 
ATOM     13  C   UNL     1      33.653 -10.580 -24.034  0.00  0.00    +0.305 C 
ATOM     14  H   UNL     1      31.959 -11.596 -23.525  0.00  0.00    +0.156 HD
ATOM     15  H   UNL     1      32.161  -9.619 -22.992  0.00  0.00    +0.151 HD
BRANCH  12  16
ATOM     16  C   UNL     1      33.678  -8.196 -23.283  0.00  0.00    +0.118 C 
BRANCH  16  17
ATOM     17  C   UNL     1      32.993  -7.324 -22.271  0.00  0.00    -0.003 C 
ATOM     18  C   UNL     1      32.294  -6.191 -22.684  0.00  0.00    -0.003 C 
ATOM     19  C   UNL     1      33.057  -7.648 -20.915  0.00  0.00    -0.003 C 
ATOM     20  C   UNL     1      31.659  -5.381 -21.743  0.00  0.00    -0.000 C 
ATOM     21  C   UNL     1      32.421  -6.838 -19.974  0.00  0.00    -0.000 C 
ATOM     22  C   UNL     1      31.722  -5.704 -20.388  0.00  0.00    -0.000 C 
ENDBRANCH  16  17
ENDBRANCH  12  16
ENDBRANCH   8  11
BRANCH   1  23
ATOM     23  C   UNL     1      34.797 -16.522 -22.326  0.00  0.00    +0.097 C 
BRANCH  23  24
ATOM     24  C   UNL     1      34.570 -17.915 -21.722  0.00  0.00    +0.040 C 
BRANCH  24  25
ATOM     25  C   UNL     1      35.847 -18.633 -21.229  0.00  0.00    +0.091 C 
BRANCH  25  26
ATOM     26  N   UNL     1      35.574 -19.859 -20.459  0.00  0.00    -0.246 NA
ATOM     27  N   UNL     1      35.781 -21.640 -19.151  0.00  0.00    -0.251 NA
ATOM     28  C   UNL     1      34.374 -20.518 -20.368  0.00  0.00    +0.125 C 
ATOM     29  C   UNL     1      36.399 -20.560 -19.715  0.00  0.00    +0.201 C 
ATOM     30  C   UNL     1      34.477 -21.627 -19.561  0.00  0.00    +0.124 C 
BRANCH  30  33
ATOM     31  O   UNL     1      33.609 -23.818 -19.377  0.00  0.00    -0.269 OA
ATOM     32  N   UNL     1      32.313 -22.117 -18.590  0.00  0.00    -0.324 N 
ATOM     33  C   UNL     1      33.485 -22.583 -19.199  0.00  0.00    +0.257 C 
ATOM     34  H   UNL     1      31.608 -22.751 -18.328  0.00  0.00    +0.145 HD
ATOM     35  H   UNL     1      32.195 -21.153 -18.424  0.00  0.00    +0.145 HD
ENDBRANCH  30  33
ENDBRANCH  25  26
BRANCH  25  36
ATOM     36  C   UNL     1      36.785 -18.938 -22.410  0.00  0.00    +0.153 C 
BRANCH  36  37
ATOM     37  O   UNL     1      38.128 -18.650 -22.040  0.00  0.00    -0.381 OA
ATOM     38  H   UNL     1      38.718 -18.854 -22.782  0.00  0.00    +0.210 HD
ENDBRANCH  36  37
ENDBRANCH  25  36
ENDBRANCH  24  25
ENDBRANCH  23  24
ENDBRANCH   1  23
TORSDOF 10
ENDMDL
