MODEL 1
REMARK VINA RESULT:     -13.0      0.000      0.000
REMARK  Name = 24978486
REMARK  5 active torsions:
REMARK  status: ('A' for Active; 'I' for Inactive)
REMARK    1  A    between atoms: O_1  and  C_6
REMARK    2  A    between atoms: O_1  and  C_18
REMARK    3  A    between atoms: C_18  and  C_20
REMARK    4  A    between atoms: N_19  and  C_26
REMARK    5  A    between atoms: C_26  and  C_29
REMARK                            x       y       z     vdW  Elec       q    Type
REMARK                         _______ _______ _______ _____ _____    ______ ____
ROOT
ATOM      1  O   UNL     1      34.546 -22.803 -17.274  0.00  0.00    -0.479 OA
ENDROOT
BRANCH   1   6
ATOM      2  N   UNL     1      35.650 -24.041 -12.721  0.00  0.00    -0.332 NA
ATOM      3  N   UNL     1      37.437 -23.355 -14.186  0.00  0.00    -0.317 NA
ATOM      4  N   UNL     1      37.027 -22.737 -16.396  0.00  0.00    -0.335 N 
ATOM      5  N   UNL     1      37.871 -23.973 -11.968  0.00  0.00    -0.283 N 
ATOM      6  C   UNL     1      34.216 -23.230 -16.012  0.00  0.00    +0.130 C 
ATOM      7  C   UNL     1      35.156 -23.418 -14.984  0.00  0.00    +0.177 C 
ATOM      8  C   UNL     1      32.869 -23.482 -15.775  0.00  0.00    +0.033 C 
ATOM      9  C   UNL     1      34.759 -23.859 -13.712  0.00  0.00    +0.137 C 
ATOM     10  C   UNL     1      36.518 -23.183 -15.155  0.00  0.00    +0.181 C 
ATOM     11  C   UNL     1      32.462 -23.920 -14.520  0.00  0.00    +0.005 C 
ATOM     12  C   UNL     1      33.404 -24.104 -13.503  0.00  0.00    +0.030 C 
ATOM     13  C   UNL     1      36.941 -23.780 -13.012  0.00  0.00    +0.197 C 
ATOM     14  H   UNL     1      37.991 -22.574 -16.504  0.00  0.00    +0.144 HD
ATOM     15  H   UNL     1      36.415 -22.588 -17.153  0.00  0.00    +0.144 HD
ATOM     16  H   UNL     1      37.563 -24.283 -11.086  0.00  0.00    +0.156 HD
ATOM     17  H   UNL     1      38.828 -23.796 -12.121  0.00  0.00    +0.156 HD
ENDBRANCH   1   6
BRANCH   1  18
ATOM     18  C   UNL     1      33.489 -22.679 -18.208  0.00  0.00    +0.205 C 
BRANCH  18  20
ATOM     19  N   UNL     1      34.935 -19.500 -20.748  0.00  0.00    +0.390 N 
ATOM     20  C   UNL     1      34.016 -21.960 -19.446  0.00  0.00    +0.040 C 
ATOM     21  C   UNL     1      35.402 -21.362 -19.188  0.00  0.00    -0.019 C 
ATOM     22  C   UNL     1      33.052 -20.857 -19.895  0.00  0.00    -0.019 C 
ATOM     23  C   UNL     1      35.893 -20.555 -20.392  0.00  0.00    -0.077 C 
ATOM     24  C   UNL     1      33.620 -20.067 -21.075  0.00  0.00    -0.077 C 
ATOM     25  H   UNL     1      34.823 -18.889 -19.938  0.00  0.00    -0.079 HD
BRANCH  19  26
ATOM     26  C   UNL     1      35.442 -18.705 -21.867  0.00  0.00    -0.049 C 
BRANCH  26  29
ATOM     27 CL   UNL     1      34.787 -17.284 -24.481  0.00  0.00    -0.082 Cl
ATOM     28 CL   UNL     1      33.840 -14.230 -24.166  0.00  0.00    -0.081 Cl
ATOM     29  C   UNL     1      34.993 -17.270 -21.785  0.00  0.00    -0.032 C 
ATOM     30  C   UNL     1      34.669 -16.531 -22.923  0.00  0.00    +0.062 C 
ATOM     31  C   UNL     1      34.904 -16.683 -20.523  0.00  0.00    -0.005 C 
ATOM     32  C   UNL     1      34.257 -15.204 -22.798  0.00  0.00    +0.068 C 
ATOM     33  C   UNL     1      34.492 -15.356 -20.399  0.00  0.00    +0.001 C 
ATOM     34  C   UNL     1      34.168 -14.617 -21.537  0.00  0.00    +0.012 C 
ENDBRANCH  26  29
ENDBRANCH  19  26
ENDBRANCH  18  20
ENDBRANCH   1  18
TORSDOF 5
ENDMDL
MODEL 2
REMARK VINA RESULT:     -12.8      1.590      2.466
REMARK  Name = 24978486
REMARK  5 active torsions:
REMARK  status: ('A' for Active; 'I' for Inactive)
REMARK    1  A    between atoms: O_1  and  C_6
REMARK    2  A    between atoms: O_1  and  C_18
REMARK    3  A    between atoms: C_18  and  C_20
REMARK    4  A    between atoms: N_19  and  C_26
REMARK    5  A    between atoms: C_26  and  C_29
REMARK                            x       y       z     vdW  Elec       q    Type
REMARK                         _______ _______ _______ _____ _____    ______ ____
ROOT
ATOM      1  O   UNL     1      34.143 -23.065 -17.426  0.00  0.00    -0.479 OA
ENDROOT
BRANCH   1   6
ATOM      2  N   UNL     1      33.481 -24.212 -12.765  0.00  0.00    -0.332 NA
ATOM      3  N   UNL     1      35.737 -23.948 -13.569  0.00  0.00    -0.317 NA
ATOM      4  N   UNL     1      36.179 -23.397 -15.791  0.00  0.00    -0.335 N 
ATOM      5  N   UNL     1      35.315 -24.502 -11.332  0.00  0.00    -0.283 N 
ATOM      6  C   UNL     1      33.353 -23.350 -16.341  0.00  0.00    +0.130 C 
ATOM      7  C   UNL     1      33.862 -23.644 -15.064  0.00  0.00    +0.177 C 
ATOM      8  C   UNL     1      31.979 -23.340 -16.555  0.00  0.00    +0.033 C 
ATOM      9  C   UNL     1      33.003 -23.930 -13.991  0.00  0.00    +0.137 C 
ATOM     10  C   UNL     1      35.226 -23.670 -14.783  0.00  0.00    +0.181 C 
ATOM     11  C   UNL     1      31.117 -23.622 -15.501  0.00  0.00    +0.005 C 
ATOM     12  C   UNL     1      31.632 -23.914 -14.233  0.00  0.00    +0.030 C 
ATOM     13  C   UNL     1      34.821 -24.206 -12.621  0.00  0.00    +0.197 C 
ATOM     14  H   UNL     1      37.140 -23.418 -15.579  0.00  0.00    +0.144 HD
ATOM     15  H   UNL     1      35.881 -23.184 -16.705  0.00  0.00    +0.144 HD
ATOM     16  H   UNL     1      34.688 -24.699 -10.599  0.00  0.00    +0.156 HD
ATOM     17  H   UNL     1      36.286 -24.511 -11.166  0.00  0.00    +0.156 HD
ENDBRANCH   1   6
BRANCH   1  18
ATOM     18  C   UNL     1      33.482 -22.781 -18.646  0.00  0.00    +0.205 C 
BRANCH  18  20
ATOM     19  N   UNL     1      34.965 -19.828 -21.427  0.00  0.00    +0.390 N 
ATOM     20  C   UNL     1      34.004 -21.451 -19.184  0.00  0.00    +0.040 C 
ATOM     21  C   UNL     1      33.061 -20.879 -20.247  0.00  0.00    -0.019 C 
ATOM     22  C   UNL     1      35.411 -21.608 -19.769  0.00  0.00    -0.019 C 
ATOM     23  C   UNL     1      33.629 -19.598 -20.862  0.00  0.00    -0.077 C 
ATOM     24  C   UNL     1      35.900 -20.303 -20.399  0.00  0.00    -0.077 C 
ATOM     25  H   UNL     1      34.885 -20.553 -22.140  0.00  0.00    -0.079 HD
BRANCH  19  26
ATOM     26  C   UNL     1      35.471 -18.608 -22.056  0.00  0.00    -0.049 C 
BRANCH  26  29
ATOM     27 CL   UNL     1      34.706 -15.720 -22.650  0.00  0.00    -0.082 Cl
ATOM     28 CL   UNL     1      33.251 -15.255 -25.477  0.00  0.00    -0.081 Cl
ATOM     29  C   UNL     1      34.785 -18.326 -23.366  0.00  0.00    -0.032 C 
ATOM     30  C   UNL     1      34.394 -17.038 -23.733  0.00  0.00    +0.062 C 
ATOM     31  C   UNL     1      34.543 -19.399 -24.223  0.00  0.00    -0.005 C 
ATOM     32  C   UNL     1      33.761 -16.824 -24.958  0.00  0.00    +0.068 C 
ATOM     33  C   UNL     1      33.911 -19.185 -25.448  0.00  0.00    +0.001 C 
ATOM     34  C   UNL     1      33.520 -17.897 -25.815  0.00  0.00    +0.012 C 
ENDBRANCH  26  29
ENDBRANCH  19  26
ENDBRANCH  18  20
ENDBRANCH   1  18
TORSDOF 5
ENDMDL
MODEL 3
REMARK VINA RESULT:     -12.1      2.692      4.481
REMARK  Name = 24978486
REMARK  5 active torsions:
REMARK  status: ('A' for Active; 'I' for Inactive)
REMARK    1  A    between atoms: O_1  and  C_6
REMARK    2  A    between atoms: O_1  and  C_18
REMARK    3  A    between atoms: C_18  and  C_20
REMARK    4  A    between atoms: N_19  and  C_26
REMARK    5  A    between atoms: C_26  and  C_29
REMARK                            x       y       z     vdW  Elec       q    Type
REMARK                         _______ _______ _______ _____ _____    ______ ____
ROOT
ATOM      1  O   UNL     1      34.259 -24.974 -13.328  0.00  0.00    -0.479 OA
ENDROOT
BRANCH   1   6
ATOM      2  N   UNL     1      39.103 -25.118 -13.360  0.00  0.00    -0.332 NA
ATOM      3  N   UNL     1      37.904 -26.624 -14.810  0.00  0.00    -0.317 NA
ATOM      4  N   UNL     1      35.573 -26.645 -14.881  0.00  0.00    -0.335 N 
ATOM      5  N   UNL     1      40.246 -26.618 -14.755  0.00  0.00    -0.283 N 
ATOM      6  C   UNL     1      35.495 -24.552 -12.904  0.00  0.00    +0.130 C 
ATOM      7  C   UNL     1      36.705 -25.086 -13.382  0.00  0.00    +0.177 C 
ATOM      8  C   UNL     1      35.511 -23.542 -11.949  0.00  0.00    +0.033 C 
ATOM      9  C   UNL     1      37.940 -24.614 -12.909  0.00  0.00    +0.137 C 
ATOM     10  C   UNL     1      36.759 -26.097 -14.338  0.00  0.00    +0.181 C 
ATOM     11  C   UNL     1      36.727 -23.066 -11.472  0.00  0.00    +0.005 C 
ATOM     12  C   UNL     1      37.926 -23.603 -11.953  0.00  0.00    +0.030 C 
ATOM     13  C   UNL     1      39.022 -26.095 -14.286  0.00  0.00    +0.197 C 
ATOM     14  H   UNL     1      35.625 -27.360 -15.556  0.00  0.00    +0.144 HD
ATOM     15  H   UNL     1      34.696 -26.311 -14.584  0.00  0.00    +0.144 HD
ATOM     16  H   UNL     1      41.097 -26.267 -14.405  0.00  0.00    +0.156 HD
ATOM     17  H   UNL     1      40.250 -27.333 -15.433  0.00  0.00    +0.156 HD
ENDBRANCH   1   6
BRANCH   1  18
ATOM     18  C   UNL     1      33.341 -23.975 -13.729  0.00  0.00    +0.205 C 
BRANCH  18  20
ATOM     19  N   UNL     1      33.178 -22.459 -17.771  0.00  0.00    +0.390 N 
ATOM     20  C   UNL     1      33.275 -23.959 -15.254  0.00  0.00    +0.040 C 
ATOM     21  C   UNL     1      34.509 -23.278 -15.852  0.00  0.00    -0.019 C 
ATOM     22  C   UNL     1      32.005 -23.253 -15.743  0.00  0.00    -0.019 C 
ATOM     23  C   UNL     1      34.401 -23.170 -17.376  0.00  0.00    -0.077 C 
ATOM     24  C   UNL     1      31.981 -23.146 -17.268  0.00  0.00    -0.077 C 
ATOM     25  H   UNL     1      33.205 -21.529 -17.354  0.00  0.00    -0.079 HD
BRANCH  19  26
ATOM     26  C   UNL     1      33.115 -22.319 -19.225  0.00  0.00    -0.049 C 
BRANCH  26  29
ATOM     27 CL   UNL     1      32.146 -20.028 -20.984  0.00  0.00    -0.082 Cl
ATOM     28 CL   UNL     1      34.450 -18.040 -22.015  0.00  0.00    -0.081 Cl
ATOM     29  C   UNL     1      34.148 -21.353 -19.741  0.00  0.00    -0.032 C 
ATOM     30  C   UNL     1      33.808 -20.271 -20.553  0.00  0.00    +0.062 C 
ATOM     31  C   UNL     1      35.480 -21.565 -19.383  0.00  0.00    -0.005 C 
ATOM     32  C   UNL     1      34.800 -19.401 -21.007  0.00  0.00    +0.068 C 
ATOM     33  C   UNL     1      36.471 -20.695 -19.836  0.00  0.00    +0.001 C 
ATOM     34  C   UNL     1      36.131 -19.613 -20.649  0.00  0.00    +0.012 C 
ENDBRANCH  26  29
ENDBRANCH  19  26
ENDBRANCH  18  20
ENDBRANCH   1  18
TORSDOF 5
ENDMDL
MODEL 4
REMARK VINA RESULT:     -12.1      2.537      3.744
REMARK  Name = 24978486
REMARK  5 active torsions:
REMARK  status: ('A' for Active; 'I' for Inactive)
REMARK    1  A    between atoms: O_1  and  C_6
REMARK    2  A    between atoms: O_1  and  C_18
REMARK    3  A    between atoms: C_18  and  C_20
REMARK    4  A    between atoms: N_19  and  C_26
REMARK    5  A    between atoms: C_26  and  C_29
REMARK                            x       y       z     vdW  Elec       q    Type
REMARK                         _______ _______ _______ _____ _____    ______ ____
ROOT
ATOM      1  O   UNL     1      32.976 -22.511 -17.836  0.00  0.00    -0.479 OA
ENDROOT
BRANCH   1   6
ATOM      2  N   UNL     1      32.200 -24.510 -13.491  0.00  0.00    -0.332 NA
ATOM      3  N   UNL     1      30.291 -23.840 -14.800  0.00  0.00    -0.317 NA
ATOM      4  N   UNL     1      30.540 -22.869 -16.904  0.00  0.00    -0.335 N 
ATOM      5  N   UNL     1      30.018 -24.815 -12.687  0.00  0.00    -0.283 N 
ATOM      6  C   UNL     1      33.402 -23.074 -16.659  0.00  0.00    +0.130 C 
ATOM      7  C   UNL     1      32.530 -23.516 -15.648  0.00  0.00    +0.177 C 
ATOM      8  C   UNL     1      34.778 -23.196 -16.492  0.00  0.00    +0.033 C 
ATOM      9  C   UNL     1      33.026 -24.084 -14.463  0.00  0.00    +0.137 C 
ATOM     10  C   UNL     1      31.145 -23.424 -15.753  0.00  0.00    +0.181 C 
ATOM     11  C   UNL     1      35.281 -23.756 -15.323  0.00  0.00    +0.005 C 
ATOM     12  C   UNL     1      34.406 -24.193 -14.323  0.00  0.00    +0.030 C 
ATOM     13  C   UNL     1      30.878 -24.365 -13.711  0.00  0.00    +0.197 C 
ATOM     14  H   UNL     1      29.560 -22.809 -16.966  0.00  0.00    +0.144 HD
ATOM     15  H   UNL     1      31.101 -22.542 -17.645  0.00  0.00    +0.144 HD
ATOM     16  H   UNL     1      30.394 -25.209 -11.866  0.00  0.00    +0.156 HD
ATOM     17  H   UNL     1      29.042 -24.737 -12.792  0.00  0.00    +0.156 HD
ENDBRANCH   1   6
BRANCH   1  18
ATOM     18  C   UNL     1      33.822 -22.657 -18.962  0.00  0.00    +0.205 C 
BRANCH  18  20
ATOM     19  N   UNL     1      34.983 -19.482 -21.650  0.00  0.00    +0.390 N 
ATOM     20  C   UNL     1      34.221 -21.269 -19.455  0.00  0.00    +0.040 C 
ATOM     21  C   UNL     1      33.204 -20.731 -20.466  0.00  0.00    -0.019 C 
ATOM     22  C   UNL     1      35.618 -21.288 -20.084  0.00  0.00    -0.019 C 
ATOM     23  C   UNL     1      33.650 -19.383 -21.039  0.00  0.00    -0.077 C 
ATOM     24  C   UNL     1      35.983 -19.923 -20.669  0.00  0.00    -0.077 C 
ATOM     25  H   UNL     1      34.939 -20.181 -22.391  0.00  0.00    -0.079 HD
BRANCH  19  26
ATOM     26  C   UNL     1      35.372 -18.200 -22.237  0.00  0.00    -0.049 C 
BRANCH  26  29
ATOM     27 CL   UNL     1      34.632 -15.322 -22.907  0.00  0.00    -0.082 Cl
ATOM     28 CL   UNL     1      33.148 -14.923 -25.729  0.00  0.00    -0.081 Cl
ATOM     29  C   UNL     1      34.674 -17.948 -23.547  0.00  0.00    -0.032 C 
ATOM     30  C   UNL     1      34.292 -16.667 -23.947  0.00  0.00    +0.062 C 
ATOM     31  C   UNL     1      34.409 -19.043 -24.370  0.00  0.00    -0.005 C 
ATOM     32  C   UNL     1      33.647 -16.482 -25.171  0.00  0.00    +0.068 C 
ATOM     33  C   UNL     1      33.765 -18.858 -25.593  0.00  0.00    +0.001 C 
ATOM     34  C   UNL     1      33.384 -17.577 -25.993  0.00  0.00    +0.012 C 
ENDBRANCH  26  29
ENDBRANCH  19  26
ENDBRANCH  18  20
ENDBRANCH   1  18
TORSDOF 5
ENDMDL
MODEL 5
REMARK VINA RESULT:     -11.8      4.387     10.519
REMARK  Name = 24978486
REMARK  5 active torsions:
REMARK  status: ('A' for Active; 'I' for Inactive)
REMARK    1  A    between atoms: O_1  and  C_6
REMARK    2  A    between atoms: O_1  and  C_18
REMARK    3  A    between atoms: C_18  and  C_20
REMARK    4  A    between atoms: N_19  and  C_26
REMARK    5  A    between atoms: C_26  and  C_29
REMARK                            x       y       z     vdW  Elec       q    Type
REMARK                         _______ _______ _______ _____ _____    ______ ____
ROOT
ATOM      1  O   UNL     1      35.080 -18.365 -22.781  0.00  0.00    -0.479 OA
ENDROOT
BRANCH   1   6
ATOM      2  N   UNL     1      33.203 -14.894 -25.592  0.00  0.00    -0.332 NA
ATOM      3  N   UNL     1      33.454 -17.104 -26.518  0.00  0.00    -0.317 NA
ATOM      4  N   UNL     1      34.345 -18.854 -25.261  0.00  0.00    -0.335 N 
ATOM      5  N   UNL     1      32.557 -15.360 -27.798  0.00  0.00    -0.283 N 
ATOM      6  C   UNL     1      34.663 -17.079 -23.016  0.00  0.00    +0.130 C 
ATOM      7  C   UNL     1      34.127 -16.647 -24.242  0.00  0.00    +0.177 C 
ATOM      8  C   UNL     1      34.797 -16.182 -21.962  0.00  0.00    +0.033 C 
ATOM      9  C   UNL     1      33.718 -15.316 -24.424  0.00  0.00    +0.137 C 
ATOM     10  C   UNL     1      33.966 -17.494 -25.335  0.00  0.00    +0.181 C 
ATOM     11  C   UNL     1      34.397 -14.861 -22.129  0.00  0.00    +0.005 C 
ATOM     12  C   UNL     1      33.863 -14.440 -23.352  0.00  0.00    +0.030 C 
ATOM     13  C   UNL     1      33.099 -15.810 -26.575  0.00  0.00    +0.197 C 
ATOM     14  H   UNL     1      34.226 -19.442 -26.041  0.00  0.00    +0.144 HD
ATOM     15  H   UNL     1      34.727 -19.213 -24.427  0.00  0.00    +0.144 HD
ATOM     16  H   UNL     1      32.279 -14.420 -27.897  0.00  0.00    +0.156 HD
ATOM     17  H   UNL     1      32.455 -15.985 -28.553  0.00  0.00    +0.156 HD
ENDBRANCH   1   6
BRANCH   1  18
ATOM     18  C   UNL     1      35.489 -18.678 -21.462  0.00  0.00    +0.205 C 
BRANCH  18  20
ATOM     19  N   UNL     1      33.753 -21.782 -19.011  0.00  0.00    +0.390 N 
ATOM     20  C   UNL     1      34.872 -20.017 -21.066  0.00  0.00    +0.040 C 
ATOM     21  C   UNL     1      33.461 -19.828 -20.501  0.00  0.00    -0.019 C 
ATOM     22  C   UNL     1      35.748 -20.744 -20.041  0.00  0.00    -0.019 C 
ATOM     23  C   UNL     1      32.877 -21.155 -20.010  0.00  0.00    -0.077 C 
ATOM     24  C   UNL     1      35.088 -22.040 -19.565  0.00  0.00    -0.077 C 
ATOM     25  H   UNL     1      33.855 -21.133 -18.230  0.00  0.00    -0.079 HD
BRANCH  19  26
ATOM     26  C   UNL     1      33.156 -23.021 -18.514  0.00  0.00    -0.049 C 
BRANCH  26  29
ATOM     27 CL   UNL     1      30.641 -23.017 -16.794  0.00  0.00    -0.082 Cl
ATOM     28 CL   UNL     1      31.154 -23.346 -13.639  0.00  0.00    -0.081 Cl
ATOM     29  C   UNL     1      33.331 -23.171 -17.026  0.00  0.00    -0.032 C 
ATOM     30  C   UNL     1      32.244 -23.181 -16.152  0.00  0.00    +0.062 C 
ATOM     31  C   UNL     1      34.627 -23.302 -16.529  0.00  0.00    -0.005 C 
ATOM     32  C   UNL     1      32.454 -23.323 -14.779  0.00  0.00    +0.068 C 
ATOM     33  C   UNL     1      34.837 -23.444 -15.157  0.00  0.00    +0.001 C 
ATOM     34  C   UNL     1      33.750 -23.455 -14.283  0.00  0.00    +0.012 C 
ENDBRANCH  26  29
ENDBRANCH  19  26
ENDBRANCH  18  20
ENDBRANCH   1  18
TORSDOF 5
ENDMDL
MODEL 6
REMARK VINA RESULT:     -11.6      3.960      6.449
REMARK  Name = 24978486
REMARK  5 active torsions:
REMARK  status: ('A' for Active; 'I' for Inactive)
REMARK    1  A    between atoms: O_1  and  C_6
REMARK    2  A    between atoms: O_1  and  C_18
REMARK    3  A    between atoms: C_18  and  C_20
REMARK    4  A    between atoms: N_19  and  C_26
REMARK    5  A    between atoms: C_26  and  C_29
REMARK                            x       y       z     vdW  Elec       q    Type
REMARK                         _______ _______ _______ _____ _____    ______ ____
ROOT
ATOM      1  O   UNL     1      34.043 -18.830 -21.991  0.00  0.00    -0.479 OA
ENDROOT
BRANCH   1   6
ATOM      2  N   UNL     1      34.605 -22.267 -18.622  0.00  0.00    -0.332 NA
ATOM      3  N   UNL     1      32.377 -21.785 -19.404  0.00  0.00    -0.317 NA
ATOM      4  N   UNL     1      31.983 -20.153 -21.022  0.00  0.00    -0.335 N 
ATOM      5  N   UNL     1      32.751 -23.429 -17.777  0.00  0.00    -0.283 N 
ATOM      6  C   UNL     1      34.806 -19.598 -21.148  0.00  0.00    +0.130 C 
ATOM      7  C   UNL     1      34.273 -20.575 -20.289  0.00  0.00    +0.177 C 
ATOM      8  C   UNL     1      36.178 -19.368 -21.172  0.00  0.00    +0.033 C 
ATOM      9  C   UNL     1      35.105 -21.330 -19.447  0.00  0.00    +0.137 C 
ATOM     10  C   UNL     1      32.911 -20.855 -20.218  0.00  0.00    +0.181 C 
ATOM     11  C   UNL     1      37.013 -20.108 -20.343  0.00  0.00    +0.005 C 
ATOM     12  C   UNL     1      36.474 -21.079 -19.491  0.00  0.00    +0.030 C 
ATOM     13  C   UNL     1      33.268 -22.443 -18.645  0.00  0.00    +0.197 C 
ATOM     14  H   UNL     1      31.023 -20.360 -20.962  0.00  0.00    +0.144 HD
ATOM     15  H   UNL     1      32.299 -19.457 -21.643  0.00  0.00    +0.144 HD
ATOM     16  H   UNL     1      33.359 -23.943 -17.198  0.00  0.00    +0.156 HD
ATOM     17  H   UNL     1      31.782 -23.604 -17.751  0.00  0.00    +0.156 HD
ENDBRANCH   1   6
BRANCH   1  18
ATOM     18  C   UNL     1      34.502 -18.685 -23.323  0.00  0.00    +0.205 C 
BRANCH  18  20
ATOM     19  N   UNL     1      33.405 -14.514 -23.561  0.00  0.00    +0.390 N 
ATOM     20  C   UNL     1      34.585 -17.196 -23.649  0.00  0.00    +0.040 C 
ATOM     21  C   UNL     1      34.562 -16.350 -22.372  0.00  0.00    -0.019 C 
ATOM     22  C   UNL     1      33.439 -16.771 -24.573  0.00  0.00    -0.019 C 
ATOM     23  C   UNL     1      34.543 -14.854 -22.697  0.00  0.00    -0.077 C 
ATOM     24  C   UNL     1      33.457 -15.262 -24.824  0.00  0.00    -0.077 C 
ATOM     25  H   UNL     1      32.548 -14.779 -23.073  0.00  0.00    -0.079 HD
BRANCH  19  26
ATOM     26  C   UNL     1      33.371 -13.075 -23.819  0.00  0.00    -0.049 C 
BRANCH  26  29
ATOM     27 CL   UNL     1      32.732 -10.145 -24.355  0.00  0.00    -0.082 Cl
ATOM     28 CL   UNL     1      31.008  -8.690 -22.067  0.00  0.00    -0.081 Cl
ATOM     29  C   UNL     1      32.566 -12.338 -22.783  0.00  0.00    -0.032 C 
ATOM     30  C   UNL     1      32.220 -10.994 -22.933  0.00  0.00    +0.062 C 
ATOM     31  C   UNL     1      32.163 -13.038 -21.646  0.00  0.00    -0.005 C 
ATOM     32  C   UNL     1      31.472 -10.352 -21.945  0.00  0.00    +0.068 C 
ATOM     33  C   UNL     1      31.415 -12.396 -20.659  0.00  0.00    +0.001 C 
ATOM     34  C   UNL     1      31.070 -11.053 -20.809  0.00  0.00    +0.012 C 
ENDBRANCH  26  29
ENDBRANCH  19  26
ENDBRANCH  18  20
ENDBRANCH   1  18
TORSDOF 5
ENDMDL
MODEL 7
REMARK VINA RESULT:     -11.5      4.281      7.287
REMARK  Name = 24978486
REMARK  5 active torsions:
REMARK  status: ('A' for Active; 'I' for Inactive)
REMARK    1  A    between atoms: O_1  and  C_6
REMARK    2  A    between atoms: O_1  and  C_18
REMARK    3  A    between atoms: C_18  and  C_20
REMARK    4  A    between atoms: N_19  and  C_26
REMARK    5  A    between atoms: C_26  and  C_29
REMARK                            x       y       z     vdW  Elec       q    Type
REMARK                         _______ _______ _______ _____ _____    ______ ____
ROOT
ATOM      1  O   UNL     1      34.048 -18.391 -22.380  0.00  0.00    -0.479 OA
ENDROOT
BRANCH   1   6
ATOM      2  N   UNL     1      34.601 -21.852 -19.034  0.00  0.00    -0.332 NA
ATOM      3  N   UNL     1      32.385 -21.417 -19.874  0.00  0.00    -0.317 NA
ATOM      4  N   UNL     1      31.996 -19.776 -21.485  0.00  0.00    -0.335 N 
ATOM      5  N   UNL     1      32.754 -23.070 -18.256  0.00  0.00    -0.283 N 
ATOM      6  C   UNL     1      34.806 -19.150 -21.524  0.00  0.00    +0.130 C 
ATOM      7  C   UNL     1      34.274 -20.150 -20.691  0.00  0.00    +0.177 C 
ATOM      8  C   UNL     1      36.172 -18.885 -21.506  0.00  0.00    +0.033 C 
ATOM      9  C   UNL     1      35.101 -20.893 -19.834  0.00  0.00    +0.137 C 
ATOM     10  C   UNL     1      32.918 -20.464 -20.662  0.00  0.00    +0.181 C 
ATOM     11  C   UNL     1      37.001 -19.614 -20.661  0.00  0.00    +0.005 C 
ATOM     12  C   UNL     1      36.463 -20.608 -19.836  0.00  0.00    +0.030 C 
ATOM     13  C   UNL     1      33.271 -22.062 -19.097  0.00  0.00    +0.197 C 
ATOM     14  H   UNL     1      31.040 -20.008 -21.454  0.00  0.00    +0.144 HD
ATOM     15  H   UNL     1      32.312 -19.066 -22.089  0.00  0.00    +0.144 HD
ATOM     16  H   UNL     1      33.358 -23.576 -17.665  0.00  0.00    +0.156 HD
ATOM     17  H   UNL     1      31.789 -23.269 -18.259  0.00  0.00    +0.156 HD
ENDBRANCH   1   6
BRANCH   1  18
ATOM     18  C   UNL     1      34.744 -17.559 -23.290  0.00  0.00    +0.205 C 
BRANCH  18  20
ATOM     19  N   UNL     1      33.599 -13.626 -24.658  0.00  0.00    +0.390 N 
ATOM     20  C   UNL     1      33.869 -16.349 -23.609  0.00  0.00    +0.040 C 
ATOM     21  C   UNL     1      33.879 -16.042 -25.109  0.00  0.00    -0.019 C 
ATOM     22  C   UNL     1      34.331 -15.116 -22.825  0.00  0.00    -0.019 C 
ATOM     23  C   UNL     1      33.087 -14.771 -25.422  0.00  0.00    -0.077 C 
ATOM     24  C   UNL     1      33.523 -13.876 -23.213  0.00  0.00    -0.077 C 
ATOM     25  H   UNL     1      34.581 -13.497 -24.905  0.00  0.00    -0.079 HD
BRANCH  19  26
ATOM     26  C   UNL     1      32.866 -12.409 -25.007  0.00  0.00    -0.049 C 
BRANCH  26  29
ATOM     27 CL   UNL     1      31.902 -10.428 -22.902  0.00  0.00    -0.082 Cl
ATOM     28 CL   UNL     1      33.760  -7.833 -22.529  0.00  0.00    -0.081 Cl
ATOM     29  C   UNL     1      33.694 -11.172 -24.785  0.00  0.00    -0.032 C 
ATOM     30  C   UNL     1      33.340 -10.203 -23.846  0.00  0.00    +0.062 C 
ATOM     31  C   UNL     1      34.846 -11.008 -25.554  0.00  0.00    -0.005 C 
ATOM     32  C   UNL     1      34.139  -9.072 -23.675  0.00  0.00    +0.068 C 
ATOM     33  C   UNL     1      35.645  -9.878 -25.383  0.00  0.00    +0.001 C 
ATOM     34  C   UNL     1      35.291  -8.910 -24.444  0.00  0.00    +0.012 C 
ENDBRANCH  26  29
ENDBRANCH  19  26
ENDBRANCH  18  20
ENDBRANCH   1  18
TORSDOF 5
ENDMDL
MODEL 8
REMARK VINA RESULT:     -11.5      2.279      3.444
REMARK  Name = 24978486
REMARK  5 active torsions:
REMARK  status: ('A' for Active; 'I' for Inactive)
REMARK    1  A    between atoms: O_1  and  C_6
REMARK    2  A    between atoms: O_1  and  C_18
REMARK    3  A    between atoms: C_18  and  C_20
REMARK    4  A    between atoms: N_19  and  C_26
REMARK    5  A    between atoms: C_26  and  C_29
REMARK                            x       y       z     vdW  Elec       q    Type
REMARK                         _______ _______ _______ _____ _____    ______ ____
ROOT
ATOM      1  O   UNL     1      35.297 -22.033 -18.932  0.00  0.00    -0.479 OA
ENDROOT
BRANCH   1   6
ATOM      2  N   UNL     1      32.952 -23.581 -14.984  0.00  0.00    -0.332 NA
ATOM      3  N   UNL     1      31.696 -23.290 -17.020  0.00  0.00    -0.317 NA
ATOM      4  N   UNL     1      32.716 -22.551 -18.982  0.00  0.00    -0.335 N 
ATOM      5  N   UNL     1      30.652 -24.034 -15.059  0.00  0.00    -0.283 N 
ATOM      6  C   UNL     1      35.244 -22.402 -17.611  0.00  0.00    +0.130 C 
ATOM      7  C   UNL     1      34.066 -22.817 -16.966  0.00  0.00    +0.177 C 
ATOM      8  C   UNL     1      36.440 -22.347 -16.904  0.00  0.00    +0.033 C 
ATOM      9  C   UNL     1      34.073 -23.181 -15.610  0.00  0.00    +0.137 C 
ATOM     10  C   UNL     1      32.837 -22.895 -17.616  0.00  0.00    +0.181 C 
ATOM     11  C   UNL     1      36.461 -22.704 -15.560  0.00  0.00    +0.005 C 
ATOM     12  C   UNL     1      35.285 -23.117 -14.926  0.00  0.00    +0.030 C 
ATOM     13  C   UNL     1      31.825 -23.613 -15.723  0.00  0.00    +0.197 C 
ATOM     14  H   UNL     1      31.842 -22.611 -19.430  0.00  0.00    +0.144 HD
ATOM     15  H   UNL     1      33.508 -22.253 -19.486  0.00  0.00    +0.144 HD
ATOM     16  H   UNL     1      30.687 -24.284 -14.108  0.00  0.00    +0.156 HD
ATOM     17  H   UNL     1      29.798 -24.080 -15.548  0.00  0.00    +0.156 HD
ENDBRANCH   1   6
BRANCH   1  18
ATOM     18  C   UNL     1      36.064 -20.886 -19.249  0.00  0.00    +0.205 C 
BRANCH  18  20
ATOM     19  N   UNL     1      34.731 -18.282 -22.427  0.00  0.00    +0.390 N 
ATOM     20  C   UNL     1      35.674 -20.411 -20.646  0.00  0.00    +0.040 C 
ATOM     21  C   UNL     1      36.581 -19.268 -21.113  0.00  0.00    -0.019 C 
ATOM     22  C   UNL     1      34.210 -19.960 -20.685  0.00  0.00    -0.019 C 
ATOM     23  C   UNL     1      36.132 -18.721 -22.470  0.00  0.00    -0.077 C 
ATOM     24  C   UNL     1      33.841 -19.390 -22.056  0.00  0.00    -0.077 C 
ATOM     25  H   UNL     1      34.649 -17.559 -21.712  0.00  0.00    -0.079 HD
BRANCH  19  26
ATOM     26  C   UNL     1      34.333 -17.715 -23.714  0.00  0.00    -0.049 C 
BRANCH  26  29
ATOM     27 CL   UNL     1      33.073 -16.334 -26.121  0.00  0.00    -0.082 Cl
ATOM     28 CL   UNL     1      32.673 -13.162 -25.810  0.00  0.00    -0.081 Cl
ATOM     29  C   UNL     1      34.120 -16.227 -23.630  0.00  0.00    -0.032 C 
ATOM     30  C   UNL     1      33.551 -15.501 -24.677  0.00  0.00    +0.062 C 
ATOM     31  C   UNL     1      34.510 -15.574 -22.461  0.00  0.00    -0.005 C 
ATOM     32  C   UNL     1      33.372 -14.122 -24.553  0.00  0.00    +0.068 C 
ATOM     33  C   UNL     1      34.331 -14.197 -22.337  0.00  0.00    +0.001 C 
ATOM     34  C   UNL     1      33.762 -13.471 -23.384  0.00  0.00    +0.012 C 
ENDBRANCH  26  29
ENDBRANCH  19  26
ENDBRANCH  18  20
ENDBRANCH   1  18
TORSDOF 5
ENDMDL
MODEL 9
REMARK VINA RESULT:     -11.2      2.639      3.976
REMARK  Name = 24978486
REMARK  5 active torsions:
REMARK  status: ('A' for Active; 'I' for Inactive)
REMARK    1  A    between atoms: O_1  and  C_6
REMARK    2  A    between atoms: O_1  and  C_18
REMARK    3  A    between atoms: C_18  and  C_20
REMARK    4  A    between atoms: N_19  and  C_26
REMARK    5  A    between atoms: C_26  and  C_29
REMARK                            x       y       z     vdW  Elec       q    Type
REMARK                         _______ _______ _______ _____ _____    ______ ____
ROOT
ATOM      1  O   UNL     1      34.794 -21.733 -18.786  0.00  0.00    -0.479 OA
ENDROOT
BRANCH   1   6
ATOM      2  N   UNL     1      34.172 -23.999 -14.549  0.00  0.00    -0.332 NA
ATOM      3  N   UNL     1      32.280 -23.798 -16.027  0.00  0.00    -0.317 NA
ATOM      4  N   UNL     1      32.459 -22.730 -18.092  0.00  0.00    -0.335 N 
ATOM      5  N   UNL     1      32.079 -24.877 -13.957  0.00  0.00    -0.283 N 
ATOM      6  C   UNL     1      35.243 -22.206 -17.578  0.00  0.00    +0.130 C 
ATOM      7  C   UNL     1      34.428 -22.887 -16.658  0.00  0.00    +0.177 C 
ATOM      8  C   UNL     1      36.583 -21.977 -17.283  0.00  0.00    +0.033 C 
ATOM      9  C   UNL     1      34.944 -23.346 -15.436  0.00  0.00    +0.137 C 
ATOM     10  C   UNL     1      33.080 -23.148 -16.892  0.00  0.00    +0.181 C 
ATOM     11  C   UNL     1      37.106 -22.426 -16.076  0.00  0.00    +0.005 C 
ATOM     12  C   UNL     1      36.288 -23.104 -15.166  0.00  0.00    +0.030 C 
ATOM     13  C   UNL     1      32.883 -24.190 -14.892  0.00  0.00    +0.197 C 
ATOM     14  H   UNL     1      31.506 -22.921 -18.245  0.00  0.00    +0.144 HD
ATOM     15  H   UNL     1      32.981 -22.248 -18.773  0.00  0.00    +0.144 HD
ATOM     16  H   UNL     1      32.469 -25.187 -13.108  0.00  0.00    +0.156 HD
ATOM     17  H   UNL     1      31.129 -25.047 -14.153  0.00  0.00    +0.156 HD
ENDBRANCH   1   6
BRANCH   1  18
ATOM     18  C   UNL     1      35.774 -21.411 -19.755  0.00  0.00    +0.205 C 
BRANCH  18  20
ATOM     19  N   UNL     1      34.826 -18.426 -22.730  0.00  0.00    +0.390 N 
ATOM     20  C   UNL     1      35.425 -20.058 -20.370  0.00  0.00    +0.040 C 
ATOM     21  C   UNL     1      34.070 -20.110 -21.082  0.00  0.00    -0.019 C 
ATOM     22  C   UNL     1      36.509 -19.603 -21.351  0.00  0.00    -0.019 C 
ATOM     23  C   UNL     1      33.760 -18.786 -21.785  0.00  0.00    -0.077 C 
ATOM     24  C   UNL     1      36.119 -18.296 -22.045  0.00  0.00    -0.077 C 
ATOM     25  H   UNL     1      34.907 -19.177 -23.416  0.00  0.00    -0.079 HD
BRANCH  19  26
ATOM     26  C   UNL     1      34.491 -17.187 -23.431  0.00  0.00    -0.049 C 
BRANCH  26  29
ATOM     27 CL   UNL     1      33.403 -14.759 -24.916  0.00  0.00    -0.082 Cl
ATOM     28 CL   UNL     1      31.564 -15.438 -27.461  0.00  0.00    -0.081 Cl
ATOM     29  C   UNL     1      33.621 -17.439 -24.633  0.00  0.00    -0.032 C 
ATOM     30  C   UNL     1      33.074 -16.397 -25.382  0.00  0.00    +0.062 C 
ATOM     31  C   UNL     1      33.367 -18.763 -24.991  0.00  0.00    -0.005 C 
ATOM     32  C   UNL     1      32.273 -16.680 -26.489  0.00  0.00    +0.068 C 
ATOM     33  C   UNL     1      32.568 -19.046 -26.099  0.00  0.00    +0.001 C 
ATOM     34  C   UNL     1      32.020 -18.003 -26.847  0.00  0.00    +0.012 C 
ENDBRANCH  26  29
ENDBRANCH  19  26
ENDBRANCH  18  20
ENDBRANCH   1  18
TORSDOF 5
ENDMDL
