MODEL 1
REMARK VINA RESULT:     -11.9      0.000      0.000
REMARK  Name = 5497056
REMARK  11 active torsions:
REMARK  status: ('A' for Active; 'I' for Inactive)
REMARK    1  A    between atoms: N_2  and  C_22
REMARK    2  A    between atoms: C_3  and  C_5
REMARK    3  A    between atoms: C_8  and  C_11
REMARK    4  A    between atoms: C_13  and  C_17
REMARK    5  A    between atoms: C_17  and  N_18
REMARK    6  A    between atoms: C_22  and  C_24
REMARK    7  A    between atoms: C_24  and  C_26
REMARK    8  A    between atoms: C_24  and  C_29
REMARK    9  A    between atoms: C_26  and  O_27
REMARK   10  A    between atoms: C_29  and  C_30
REMARK   11  A    between atoms: C_33  and  C_38
REMARK                            x       y       z     vdW  Elec       q    Type
REMARK                         _______ _______ _______ _____ _____    ______ ____
ROOT
ATOM      1  O   UNL     1      33.471 -24.076 -19.212  0.00  0.00    -0.270 OA
ATOM      2  N   UNL     1      33.254 -22.717 -17.347  0.00  0.00    -0.302 N 
ATOM      3  C   UNL     1      33.451 -22.962 -18.697  0.00  0.00    +0.246 C 
ATOM      4  H   UNL     1      33.256 -21.785 -17.029  0.00  0.00    +0.150 HD
ENDROOT
BRANCH   3   5
ATOM      5  C   UNL     1      33.678 -21.765 -19.547  0.00  0.00    +0.053 C 
ATOM      6  C   UNL     1      34.979 -21.361 -19.848  0.00  0.00    +0.005 C 
ATOM      7  C   UNL     1      32.592 -21.046 -20.044  0.00  0.00    +0.005 C 
ATOM      8  C   UNL     1      34.106 -19.518 -21.144  0.00  0.00    -0.000 C 
ATOM      9  C   UNL     1      35.192 -20.236 -20.646  0.00  0.00    +0.000 C 
ATOM     10  C   UNL     1      32.805 -19.922 -20.843  0.00  0.00    +0.000 C 
BRANCH   8  11
ATOM     11  C   UNL     1      34.329 -18.353 -21.973  0.00  0.00    -0.000 C 
ATOM     12  C   UNL     1      34.172 -18.440 -23.356  0.00  0.00    -0.006 C 
ATOM     13  C   UNL     1      34.387 -17.316 -24.154  0.00  0.00    -0.044 C 
ATOM     14  C   UNL     1      34.701 -17.142 -21.387  0.00  0.00    -0.000 C 
ATOM     15  C   UNL     1      34.760 -16.106 -23.568  0.00  0.00    -0.006 C 
ATOM     16  C   UNL     1      34.916 -16.019 -22.185  0.00  0.00    -0.000 C 
BRANCH  13  17
ATOM     17  C   UNL     1      34.218 -17.408 -25.633  0.00  0.00    -0.059 C 
BRANCH  17  18
ATOM     18  N   UNL     1      33.479 -18.606 -26.036  0.00  0.00    +0.383 N 
ATOM     19  H   UNL     1      34.044 -19.434 -25.848  0.00  0.00    -0.089 HD
ATOM     20  H   UNL     1      33.269 -18.557 -27.033  0.00  0.00    -0.089 HD
ATOM     21  H   UNL     1      32.607 -18.661 -25.508  0.00  0.00    -0.089 HD
ENDBRANCH  17  18
ENDBRANCH  13  17
ENDBRANCH   8  11
ENDBRANCH   3   5
BRANCH   2  22
ATOM     22  C   UNL     1      33.045 -23.777 -16.389  0.00  0.00    +0.083 C 
ATOM     23  C   UNL     1      31.643 -23.677 -15.791  0.00  0.00    +0.022 C 
BRANCH  22  24
ATOM     24  C   UNL     1      34.145 -23.822 -15.304  0.00  0.00    +0.121 C 
BRANCH  24  26
ATOM     25  O   UNL     1      35.301 -21.736 -14.804  0.00  0.00    -0.250 OA
ATOM     26  C   UNL     1      35.180 -22.723 -15.518  0.00  0.00    +0.319 C 
BRANCH  26  27
ATOM     27  O   UNL     1      35.937 -23.013 -16.616  0.00  0.00    -0.444 OA
ATOM     28  C   UNL     1      36.922 -22.033 -16.961  0.00  0.00    +0.256 C 
ENDBRANCH  26  27
ENDBRANCH  24  26
BRANCH  24  29
ATOM     29  C   UNL     1      34.842 -25.197 -15.243  0.00  0.00    +0.039 C 
BRANCH  29  30
ATOM     30  C   UNL     1      36.006 -25.221 -14.280  0.00  0.00    -0.021 C 
ATOM     31  C   UNL     1      37.298 -25.449 -14.753  0.00  0.00    -0.002 C 
ATOM     32  C   UNL     1      35.788 -25.019 -12.917  0.00  0.00    -0.004 C 
ATOM     33  C   UNL     1      38.373 -25.473 -13.864  0.00  0.00    +0.030 C 
ATOM     34  C   UNL     1      36.862 -25.044 -12.028  0.00  0.00    -0.000 C 
ATOM     35  C   UNL     1      38.155 -25.271 -12.500  0.00  0.00    +0.003 C 
BRANCH  33  38
ATOM     36  N   UNL     1      40.173 -27.001 -14.632  0.00  0.00    -0.343 N 
ATOM     37  N   UNL     1      40.541 -24.695 -14.547  0.00  0.00    -0.285 NA
ATOM     38  C   UNL     1      39.719 -25.712 -14.356  0.00  0.00    +0.117 C 
ATOM     39  H   UNL     1      41.090 -27.140 -14.964  0.00  0.00    +0.144 HD
ATOM     40  H   UNL     1      39.578 -27.773 -14.493  0.00  0.00    +0.144 HD
ATOM     41  H   UNL     1      41.453 -24.854 -14.880  0.00  0.00    +0.188 HD
ENDBRANCH  33  38
ENDBRANCH  29  30
ENDBRANCH  24  29
ENDBRANCH  22  24
ENDBRANCH   2  22
TORSDOF 11
ENDMDL
MODEL 2
REMARK VINA RESULT:     -11.9      1.717      2.160
REMARK  Name = 5497056
REMARK  11 active torsions:
REMARK  status: ('A' for Active; 'I' for Inactive)
REMARK    1  A    between atoms: N_2  and  C_22
REMARK    2  A    between atoms: C_3  and  C_5
REMARK    3  A    between atoms: C_8  and  C_11
REMARK    4  A    between atoms: C_13  and  C_17
REMARK    5  A    between atoms: C_17  and  N_18
REMARK    6  A    between atoms: C_22  and  C_24
REMARK    7  A    between atoms: C_24  and  C_26
REMARK    8  A    between atoms: C_24  and  C_29
REMARK    9  A    between atoms: C_26  and  O_27
REMARK   10  A    between atoms: C_29  and  C_30
REMARK   11  A    between atoms: C_33  and  C_38
REMARK                            x       y       z     vdW  Elec       q    Type
REMARK                         _______ _______ _______ _____ _____    ______ ____
ROOT
ATOM      1  O   UNL     1      33.608 -23.969 -19.465  0.00  0.00    -0.270 OA
ATOM      2  N   UNL     1      33.134 -22.655 -17.613  0.00  0.00    -0.302 N 
ATOM      3  C   UNL     1      33.469 -22.867 -18.942  0.00  0.00    +0.246 C 
ATOM      4  H   UNL     1      33.047 -21.730 -17.288  0.00  0.00    +0.150 HD
ENDROOT
BRANCH   3   5
ATOM      5  C   UNL     1      33.694 -21.645 -19.756  0.00  0.00    +0.053 C 
ATOM      6  C   UNL     1      34.994 -21.235 -20.054  0.00  0.00    +0.005 C 
ATOM      7  C   UNL     1      32.606 -20.906 -20.222  0.00  0.00    +0.005 C 
ATOM      8  C   UNL     1      34.117 -19.349 -21.285  0.00  0.00    -0.000 C 
ATOM      9  C   UNL     1      35.205 -20.087 -20.818  0.00  0.00    +0.000 C 
ATOM     10  C   UNL     1      32.818 -19.759 -20.987  0.00  0.00    +0.000 C 
BRANCH   8  11
ATOM     11  C   UNL     1      34.338 -18.159 -22.079  0.00  0.00    -0.000 C 
ATOM     12  C   UNL     1      34.224 -18.216 -23.467  0.00  0.00    -0.006 C 
ATOM     13  C   UNL     1      34.437 -17.069 -24.231  0.00  0.00    -0.044 C 
ATOM     14  C   UNL     1      34.665 -16.956 -21.453  0.00  0.00    -0.000 C 
ATOM     15  C   UNL     1      34.765 -15.865 -23.606  0.00  0.00    -0.006 C 
ATOM     16  C   UNL     1      34.878 -15.809 -22.217  0.00  0.00    -0.000 C 
BRANCH  13  17
ATOM     17  C   UNL     1      34.314 -17.128 -25.716  0.00  0.00    -0.059 C 
BRANCH  17  18
ATOM     18  N   UNL     1      33.119 -16.440 -26.205  0.00  0.00    +0.383 N 
ATOM     19  H   UNL     1      32.490 -17.117 -26.638  0.00  0.00    -0.089 HD
ATOM     20  H   UNL     1      33.387 -15.738 -26.894  0.00  0.00    -0.089 HD
ATOM     21  H   UNL     1      32.645 -15.986 -25.424  0.00  0.00    -0.089 HD
ENDBRANCH  17  18
ENDBRANCH  13  17
ENDBRANCH   8  11
ENDBRANCH   3   5
BRANCH   2  22
ATOM     22  C   UNL     1      32.909 -23.742 -16.689  0.00  0.00    +0.083 C 
ATOM     23  C   UNL     1      31.498 -23.655 -16.109  0.00  0.00    +0.022 C 
BRANCH  22  24
ATOM     24  C   UNL     1      33.992 -23.821 -15.590  0.00  0.00    +0.121 C 
BRANCH  24  26
ATOM     25  O   UNL     1      35.119 -21.731 -15.042  0.00  0.00    -0.250 OA
ATOM     26  C   UNL     1      35.034 -22.720 -15.758  0.00  0.00    +0.319 C 
BRANCH  26  27
ATOM     27  O   UNL     1      35.842 -23.011 -16.819  0.00  0.00    -0.444 OA
ATOM     28  C   UNL     1      36.841 -22.031 -17.118  0.00  0.00    +0.256 C 
ENDBRANCH  26  27
ENDBRANCH  24  26
BRANCH  24  29
ATOM     29  C   UNL     1      34.684 -25.199 -15.557  0.00  0.00    +0.039 C 
BRANCH  29  30
ATOM     30  C   UNL     1      35.628 -25.353 -14.387  0.00  0.00    -0.021 C 
ATOM     31  C   UNL     1      35.331 -24.747 -13.167  0.00  0.00    -0.002 C 
ATOM     32  C   UNL     1      36.798 -26.099 -14.528  0.00  0.00    -0.004 C 
ATOM     33  C   UNL     1      36.203 -24.887 -12.087  0.00  0.00    +0.030 C 
ATOM     34  C   UNL     1      37.671 -26.239 -13.449  0.00  0.00    -0.000 C 
ATOM     35  C   UNL     1      37.374 -25.634 -12.228  0.00  0.00    +0.003 C 
BRANCH  33  38
ATOM     36  N   UNL     1      36.502 -23.060 -10.432  0.00  0.00    -0.343 N 
ATOM     37  N   UNL     1      35.024 -24.816  -9.994  0.00  0.00    -0.285 NA
ATOM     38  C   UNL     1      35.894 -24.255 -10.815  0.00  0.00    +0.117 C 
ATOM     39  H   UNL     1      36.279 -22.649  -9.566  0.00  0.00    +0.144 HD
ATOM     40  H   UNL     1      37.156 -22.627 -11.028  0.00  0.00    +0.144 HD
ATOM     41  H   UNL     1      34.814 -24.389  -9.133  0.00  0.00    +0.188 HD
ENDBRANCH  33  38
ENDBRANCH  29  30
ENDBRANCH  24  29
ENDBRANCH  22  24
ENDBRANCH   2  22
TORSDOF 11
ENDMDL
MODEL 3
REMARK VINA RESULT:     -11.8      1.710      2.821
REMARK  Name = 5497056
REMARK  11 active torsions:
REMARK  status: ('A' for Active; 'I' for Inactive)
REMARK    1  A    between atoms: N_2  and  C_22
REMARK    2  A    between atoms: C_3  and  C_5
REMARK    3  A    between atoms: C_8  and  C_11
REMARK    4  A    between atoms: C_13  and  C_17
REMARK    5  A    between atoms: C_17  and  N_18
REMARK    6  A    between atoms: C_22  and  C_24
REMARK    7  A    between atoms: C_24  and  C_26
REMARK    8  A    between atoms: C_24  and  C_29
REMARK    9  A    between atoms: C_26  and  O_27
REMARK   10  A    between atoms: C_29  and  C_30
REMARK   11  A    between atoms: C_33  and  C_38
REMARK                            x       y       z     vdW  Elec       q    Type
REMARK                         _______ _______ _______ _____ _____    ______ ____
ROOT
ATOM      1  O   UNL     1      33.460 -23.969 -18.484  0.00  0.00    -0.270 OA
ATOM      2  N   UNL     1      31.988 -22.548 -17.393  0.00  0.00    -0.302 N 
ATOM      3  C   UNL     1      32.914 -22.875 -18.372  0.00  0.00    +0.246 C 
ATOM      4  H   UNL     1      31.606 -21.640 -17.387  0.00  0.00    +0.150 HD
ENDROOT
BRANCH   3   5
ATOM      5  C   UNL     1      33.265 -21.788 -19.322  0.00  0.00    +0.053 C 
ATOM      6  C   UNL     1      32.257 -21.030 -19.917  0.00  0.00    +0.005 C 
ATOM      7  C   UNL     1      34.603 -21.525 -19.618  0.00  0.00    +0.005 C 
ATOM      8  C   UNL     1      33.924 -19.746 -21.105  0.00  0.00    -0.000 C 
ATOM      9  C   UNL     1      32.587 -20.010 -20.810  0.00  0.00    +0.000 C 
ATOM     10  C   UNL     1      34.932 -20.504 -20.509  0.00  0.00    +0.000 C 
BRANCH   8  11
ATOM     11  C   UNL     1      34.265 -18.686 -22.030  0.00  0.00    -0.000 C 
ATOM     12  C   UNL     1      33.994 -18.833 -23.390  0.00  0.00    -0.006 C 
ATOM     13  C   UNL     1      34.323 -17.811 -24.280  0.00  0.00    -0.044 C 
ATOM     14  C   UNL     1      34.863 -17.517 -21.559  0.00  0.00    -0.000 C 
ATOM     15  C   UNL     1      34.922 -16.642 -23.809  0.00  0.00    -0.006 C 
ATOM     16  C   UNL     1      35.191 -16.495 -22.449  0.00  0.00    -0.000 C 
BRANCH  13  17
ATOM     17  C   UNL     1      34.033 -17.967 -25.734  0.00  0.00    -0.059 C 
BRANCH  17  18
ATOM     18  N   UNL     1      32.683 -18.476 -25.983  0.00  0.00    +0.383 N 
ATOM     19  H   UNL     1      32.090 -18.273 -25.178  0.00  0.00    -0.089 HD
ATOM     20  H   UNL     1      32.721 -19.484 -26.132  0.00  0.00    -0.089 HD
ATOM     21  H   UNL     1      32.298 -18.024 -26.813  0.00  0.00    -0.089 HD
ENDBRANCH  17  18
ENDBRANCH  13  17
ENDBRANCH   8  11
ENDBRANCH   3   5
BRANCH   2  22
ATOM     22  C   UNL     1      31.563 -23.488 -16.383  0.00  0.00    +0.083 C 
ATOM     23  C   UNL     1      30.290 -22.988 -15.702  0.00  0.00    +0.022 C 
BRANCH  22  24
ATOM     24  C   UNL     1      32.682 -23.815 -15.369  0.00  0.00    +0.121 C 
BRANCH  24  26
ATOM     25  O   UNL     1      32.271 -23.516 -12.985  0.00  0.00    -0.250 OA
ATOM     26  C   UNL     1      32.105 -24.175 -14.003  0.00  0.00    +0.319 C 
BRANCH  26  27
ATOM     27  O   UNL     1      31.389 -25.333 -14.098  0.00  0.00    -0.444 OA
ATOM     28  C   UNL     1      30.089 -25.303 -13.499  0.00  0.00    +0.256 C 
ENDBRANCH  26  27
ENDBRANCH  24  26
BRANCH  24  29
ATOM     29  C   UNL     1      33.689 -22.656 -15.225  0.00  0.00    +0.039 C 
BRANCH  29  30
ATOM     30  C   UNL     1      35.127 -23.120 -15.271  0.00  0.00    -0.021 C 
ATOM     31  C   UNL     1      35.523 -24.239 -14.539  0.00  0.00    -0.002 C 
ATOM     32  C   UNL     1      36.058 -22.428 -16.045  0.00  0.00    -0.004 C 
ATOM     33  C   UNL     1      36.850 -24.666 -14.580  0.00  0.00    +0.030 C 
ATOM     34  C   UNL     1      37.386 -22.855 -16.087  0.00  0.00    -0.000 C 
ATOM     35  C   UNL     1      37.782 -23.974 -15.355  0.00  0.00    +0.003 C 
BRANCH  33  38
ATOM     36  N   UNL     1      38.606 -26.195 -13.717  0.00  0.00    -0.343 N 
ATOM     37  N   UNL     1      36.358 -26.571 -13.200  0.00  0.00    -0.285 NA
ATOM     38  C   UNL     1      37.264 -25.832 -13.816  0.00  0.00    +0.117 C 
ATOM     39  H   UNL     1      38.864 -26.989 -13.195  0.00  0.00    +0.144 HD
ATOM     40  H   UNL     1      39.296 -25.660 -14.172  0.00  0.00    +0.144 HD
ATOM     41  H   UNL     1      36.636 -27.360 -12.682  0.00  0.00    +0.188 HD
ENDBRANCH  33  38
ENDBRANCH  29  30
ENDBRANCH  24  29
ENDBRANCH  22  24
ENDBRANCH   2  22
TORSDOF 11
ENDMDL
MODEL 4
REMARK VINA RESULT:     -10.9      4.154     10.963
REMARK  Name = 5497056
REMARK  11 active torsions:
REMARK  status: ('A' for Active; 'I' for Inactive)
REMARK    1  A    between atoms: N_2  and  C_22
REMARK    2  A    between atoms: C_3  and  C_5
REMARK    3  A    between atoms: C_8  and  C_11
REMARK    4  A    between atoms: C_13  and  C_17
REMARK    5  A    between atoms: C_17  and  N_18
REMARK    6  A    between atoms: C_22  and  C_24
REMARK    7  A    between atoms: C_24  and  C_26
REMARK    8  A    between atoms: C_24  and  C_29
REMARK    9  A    between atoms: C_26  and  O_27
REMARK   10  A    between atoms: C_29  and  C_30
REMARK   11  A    between atoms: C_33  and  C_38
REMARK                            x       y       z     vdW  Elec       q    Type
REMARK                         _______ _______ _______ _____ _____    ______ ____
ROOT
ATOM      1  O   UNL     1      36.368 -21.601 -20.240  0.00  0.00    -0.270 OA
ATOM      2  N   UNL     1      34.701 -20.140 -20.920  0.00  0.00    -0.302 N 
ATOM      3  C   UNL     1      35.230 -21.152 -20.134  0.00  0.00    +0.246 C 
ATOM      4  H   UNL     1      33.774 -19.849 -20.757  0.00  0.00    +0.150 HD
ENDROOT
BRANCH   3   5
ATOM      5  C   UNL     1      34.314 -21.730 -19.117  0.00  0.00    +0.053 C 
ATOM      6  C   UNL     1      34.834 -22.421 -18.023  0.00  0.00    +0.005 C 
ATOM      7  C   UNL     1      32.934 -21.581 -19.256  0.00  0.00    +0.005 C 
ATOM      8  C   UNL     1      32.595 -22.814 -17.206  0.00  0.00    -0.000 C 
ATOM      9  C   UNL     1      33.974 -22.963 -17.068  0.00  0.00    +0.000 C 
ATOM     10  C   UNL     1      32.074 -22.123 -18.301  0.00  0.00    +0.000 C 
BRANCH   8  11
ATOM     11  C   UNL     1      31.704 -23.377 -16.214  0.00  0.00    -0.000 C 
ATOM     12  C   UNL     1      30.330 -23.417 -16.452  0.00  0.00    -0.006 C 
ATOM     13  C   UNL     1      29.473 -23.959 -15.495  0.00  0.00    -0.044 C 
ATOM     14  C   UNL     1      32.220 -23.879 -15.020  0.00  0.00    -0.000 C 
ATOM     15  C   UNL     1      29.989 -24.460 -14.300  0.00  0.00    -0.006 C 
ATOM     16  C   UNL     1      31.363 -24.421 -14.063  0.00  0.00    -0.000 C 
BRANCH  13  17
ATOM     17  C   UNL     1      28.004 -24.003 -15.750  0.00  0.00    -0.059 C 
BRANCH  17  18
ATOM     18  N   UNL     1      27.405 -22.668 -15.797  0.00  0.00    +0.383 N 
ATOM     19  H   UNL     1      26.691 -22.590 -15.073  0.00  0.00    -0.089 HD
ATOM     20  H   UNL     1      26.981 -22.517 -16.712  0.00  0.00    -0.089 HD
ATOM     21  H   UNL     1      28.129 -21.966 -15.638  0.00  0.00    -0.089 HD
ENDBRANCH  17  18
ENDBRANCH  13  17
ENDBRANCH   8  11
ENDBRANCH   3   5
BRANCH   2  22
ATOM     22  C   UNL     1      35.458 -19.496 -21.968  0.00  0.00    +0.083 C 
ATOM     23  C   UNL     1      36.720 -18.860 -21.388  0.00  0.00    +0.022 C 
BRANCH  22  24
ATOM     24  C   UNL     1      34.612 -18.489 -22.778  0.00  0.00    +0.121 C 
BRANCH  24  26
ATOM     25  O   UNL     1      34.599 -20.051 -24.649  0.00  0.00    -0.250 OA
ATOM     26  C   UNL     1      34.067 -19.122 -24.054  0.00  0.00    +0.319 C 
BRANCH  26  27
ATOM     27  O   UNL     1      32.911 -18.497 -24.421  0.00  0.00    -0.444 OA
ATOM     28  C   UNL     1      32.777 -18.219 -25.819  0.00  0.00    +0.256 C 
ENDBRANCH  26  27
ENDBRANCH  24  26
BRANCH  24  29
ATOM     29  C   UNL     1      35.405 -17.212 -23.123  0.00  0.00    +0.039 C 
BRANCH  29  30
ATOM     30  C   UNL     1      34.714 -15.950 -22.661  0.00  0.00    -0.021 C 
ATOM     31  C   UNL     1      34.161 -15.076 -23.597  0.00  0.00    -0.002 C 
ATOM     32  C   UNL     1      34.630 -15.658 -21.300  0.00  0.00    -0.004 C 
ATOM     33  C   UNL     1      33.524 -13.909 -23.171  0.00  0.00    +0.030 C 
ATOM     34  C   UNL     1      33.994 -14.492 -20.874  0.00  0.00    -0.000 C 
ATOM     35  C   UNL     1      33.441 -13.618 -21.809  0.00  0.00    +0.003 C 
BRANCH  33  38
ATOM     36  N   UNL     1      32.927 -11.620 -23.926  0.00  0.00    -0.343 N 
ATOM     37  N   UNL     1      32.432 -13.470 -25.266  0.00  0.00    -0.285 NA
ATOM     38  C   UNL     1      32.950 -12.997 -24.146  0.00  0.00    +0.117 C 
ATOM     39  H   UNL     1      32.532 -11.020 -24.599  0.00  0.00    +0.144 HD
ATOM     40  H   UNL     1      33.305 -11.248 -23.096  0.00  0.00    +0.144 HD
ATOM     41  H   UNL     1      32.042 -12.853 -25.926  0.00  0.00    +0.188 HD
ENDBRANCH  33  38
ENDBRANCH  29  30
ENDBRANCH  24  29
ENDBRANCH  22  24
ENDBRANCH   2  22
TORSDOF 11
ENDMDL
MODEL 5
REMARK VINA RESULT:     -10.8      6.285     13.083
REMARK  Name = 5497056
REMARK  11 active torsions:
REMARK  status: ('A' for Active; 'I' for Inactive)
REMARK    1  A    between atoms: N_2  and  C_22
REMARK    2  A    between atoms: C_3  and  C_5
REMARK    3  A    between atoms: C_8  and  C_11
REMARK    4  A    between atoms: C_13  and  C_17
REMARK    5  A    between atoms: C_17  and  N_18
REMARK    6  A    between atoms: C_22  and  C_24
REMARK    7  A    between atoms: C_24  and  C_26
REMARK    8  A    between atoms: C_24  and  C_29
REMARK    9  A    between atoms: C_26  and  O_27
REMARK   10  A    between atoms: C_29  and  C_30
REMARK   11  A    between atoms: C_33  and  C_38
REMARK                            x       y       z     vdW  Elec       q    Type
REMARK                         _______ _______ _______ _____ _____    ______ ____
ROOT
ATOM      1  O   UNL     1      33.388 -16.457 -26.780  0.00  0.00    -0.270 OA
ATOM      2  N   UNL     1      33.147 -14.715 -25.268  0.00  0.00    -0.302 N 
ATOM      3  C   UNL     1      33.455 -16.016 -25.636  0.00  0.00    +0.246 C 
ATOM      4  H   UNL     1      33.232 -14.457 -24.322  0.00  0.00    +0.150 HD
ENDROOT
BRANCH   3   5
ATOM      5  C   UNL     1      33.869 -16.920 -24.533  0.00  0.00    +0.053 C 
ATOM      6  C   UNL     1      33.621 -18.290 -24.624  0.00  0.00    +0.005 C 
ATOM      7  C   UNL     1      34.506 -16.401 -23.405  0.00  0.00    +0.005 C 
ATOM      8  C   UNL     1      34.647 -18.620 -22.461  0.00  0.00    -0.000 C 
ATOM      9  C   UNL     1      34.010 -19.140 -23.588  0.00  0.00    +0.000 C 
ATOM     10  C   UNL     1      34.895 -17.250 -22.370  0.00  0.00    +0.000 C 
BRANCH   8  11
ATOM     11  C   UNL     1      35.051 -19.503 -21.388  0.00  0.00    -0.000 C 
ATOM     12  C   UNL     1      34.132 -20.394 -20.836  0.00  0.00    -0.006 C 
ATOM     13  C   UNL     1      34.522 -21.245 -19.801  0.00  0.00    -0.044 C 
ATOM     14  C   UNL     1      36.360 -19.462 -20.908  0.00  0.00    -0.000 C 
ATOM     15  C   UNL     1      35.831 -21.204 -19.320  0.00  0.00    -0.006 C 
ATOM     16  C   UNL     1      36.750 -20.312 -19.874  0.00  0.00    -0.000 C 
BRANCH  13  17
ATOM     17  C   UNL     1      33.540 -22.199 -19.210  0.00  0.00    -0.059 C 
BRANCH  17  18
ATOM     18  N   UNL     1      32.223 -21.592 -19.010  0.00  0.00    +0.383 N 
ATOM     19  H   UNL     1      32.245 -20.622 -19.322  0.00  0.00    -0.089 HD
ATOM     20  H   UNL     1      31.980 -21.625 -18.020  0.00  0.00    -0.089 HD
ATOM     21  H   UNL     1      31.527 -22.108 -19.548  0.00  0.00    -0.089 HD
ENDBRANCH  17  18
ENDBRANCH  13  17
ENDBRANCH   8  11
ENDBRANCH   3   5
BRANCH   2  22
ATOM     22  C   UNL     1      32.705 -13.724 -26.222  0.00  0.00    +0.083 C 
ATOM     23  C   UNL     1      33.692 -13.638 -27.385  0.00  0.00    +0.022 C 
BRANCH  22  24
ATOM     24  C   UNL     1      32.444 -12.348 -25.570  0.00  0.00    +0.121 C 
BRANCH  24  26
ATOM     25  O   UNL     1      31.802 -11.023 -27.512  0.00  0.00    -0.250 OA
ATOM     26  C   UNL     1      32.578 -11.218 -26.586  0.00  0.00    +0.319 C 
BRANCH  26  27
ATOM     27  O   UNL     1      33.686 -10.474 -26.301  0.00  0.00    -0.444 OA
ATOM     28  C   UNL     1      33.486  -9.056 -26.282  0.00  0.00    +0.256 C 
ENDBRANCH  26  27
ENDBRANCH  24  26
BRANCH  24  29
ATOM     29  C   UNL     1      33.378 -12.089 -24.370  0.00  0.00    +0.039 C 
BRANCH  29  30
ATOM     30  C   UNL     1      32.626 -11.742 -23.106  0.00  0.00    -0.021 C 
ATOM     31  C   UNL     1      32.303 -10.414 -22.830  0.00  0.00    -0.002 C 
ATOM     32  C   UNL     1      32.258 -12.749 -22.215  0.00  0.00    -0.004 C 
ATOM     33  C   UNL     1      31.611 -10.092 -21.662  0.00  0.00    +0.030 C 
ATOM     34  C   UNL     1      31.566 -12.428 -21.047  0.00  0.00    -0.000 C 
ATOM     35  C   UNL     1      31.242 -11.100 -20.770  0.00  0.00    +0.003 C 
BRANCH  33  38
ATOM     36  N   UNL     1      30.868  -7.834 -22.380  0.00  0.00    -0.343 N 
ATOM     37  N   UNL     1      31.357  -8.256 -20.134  0.00  0.00    -0.285 NA
ATOM     38  C   UNL     1      31.275  -8.708 -21.373  0.00  0.00    +0.117 C 
ATOM     39  H   UNL     1      30.646  -6.900 -22.161  0.00  0.00    +0.144 HD
ATOM     40  H   UNL     1      30.804  -8.151 -23.310  0.00  0.00    +0.144 HD
ATOM     41  H   UNL     1      31.130  -7.319 -19.936  0.00  0.00    +0.188 HD
ENDBRANCH  33  38
ENDBRANCH  29  30
ENDBRANCH  24  29
ENDBRANCH  22  24
ENDBRANCH   2  22
TORSDOF 11
ENDMDL
MODEL 6
REMARK VINA RESULT:     -10.6      3.852     12.282
REMARK  Name = 5497056
REMARK  11 active torsions:
REMARK  status: ('A' for Active; 'I' for Inactive)
REMARK    1  A    between atoms: N_2  and  C_22
REMARK    2  A    between atoms: C_3  and  C_5
REMARK    3  A    between atoms: C_8  and  C_11
REMARK    4  A    between atoms: C_13  and  C_17
REMARK    5  A    between atoms: C_17  and  N_18
REMARK    6  A    between atoms: C_22  and  C_24
REMARK    7  A    between atoms: C_24  and  C_26
REMARK    8  A    between atoms: C_24  and  C_29
REMARK    9  A    between atoms: C_26  and  O_27
REMARK   10  A    between atoms: C_29  and  C_30
REMARK   11  A    between atoms: C_33  and  C_38
REMARK                            x       y       z     vdW  Elec       q    Type
REMARK                         _______ _______ _______ _____ _____    ______ ____
ROOT
ATOM      1  O   UNL     1      36.557 -18.591 -22.921  0.00  0.00    -0.270 OA
ATOM      2  N   UNL     1      34.410 -17.726 -22.790  0.00  0.00    -0.302 N 
ATOM      3  C   UNL     1      35.444 -18.566 -22.405  0.00  0.00    +0.246 C 
ATOM      4  H   UNL     1      33.550 -17.783 -22.313  0.00  0.00    +0.150 HD
ENDROOT
BRANCH   3   5
ATOM      5  C   UNL     1      35.135 -19.510 -21.301  0.00  0.00    +0.053 C 
ATOM      6  C   UNL     1      36.170 -20.070 -20.552  0.00  0.00    +0.005 C 
ATOM      7  C   UNL     1      33.809 -19.838 -21.012  0.00  0.00    +0.005 C 
ATOM      8  C   UNL     1      34.555 -21.284 -19.226  0.00  0.00    -0.000 C 
ATOM      9  C   UNL     1      35.880 -20.957 -19.515  0.00  0.00    +0.000 C 
ATOM     10  C   UNL     1      33.520 -20.724 -19.975  0.00  0.00    +0.000 C 
BRANCH   8  11
ATOM     11  C   UNL     1      34.256 -22.203 -18.149  0.00  0.00    -0.000 C 
ATOM     12  C   UNL     1      35.232 -22.508 -17.201  0.00  0.00    -0.006 C 
ATOM     13  C   UNL     1      34.942 -23.394 -16.164  0.00  0.00    -0.044 C 
ATOM     14  C   UNL     1      32.990 -22.783 -18.061  0.00  0.00    -0.000 C 
ATOM     15  C   UNL     1      33.677 -23.975 -16.075  0.00  0.00    -0.006 C 
ATOM     16  C   UNL     1      32.700 -23.669 -17.023  0.00  0.00    -0.000 C 
BRANCH  13  17
ATOM     17  C   UNL     1      35.985 -23.720 -15.149  0.00  0.00    -0.059 C 
BRANCH  17  18
ATOM     18  N   UNL     1      37.342 -23.545 -15.668  0.00  0.00    +0.383 N 
ATOM     19  H   UNL     1      37.298 -23.236 -16.639  0.00  0.00    -0.089 HD
ATOM     20  H   UNL     1      37.844 -24.431 -15.615  0.00  0.00    -0.089 HD
ATOM     21  H   UNL     1      37.831 -22.844 -15.109  0.00  0.00    -0.089 HD
ENDBRANCH  17  18
ENDBRANCH  13  17
ENDBRANCH   8  11
ENDBRANCH   3   5
BRANCH   2  22
ATOM     22  C   UNL     1      34.547 -16.770 -23.864  0.00  0.00    +0.083 C 
ATOM     23  C   UNL     1      34.591 -15.351 -23.302  0.00  0.00    +0.022 C 
BRANCH  22  24
ATOM     24  C   UNL     1      33.461 -16.938 -24.950  0.00  0.00    +0.121 C 
BRANCH  24  26
ATOM     25  O   UNL     1      32.048 -18.918 -24.799  0.00  0.00    -0.250 OA
ATOM     26  C   UNL     1      33.102 -18.407 -25.154  0.00  0.00    +0.319 C 
BRANCH  26  27
ATOM     27  O   UNL     1      34.130 -19.047 -25.783  0.00  0.00    -0.444 OA
ATOM     28  C   UNL     1      34.427 -20.361 -25.296  0.00  0.00    +0.256 C 
ENDBRANCH  26  27
ENDBRANCH  24  26
BRANCH  24  29
ATOM     29  C   UNL     1      33.884 -16.310 -26.294  0.00  0.00    +0.039 C 
BRANCH  29  30
ATOM     30  C   UNL     1      33.088 -15.072 -26.638  0.00  0.00    -0.021 C 
ATOM     31  C   UNL     1      33.424 -13.846 -26.067  0.00  0.00    -0.002 C 
ATOM     32  C   UNL     1      32.016 -15.158 -27.527  0.00  0.00    -0.004 C 
ATOM     33  C   UNL     1      32.688 -12.703 -26.383  0.00  0.00    +0.030 C 
ATOM     34  C   UNL     1      31.280 -14.016 -27.843  0.00  0.00    -0.000 C 
ATOM     35  C   UNL     1      31.615 -12.788 -27.272  0.00  0.00    +0.003 C 
BRANCH  33  38
ATOM     36  N   UNL     1      33.815 -11.350 -24.632  0.00  0.00    -0.343 N 
ATOM     37  N   UNL     1      32.610 -10.302 -26.338  0.00  0.00    -0.285 NA
ATOM     38  C   UNL     1      33.036 -11.424 -25.786  0.00  0.00    +0.117 C 
ATOM     39  H   UNL     1      34.038 -10.474 -24.244  0.00  0.00    +0.144 HD
ATOM     40  H   UNL     1      34.140 -12.176 -24.203  0.00  0.00    +0.144 HD
ATOM     41  H   UNL     1      32.845  -9.435 -25.935  0.00  0.00    +0.188 HD
ENDBRANCH  33  38
ENDBRANCH  29  30
ENDBRANCH  24  29
ENDBRANCH  22  24
ENDBRANCH   2  22
TORSDOF 11
ENDMDL
MODEL 7
REMARK VINA RESULT:     -10.6      7.737     14.449
REMARK  Name = 5497056
REMARK  11 active torsions:
REMARK  status: ('A' for Active; 'I' for Inactive)
REMARK    1  A    between atoms: N_2  and  C_22
REMARK    2  A    between atoms: C_3  and  C_5
REMARK    3  A    between atoms: C_8  and  C_11
REMARK    4  A    between atoms: C_13  and  C_17
REMARK    5  A    between atoms: C_17  and  N_18
REMARK    6  A    between atoms: C_22  and  C_24
REMARK    7  A    between atoms: C_24  and  C_26
REMARK    8  A    between atoms: C_24  and  C_29
REMARK    9  A    between atoms: C_26  and  O_27
REMARK   10  A    between atoms: C_29  and  C_30
REMARK   11  A    between atoms: C_33  and  C_38
REMARK                            x       y       z     vdW  Elec       q    Type
REMARK                         _______ _______ _______ _____ _____    ______ ____
ROOT
ATOM      1  O   UNL     1      33.110 -13.605 -25.380  0.00  0.00    -0.270 OA
ATOM      2  N   UNL     1      33.506 -12.396 -23.441  0.00  0.00    -0.302 N 
ATOM      3  C   UNL     1      33.469 -13.551 -24.207  0.00  0.00    +0.246 C 
ATOM      4  H   UNL     1      33.810 -12.457 -22.506  0.00  0.00    +0.150 HD
ENDROOT
BRANCH   3   5
ATOM      5  C   UNL     1      33.875 -14.801 -23.515  0.00  0.00    +0.053 C 
ATOM      6  C   UNL     1      34.233 -14.768 -22.167  0.00  0.00    +0.005 C 
ATOM      7  C   UNL     1      33.900 -16.009 -24.213  0.00  0.00    +0.005 C 
ATOM      8  C   UNL     1      34.638 -17.149 -22.215  0.00  0.00    -0.000 C 
ATOM      9  C   UNL     1      34.615 -15.942 -21.517  0.00  0.00    +0.000 C 
ATOM     10  C   UNL     1      34.281 -17.183 -23.563  0.00  0.00    +0.000 C 
BRANCH   8  11
ATOM     11  C   UNL     1      35.033 -18.366 -21.539  0.00  0.00    -0.000 C 
ATOM     12  C   UNL     1      34.064 -19.211 -21.000  0.00  0.00    -0.006 C 
ATOM     13  C   UNL     1      34.445 -20.384 -20.349  0.00  0.00    -0.044 C 
ATOM     14  C   UNL     1      36.385 -18.693 -21.427  0.00  0.00    -0.000 C 
ATOM     15  C   UNL     1      35.797 -20.711 -20.236  0.00  0.00    -0.006 C 
ATOM     16  C   UNL     1      36.767 -19.866 -20.776  0.00  0.00    -0.000 C 
BRANCH  13  17
ATOM     17  C   UNL     1      33.409 -21.289 -19.774  0.00  0.00    -0.059 C 
BRANCH  17  18
ATOM     18  N   UNL     1      32.069 -20.702 -19.818  0.00  0.00    +0.383 N 
ATOM     19  H   UNL     1      31.557 -21.082 -20.614  0.00  0.00    -0.089 HD
ATOM     20  H   UNL     1      32.144 -19.689 -19.914  0.00  0.00    -0.089 HD
ATOM     21  H   UNL     1      31.572 -20.925 -18.955  0.00  0.00    -0.089 HD
ENDBRANCH  17  18
ENDBRANCH  13  17
ENDBRANCH   8  11
ENDBRANCH   3   5
BRANCH   2  22
ATOM     22  C   UNL     1      33.117 -11.107 -23.963  0.00  0.00    +0.083 C 
ATOM     23  C   UNL     1      34.276 -10.483 -24.739  0.00  0.00    +0.022 C 
BRANCH  22  24
ATOM     24  C   UNL     1      32.568 -10.164 -22.869  0.00  0.00    +0.121 C 
BRANCH  24  26
ATOM     25  O   UNL     1      30.336 -10.829 -22.150  0.00  0.00    -0.250 OA
ATOM     26  C   UNL     1      31.549 -10.875 -21.985  0.00  0.00    +0.319 C 
BRANCH  26  27
ATOM     27  O   UNL     1      32.195 -11.559 -20.997  0.00  0.00    -0.444 OA
ATOM     28  C   UNL     1      31.549 -12.756 -20.552  0.00  0.00    +0.256 C 
ENDBRANCH  26  27
ENDBRANCH  24  26
BRANCH  24  29
ATOM     29  C   UNL     1      31.945  -8.886 -23.466  0.00  0.00    +0.039 C 
BRANCH  29  30
ATOM     30  C   UNL     1      31.837  -7.762 -22.461  0.00  0.00    -0.021 C 
ATOM     31  C   UNL     1      30.898  -6.749 -22.647  0.00  0.00    -0.002 C 
ATOM     32  C   UNL     1      32.678  -7.739 -21.349  0.00  0.00    -0.004 C 
ATOM     33  C   UNL     1      30.799  -5.710 -21.721  0.00  0.00    +0.030 C 
ATOM     34  C   UNL     1      32.579  -6.700 -20.422  0.00  0.00    -0.000 C 
ATOM     35  C   UNL     1      31.640  -5.686 -20.607  0.00  0.00    +0.003 C 
BRANCH  33  38
ATOM     36  N   UNL     1      29.931  -3.748 -22.970  0.00  0.00    -0.343 N 
ATOM     37  N   UNL     1      28.805  -4.533 -21.079  0.00  0.00    -0.285 NA
ATOM     38  C   UNL     1      29.821  -4.652 -21.915  0.00  0.00    +0.117 C 
ATOM     39  H   UNL     1      29.258  -3.038 -23.083  0.00  0.00    +0.144 HD
ATOM     40  H   UNL     1      30.683  -3.818 -23.603  0.00  0.00    +0.144 HD
ATOM     41  H   UNL     1      28.142  -3.817 -21.209  0.00  0.00    +0.188 HD
ENDBRANCH  33  38
ENDBRANCH  29  30
ENDBRANCH  24  29
ENDBRANCH  22  24
ENDBRANCH   2  22
TORSDOF 11
ENDMDL
MODEL 8
REMARK VINA RESULT:     -10.4      7.332     14.111
REMARK  Name = 5497056
REMARK  11 active torsions:
REMARK  status: ('A' for Active; 'I' for Inactive)
REMARK    1  A    between atoms: N_2  and  C_22
REMARK    2  A    between atoms: C_3  and  C_5
REMARK    3  A    between atoms: C_8  and  C_11
REMARK    4  A    between atoms: C_13  and  C_17
REMARK    5  A    between atoms: C_17  and  N_18
REMARK    6  A    between atoms: C_22  and  C_24
REMARK    7  A    between atoms: C_24  and  C_26
REMARK    8  A    between atoms: C_24  and  C_29
REMARK    9  A    between atoms: C_26  and  O_27
REMARK   10  A    between atoms: C_29  and  C_30
REMARK   11  A    between atoms: C_33  and  C_38
REMARK                            x       y       z     vdW  Elec       q    Type
REMARK                         _______ _______ _______ _____ _____    ______ ____
ROOT
ATOM      1  O   UNL     1      33.394 -13.947 -25.469  0.00  0.00    -0.270 OA
ATOM      2  N   UNL     1      33.897 -12.666 -23.602  0.00  0.00    -0.302 N 
ATOM      3  C   UNL     1      33.760 -13.856 -24.300  0.00  0.00    +0.246 C 
ATOM      4  H   UNL     1      34.197 -12.699 -22.664  0.00  0.00    +0.150 HD
ENDROOT
BRANCH   3   5
ATOM      5  C   UNL     1      34.062 -15.094 -23.537  0.00  0.00    +0.053 C 
ATOM      6  C   UNL     1      33.995 -16.336 -24.168  0.00  0.00    +0.005 C 
ATOM      7  C   UNL     1      34.413 -15.015 -22.189  0.00  0.00    +0.005 C 
ATOM      8  C   UNL     1      34.631 -17.420 -22.103  0.00  0.00    -0.000 C 
ATOM      9  C   UNL     1      34.279 -17.499 -23.451  0.00  0.00    +0.000 C 
ATOM     10  C   UNL     1      34.697 -16.177 -21.472  0.00  0.00    +0.000 C 
BRANCH   8  11
ATOM     11  C   UNL     1      34.926 -18.626 -21.361  0.00  0.00    -0.000 C 
ATOM     12  C   UNL     1      33.887 -19.441 -20.912  0.00  0.00    -0.006 C 
ATOM     13  C   UNL     1      34.173 -20.604 -20.197  0.00  0.00    -0.044 C 
ATOM     14  C   UNL     1      36.250 -18.974 -21.096  0.00  0.00    -0.000 C 
ATOM     15  C   UNL     1      35.497 -20.952 -19.931  0.00  0.00    -0.006 C 
ATOM     16  C   UNL     1      36.536 -20.137 -20.381  0.00  0.00    -0.000 C 
BRANCH  13  17
ATOM     17  C   UNL     1      33.062 -21.476 -19.717  0.00  0.00    -0.059 C 
BRANCH  17  18
ATOM     18  N   UNL     1      33.504 -22.436 -18.704  0.00  0.00    +0.383 N 
ATOM     19  H   UNL     1      33.658 -21.950 -17.820  0.00  0.00    -0.089 HD
ATOM     20  H   UNL     1      34.374 -22.874 -19.007  0.00  0.00    -0.089 HD
ATOM     21  H   UNL     1      32.788 -23.151 -18.579  0.00  0.00    -0.089 HD
ENDBRANCH  17  18
ENDBRANCH  13  17
ENDBRANCH   8  11
ENDBRANCH   3   5
BRANCH   2  22
ATOM     22  C   UNL     1      33.616 -11.381 -24.198  0.00  0.00    +0.083 C 
ATOM     23  C   UNL     1      34.914 -10.717 -24.652  0.00  0.00    +0.022 C 
BRANCH  22  24
ATOM     24  C   UNL     1      32.781 -10.467 -23.274  0.00  0.00    +0.121 C 
BRANCH  24  26
ATOM     25  O   UNL     1      31.257 -12.289 -22.728  0.00  0.00    -0.250 OA
ATOM     26  C   UNL     1      31.858 -11.283 -22.374  0.00  0.00    +0.319 C 
BRANCH  26  27
ATOM     27  O   UNL     1      31.810 -10.718 -21.133  0.00  0.00    -0.444 OA
ATOM     28  C   UNL     1      30.506 -10.625 -20.549  0.00  0.00    +0.256 C 
ENDBRANCH  26  27
ENDBRANCH  24  26
BRANCH  24  29
ATOM     29  C   UNL     1      31.959  -9.434 -24.070  0.00  0.00    +0.039 C 
BRANCH  29  30
ATOM     30  C   UNL     1      32.085  -8.033 -23.517  0.00  0.00    -0.021 C 
ATOM     31  C   UNL     1      32.322  -7.839 -22.157  0.00  0.00    -0.002 C 
ATOM     32  C   UNL     1      31.962  -6.934 -24.367  0.00  0.00    -0.004 C 
ATOM     33  C   UNL     1      32.436  -6.546 -21.645  0.00  0.00    +0.030 C 
ATOM     34  C   UNL     1      32.076  -5.640 -23.855  0.00  0.00    -0.000 C 
ATOM     35  C   UNL     1      32.313  -5.446 -22.495  0.00  0.00    +0.003 C 
BRANCH  33  38
ATOM     36  N   UNL     1      32.391  -5.130 -19.606  0.00  0.00    -0.343 N 
ATOM     37  N   UNL     1      33.194  -7.322 -19.500  0.00  0.00    -0.285 NA
ATOM     38  C   UNL     1      32.682  -6.344 -20.226  0.00  0.00    +0.117 C 
ATOM     39  H   UNL     1      32.567  -5.014 -18.644  0.00  0.00    +0.144 HD
ATOM     40  H   UNL     1      32.013  -4.387 -20.130  0.00  0.00    +0.144 HD
ATOM     41  H   UNL     1      33.361  -7.187 -18.540  0.00  0.00    +0.188 HD
ENDBRANCH  33  38
ENDBRANCH  29  30
ENDBRANCH  24  29
ENDBRANCH  22  24
ENDBRANCH   2  22
TORSDOF 11
ENDMDL
MODEL 9
REMARK VINA RESULT:     -10.4      8.226     14.627
REMARK  Name = 5497056
REMARK  11 active torsions:
REMARK  status: ('A' for Active; 'I' for Inactive)
REMARK    1  A    between atoms: N_2  and  C_22
REMARK    2  A    between atoms: C_3  and  C_5
REMARK    3  A    between atoms: C_8  and  C_11
REMARK    4  A    between atoms: C_13  and  C_17
REMARK    5  A    between atoms: C_17  and  N_18
REMARK    6  A    between atoms: C_22  and  C_24
REMARK    7  A    between atoms: C_24  and  C_26
REMARK    8  A    between atoms: C_24  and  C_29
REMARK    9  A    between atoms: C_26  and  O_27
REMARK   10  A    between atoms: C_29  and  C_30
REMARK   11  A    between atoms: C_33  and  C_38
REMARK                            x       y       z     vdW  Elec       q    Type
REMARK                         _______ _______ _______ _____ _____    ______ ____
ROOT
ATOM      1  O   UNL     1      31.914 -11.405 -27.173  0.00  0.00    -0.270 OA
ATOM      2  N   UNL     1      33.631 -10.524 -25.887  0.00  0.00    -0.302 N 
ATOM      3  C   UNL     1      32.836 -11.550 -26.375  0.00  0.00    +0.246 C 
ATOM      4  H   UNL     1      34.348 -10.743 -25.248  0.00  0.00    +0.150 HD
ENDROOT
BRANCH   3   5
ATOM      5  C   UNL     1      33.136 -12.907 -25.852  0.00  0.00    +0.053 C 
ATOM      6  C   UNL     1      33.121 -14.005 -26.712  0.00  0.00    +0.005 C 
ATOM      7  C   UNL     1      33.433 -13.084 -24.500  0.00  0.00    +0.005 C 
ATOM      8  C   UNL     1      33.700 -15.457 -24.869  0.00  0.00    -0.000 C 
ATOM      9  C   UNL     1      33.403 -15.280 -26.220  0.00  0.00    +0.000 C 
ATOM     10  C   UNL     1      33.715 -14.359 -24.009  0.00  0.00    +0.000 C 
BRANCH   8  11
ATOM     11  C   UNL     1      33.994 -16.780 -24.361  0.00  0.00    -0.000 C 
ATOM     12  C   UNL     1      34.577 -16.931 -23.103  0.00  0.00    -0.006 C 
ATOM     13  C   UNL     1      34.859 -18.206 -22.614  0.00  0.00    -0.044 C 
ATOM     14  C   UNL     1      33.692 -17.904 -25.130  0.00  0.00    -0.000 C 
ATOM     15  C   UNL     1      34.558 -19.330 -23.383  0.00  0.00    -0.006 C 
ATOM     16  C   UNL     1      33.974 -19.179 -24.641  0.00  0.00    -0.000 C 
BRANCH  13  17
ATOM     17  C   UNL     1      35.482 -18.368 -21.269  0.00  0.00    -0.059 C 
BRANCH  17  18
ATOM     18  N   UNL     1      35.020 -19.574 -20.581  0.00  0.00    +0.383 N 
ATOM     19  H   UNL     1      35.631 -20.356 -20.817  0.00  0.00    -0.089 HD
ATOM     20  H   UNL     1      34.066 -19.788 -20.873  0.00  0.00    -0.089 HD
ATOM     21  H   UNL     1      35.039 -19.419 -19.573  0.00  0.00    -0.089 HD
ENDBRANCH  17  18
ENDBRANCH  13  17
ENDBRANCH   8  11
ENDBRANCH   3   5
BRANCH   2  22
ATOM     22  C   UNL     1      33.447  -9.147 -26.282  0.00  0.00    +0.083 C 
ATOM     23  C   UNL     1      34.803  -8.471 -26.477  0.00  0.00    +0.022 C 
BRANCH  22  24
ATOM     24  C   UNL     1      32.537  -8.367 -25.307  0.00  0.00    +0.121 C 
BRANCH  24  26
ATOM     25  O   UNL     1      31.481  -6.188 -25.584  0.00  0.00    -0.250 OA
ATOM     26  C   UNL     1      31.729  -7.298 -26.036  0.00  0.00    +0.319 C 
BRANCH  26  27
ATOM     27  O   UNL     1      31.332  -7.773 -27.252  0.00  0.00    -0.444 OA
ATOM     28  C   UNL     1      31.002  -6.776 -28.225  0.00  0.00    +0.256 C 
ENDBRANCH  26  27
ENDBRANCH  24  26
BRANCH  24  29
ATOM     29  C   UNL     1      33.338  -7.725 -24.156  0.00  0.00    +0.039 C 
BRANCH  29  30
ATOM     30  C   UNL     1      32.895  -8.206 -22.793  0.00  0.00    -0.021 C 
ATOM     31  C   UNL     1      32.241  -9.431 -22.666  0.00  0.00    -0.002 C 
ATOM     32  C   UNL     1      33.139  -7.425 -21.664  0.00  0.00    -0.004 C 
ATOM     33  C   UNL     1      31.830  -9.875 -21.408  0.00  0.00    +0.030 C 
ATOM     34  C   UNL     1      32.728  -7.868 -20.407  0.00  0.00    -0.000 C 
ATOM     35  C   UNL     1      32.074  -9.093 -20.278  0.00  0.00    +0.003 C 
BRANCH  33  38
ATOM     36  N   UNL     1      31.837 -12.358 -21.371  0.00  0.00    -0.343 N 
ATOM     37  N   UNL     1      29.843 -11.180 -21.060  0.00  0.00    -0.285 NA
ATOM     38  C   UNL     1      31.146 -11.151 -21.275  0.00  0.00    +0.117 C 
ATOM     39  H   UNL     1      31.354 -13.211 -21.278  0.00  0.00    +0.144 HD
ATOM     40  H   UNL     1      32.809 -12.357 -21.534  0.00  0.00    +0.144 HD
ATOM     41  H   UNL     1      29.378 -12.043 -20.970  0.00  0.00    +0.188 HD
ENDBRANCH  33  38
ENDBRANCH  29  30
ENDBRANCH  24  29
ENDBRANCH  22  24
ENDBRANCH   2  22
TORSDOF 11
ENDMDL
