MODEL 1
REMARK VINA RESULT:     -11.9      0.000      0.000
REMARK  Name = 5289109
REMARK  6 active torsions:
REMARK  status: ('A' for Active; 'I' for Inactive)
REMARK    1  A    between atoms: C_3  and  C_9
REMARK    2  A    between atoms: C_4  and  C_21
REMARK    3  A    between atoms: N_8  and  C_11
REMARK    4  A    between atoms: C_11  and  C_12
REMARK    5  A    between atoms: N_20  and  C_23
REMARK    6  A    between atoms: C_23  and  C_24
REMARK                            x       y       z     vdW  Elec       q    Type
REMARK                         _______ _______ _______ _____ _____    ______ ____
ROOT
ATOM      1  N   UNL     1      36.476 -19.072 -20.794  0.00  0.00    -0.244 NA
ATOM      2  N   UNL     1      35.652 -20.967 -19.555  0.00  0.00    -0.244 NA
ATOM      3  C   UNL     1      35.214 -18.844 -21.213  0.00  0.00    +0.115 C 
ATOM      4  C   UNL     1      34.440 -20.662 -20.022  0.00  0.00    +0.115 C 
ATOM      5  C   UNL     1      34.133 -19.624 -20.851  0.00  0.00    +0.100 C 
ATOM      6  C   UNL     1      36.621 -20.134 -19.979  0.00  0.00    +0.250 C 
ENDROOT
BRANCH   3   9
ATOM      7  O   UNL     1      34.867 -16.562 -21.625  0.00  0.00    -0.269 OA
ATOM      8  N   UNL     1      35.085 -17.948 -23.471  0.00  0.00    -0.296 N 
ATOM      9  C   UNL     1      35.035 -17.702 -22.093  0.00  0.00    +0.260 C 
ATOM     10  H   UNL     1      35.220 -18.874 -23.775  0.00  0.00    +0.150 HD
BRANCH   8  11
ATOM     11  C   UNL     1      34.948 -16.915 -24.473  0.00  0.00    +0.117 C 
BRANCH  11  12
ATOM     12  C   UNL     1      33.743 -17.130 -25.342  0.00  0.00    -0.003 C 
ATOM     13  C   UNL     1      33.272 -16.090 -26.133  0.00  0.00    -0.007 C 
ATOM     14  C   UNL     1      32.153 -16.291 -26.942  0.00  0.00    -0.022 C 
ATOM     15  C   UNL     1      33.110 -18.368 -25.345  0.00  0.00    -0.003 C 
ATOM     16  C   UNL     1      31.512 -17.530 -26.952  0.00  0.00    -0.004 C 
ATOM     17  C   UNL     1      31.991 -18.569 -26.153  0.00  0.00    -0.001 C 
ATOM     18  C   UNL     1      31.640 -15.180 -27.795  0.00  0.00    +0.031 C 
ENDBRANCH  11  12
ENDBRANCH   8  11
ENDBRANCH   3   9
BRANCH   4  21
ATOM     19  O   UNL     1      32.295 -21.596 -20.185  0.00  0.00    -0.269 OA
ATOM     20  N   UNL     1      33.646 -22.356 -18.460  0.00  0.00    -0.296 N 
ATOM     21  C   UNL     1      33.356 -21.570 -19.567  0.00  0.00    +0.260 C 
ATOM     22  H   UNL     1      34.527 -22.263 -18.031  0.00  0.00    +0.150 HD
BRANCH  20  23
ATOM     23  C   UNL     1      32.707 -23.304 -17.915  0.00  0.00    +0.117 C 
BRANCH  23  24
ATOM     24  C   UNL     1      32.874 -23.484 -16.444  0.00  0.00    -0.003 C 
ATOM     25  C   UNL     1      31.753 -23.516 -15.614  0.00  0.00    -0.007 C 
ATOM     26  C   UNL     1      31.909 -23.685 -14.237  0.00  0.00    -0.022 C 
ATOM     27  C   UNL     1      34.150 -23.621 -15.897  0.00  0.00    -0.003 C 
ATOM     28  C   UNL     1      33.185 -23.823 -13.692  0.00  0.00    -0.004 C 
ATOM     29  C   UNL     1      34.306 -23.791 -14.522  0.00  0.00    -0.001 C 
ATOM     30  C   UNL     1      30.711 -23.719 -13.350  0.00  0.00    +0.031 C 
ENDBRANCH  23  24
ENDBRANCH  20  23
ENDBRANCH   4  21
TORSDOF 6
ENDMDL
MODEL 2
REMARK VINA RESULT:     -11.8      0.067     10.349
REMARK  Name = 5289109
REMARK  6 active torsions:
REMARK  status: ('A' for Active; 'I' for Inactive)
REMARK    1  A    between atoms: C_3  and  C_9
REMARK    2  A    between atoms: C_4  and  C_21
REMARK    3  A    between atoms: N_8  and  C_11
REMARK    4  A    between atoms: C_11  and  C_12
REMARK    5  A    between atoms: N_20  and  C_23
REMARK    6  A    between atoms: C_23  and  C_24
REMARK                            x       y       z     vdW  Elec       q    Type
REMARK                         _______ _______ _______ _____ _____    ______ ____
ROOT
ATOM      1  N   UNL     1      35.667 -20.963 -19.619  0.00  0.00    -0.244 NA
ATOM      2  N   UNL     1      36.480 -19.049 -20.837  0.00  0.00    -0.244 NA
ATOM      3  C   UNL     1      34.424 -20.663 -20.051  0.00  0.00    +0.115 C 
ATOM      4  C   UNL     1      35.217 -18.834 -21.212  0.00  0.00    +0.115 C 
ATOM      5  C   UNL     1      34.134 -19.587 -20.866  0.00  0.00    +0.100 C 
ATOM      6  C   UNL     1      36.633 -20.126 -20.045  0.00  0.00    +0.250 C 
ENDROOT
BRANCH   3   9
ATOM      7  O   UNL     1      32.292 -21.623 -20.227  0.00  0.00    -0.269 OA
ATOM      8  N   UNL     1      33.628 -22.331 -18.468  0.00  0.00    -0.296 N 
ATOM      9  C   UNL     1      33.367 -21.553 -19.604  0.00  0.00    +0.260 C 
ATOM     10  H   UNL     1      34.499 -22.227 -18.022  0.00  0.00    +0.150 HD
BRANCH   8  11
ATOM     11  C   UNL     1      32.688 -23.279 -17.915  0.00  0.00    +0.117 C 
BRANCH  11  12
ATOM     12  C   UNL     1      32.870 -23.453 -16.435  0.00  0.00    -0.003 C 
ATOM     13  C   UNL     1      31.756 -23.497 -15.606  0.00  0.00    -0.007 C 
ATOM     14  C   UNL     1      31.925 -23.662 -14.231  0.00  0.00    -0.022 C 
ATOM     15  C   UNL     1      34.152 -23.568 -15.909  0.00  0.00    -0.003 C 
ATOM     16  C   UNL     1      33.208 -23.778 -13.695  0.00  0.00    -0.004 C 
ATOM     17  C   UNL     1      34.321 -23.732 -14.535  0.00  0.00    -0.001 C 
ATOM     18  C   UNL     1      30.735 -23.709 -13.333  0.00  0.00    +0.031 C 
ENDBRANCH  11  12
ENDBRANCH   8  11
ENDBRANCH   3   9
BRANCH   4  21
ATOM     19  O   UNL     1      34.856 -16.545 -21.575  0.00  0.00    -0.269 OA
ATOM     20  N   UNL     1      35.079 -17.887 -23.454  0.00  0.00    -0.296 N 
ATOM     21  C   UNL     1      35.026 -17.649 -22.087  0.00  0.00    +0.260 C 
ATOM     22  H   UNL     1      35.220 -18.809 -23.768  0.00  0.00    +0.150 HD
BRANCH  20  23
ATOM     23  C   UNL     1      34.937 -16.837 -24.430  0.00  0.00    +0.117 C 
BRANCH  23  24
ATOM     24  C   UNL     1      33.762 -17.049 -25.324  0.00  0.00    -0.003 C 
ATOM     25  C   UNL     1      33.274 -15.995 -26.096  0.00  0.00    -0.007 C 
ATOM     26  C   UNL     1      32.175 -16.194 -26.934  0.00  0.00    -0.022 C 
ATOM     27  C   UNL     1      33.151 -18.301 -25.388  0.00  0.00    -0.003 C 
ATOM     28  C   UNL     1      31.565 -17.446 -26.997  0.00  0.00    -0.004 C 
ATOM     29  C   UNL     1      32.053 -18.500 -26.224  0.00  0.00    -0.001 C 
ATOM     30  C   UNL     1      31.653 -15.067 -27.759  0.00  0.00    +0.031 C 
ENDBRANCH  23  24
ENDBRANCH  20  23
ENDBRANCH   4  21
TORSDOF 6
ENDMDL
MODEL 3
REMARK VINA RESULT:     -11.7      4.159     10.982
REMARK  Name = 5289109
REMARK  6 active torsions:
REMARK  status: ('A' for Active; 'I' for Inactive)
REMARK    1  A    between atoms: C_3  and  C_9
REMARK    2  A    between atoms: C_4  and  C_21
REMARK    3  A    between atoms: N_8  and  C_11
REMARK    4  A    between atoms: C_11  and  C_12
REMARK    5  A    between atoms: N_20  and  C_23
REMARK    6  A    between atoms: C_23  and  C_24
REMARK                            x       y       z     vdW  Elec       q    Type
REMARK                         _______ _______ _______ _____ _____    ______ ____
ROOT
ATOM      1  N   UNL     1      33.723 -17.930 -25.016  0.00  0.00    -0.244 NA
ATOM      2  N   UNL     1      32.704 -16.555 -26.712  0.00  0.00    -0.244 NA
ATOM      3  C   UNL     1      34.108 -16.801 -24.385  0.00  0.00    +0.115 C 
ATOM      4  C   UNL     1      33.128 -15.498 -26.017  0.00  0.00    +0.115 C 
ATOM      5  C   UNL     1      33.833 -15.530 -24.851  0.00  0.00    +0.100 C 
ATOM      6  C   UNL     1      33.034 -17.736 -26.157  0.00  0.00    +0.250 C 
ENDROOT
BRANCH   3   9
ATOM      7  O   UNL     1      34.788 -16.143 -22.240  0.00  0.00    -0.269 OA
ATOM      8  N   UNL     1      35.614 -18.158 -23.039  0.00  0.00    -0.296 N 
ATOM      9  C   UNL     1      34.853 -16.987 -23.152  0.00  0.00    +0.260 C 
ATOM     10  H   UNL     1      35.622 -18.783 -23.799  0.00  0.00    +0.150 HD
BRANCH   8  11
ATOM     11  C   UNL     1      36.389 -18.497 -21.867  0.00  0.00    +0.117 C 
BRANCH  11  12
ATOM     12  C   UNL     1      35.710 -19.539 -21.027  0.00  0.00    -0.003 C 
ATOM     13  C   UNL     1      34.322 -19.593 -20.988  0.00  0.00    -0.007 C 
ATOM     14  C   UNL     1      33.691 -20.563 -20.209  0.00  0.00    -0.022 C 
ATOM     15  C   UNL     1      36.476 -20.440 -20.296  0.00  0.00    -0.003 C 
ATOM     16  C   UNL     1      34.452 -21.470 -19.472  0.00  0.00    -0.004 C 
ATOM     17  C   UNL     1      35.845 -21.409 -19.516  0.00  0.00    -0.001 C 
ATOM     18  C   UNL     1      32.201 -20.628 -20.160  0.00  0.00    +0.031 C 
ENDBRANCH  11  12
ENDBRANCH   8  11
ENDBRANCH   3   9
BRANCH   4  21
ATOM     19  O   UNL     1      32.229 -14.152 -27.714  0.00  0.00    -0.269 OA
ATOM     20  N   UNL     1      33.076 -13.067 -25.847  0.00  0.00    -0.296 N 
ATOM     21  C   UNL     1      32.774 -14.185 -26.614  0.00  0.00    +0.260 C 
ATOM     22  H   UNL     1      33.515 -13.196 -24.976  0.00  0.00    +0.150 HD
BRANCH  20  23
ATOM     23  C   UNL     1      32.772 -11.726 -26.278  0.00  0.00    +0.117 C 
BRANCH  23  24
ATOM     24  C   UNL     1      33.626 -10.707 -25.602  0.00  0.00    -0.003 C 
ATOM     25  C   UNL     1      33.069  -9.851 -24.652  0.00  0.00    -0.007 C 
ATOM     26  C   UNL     1      33.868  -8.897 -24.019  0.00  0.00    -0.022 C 
ATOM     27  C   UNL     1      34.980 -10.609 -25.920  0.00  0.00    -0.003 C 
ATOM     28  C   UNL     1      35.222  -8.801 -24.337  0.00  0.00    -0.004 C 
ATOM     29  C   UNL     1      35.779  -9.656 -25.287  0.00  0.00    -0.001 C 
ATOM     30  C   UNL     1      33.273  -7.982 -23.003  0.00  0.00    +0.031 C 
ENDBRANCH  23  24
ENDBRANCH  20  23
ENDBRANCH   4  21
TORSDOF 6
ENDMDL
MODEL 4
REMARK VINA RESULT:     -11.7      4.111      6.956
REMARK  Name = 5289109
REMARK  6 active torsions:
REMARK  status: ('A' for Active; 'I' for Inactive)
REMARK    1  A    between atoms: C_3  and  C_9
REMARK    2  A    between atoms: C_4  and  C_21
REMARK    3  A    between atoms: N_8  and  C_11
REMARK    4  A    between atoms: C_11  and  C_12
REMARK    5  A    between atoms: N_20  and  C_23
REMARK    6  A    between atoms: C_23  and  C_24
REMARK                            x       y       z     vdW  Elec       q    Type
REMARK                         _______ _______ _______ _____ _____    ______ ____
ROOT
ATOM      1  N   UNL     1      32.813 -16.672 -26.709  0.00  0.00    -0.244 NA
ATOM      2  N   UNL     1      33.831 -18.035 -25.003  0.00  0.00    -0.244 NA
ATOM      3  C   UNL     1      33.178 -15.582 -26.003  0.00  0.00    +0.115 C 
ATOM      4  C   UNL     1      34.149 -16.900 -24.378  0.00  0.00    +0.115 C 
ATOM      5  C   UNL     1      33.862 -15.637 -24.805  0.00  0.00    +0.100 C 
ATOM      6  C   UNL     1      33.167 -17.849 -26.159  0.00  0.00    +0.250 C 
ENDROOT
BRANCH   3   9
ATOM      7  O   UNL     1      32.215 -14.246 -27.672  0.00  0.00    -0.269 OA
ATOM      8  N   UNL     1      33.123 -13.154 -25.839  0.00  0.00    -0.296 N 
ATOM      9  C   UNL     1      32.806 -14.301 -26.579  0.00  0.00    +0.260 C 
ATOM     10  H   UNL     1      33.593 -13.268 -24.981  0.00  0.00    +0.150 HD
BRANCH   8  11
ATOM     11  C   UNL     1      32.798 -11.812 -26.266  0.00  0.00    +0.117 C 
BRANCH  11  12
ATOM     12  C   UNL     1      33.642 -10.782 -25.572  0.00  0.00    -0.003 C 
ATOM     13  C   UNL     1      33.084 -10.000 -24.568  0.00  0.00    -0.007 C 
ATOM     14  C   UNL     1      33.869  -9.045 -23.921  0.00  0.00    -0.022 C 
ATOM     15  C   UNL     1      34.973 -10.622 -25.940  0.00  0.00    -0.003 C 
ATOM     16  C   UNL     1      35.205  -8.877 -24.285  0.00  0.00    -0.004 C 
ATOM     17  C   UNL     1      35.757  -9.666 -25.294  0.00  0.00    -0.001 C 
ATOM     18  C   UNL     1      33.278  -8.200 -22.843  0.00  0.00    +0.031 C 
ENDBRANCH  11  12
ENDBRANCH   8  11
ENDBRANCH   3   9
BRANCH   4  21
ATOM     19  O   UNL     1      34.732 -16.262 -22.198  0.00  0.00    -0.269 OA
ATOM     20  N   UNL     1      35.684 -18.213 -23.014  0.00  0.00    -0.296 N 
ATOM     21  C   UNL     1      34.882 -17.083 -23.099  0.00  0.00    +0.260 C 
ATOM     22  H   UNL     1      35.739 -18.813 -23.793  0.00  0.00    +0.150 HD
BRANCH  20  23
ATOM     23  C   UNL     1      36.438 -18.542 -21.831  0.00  0.00    +0.117 C 
BRANCH  23  24
ATOM     24  C   UNL     1      35.755 -19.569 -20.992  0.00  0.00    -0.003 C 
ATOM     25  C   UNL     1      34.363 -19.652 -20.987  0.00  0.00    -0.007 C 
ATOM     26  C   UNL     1      33.724 -20.613 -20.202  0.00  0.00    -0.022 C 
ATOM     27  C   UNL     1      36.508 -20.446 -20.212  0.00  0.00    -0.003 C 
ATOM     28  C   UNL     1      34.478 -21.490 -19.423  0.00  0.00    -0.004 C 
ATOM     29  C   UNL     1      35.870 -21.407 -19.428  0.00  0.00    -0.001 C 
ATOM     30  C   UNL     1      32.235 -20.702 -20.196  0.00  0.00    +0.031 C 
ENDBRANCH  23  24
ENDBRANCH  20  23
ENDBRANCH   4  21
TORSDOF 6
ENDMDL
MODEL 5
REMARK VINA RESULT:     -11.6      3.941      6.963
REMARK  Name = 5289109
REMARK  6 active torsions:
REMARK  status: ('A' for Active; 'I' for Inactive)
REMARK    1  A    between atoms: C_3  and  C_9
REMARK    2  A    between atoms: C_4  and  C_21
REMARK    3  A    between atoms: N_8  and  C_11
REMARK    4  A    between atoms: C_11  and  C_12
REMARK    5  A    between atoms: N_20  and  C_23
REMARK    6  A    between atoms: C_23  and  C_24
REMARK                            x       y       z     vdW  Elec       q    Type
REMARK                         _______ _______ _______ _____ _____    ______ ____
ROOT
ATOM      1  N   UNL     1      31.549 -16.337 -26.949  0.00  0.00    -0.244 NA
ATOM      2  N   UNL     1      32.062 -18.281 -25.621  0.00  0.00    -0.244 NA
ATOM      3  C   UNL     1      32.761 -15.842 -26.624  0.00  0.00    +0.115 C 
ATOM      4  C   UNL     1      33.238 -17.709 -25.356  0.00  0.00    +0.115 C 
ATOM      5  C   UNL     1      33.666 -16.497 -25.813  0.00  0.00    +0.100 C 
ATOM      6  C   UNL     1      31.269 -17.544 -26.421  0.00  0.00    +0.250 C 
ENDROOT
BRANCH   3   9
ATOM      7  O   UNL     1      33.926 -14.434 -28.094  0.00  0.00    -0.269 OA
ATOM      8  N   UNL     1      32.392 -13.437 -26.669  0.00  0.00    -0.296 N 
ATOM      9  C   UNL     1      33.084 -14.540 -27.184  0.00  0.00    +0.260 C 
ATOM     10  H   UNL     1      31.739 -13.591 -25.949  0.00  0.00    +0.150 HD
BRANCH   8  11
ATOM     11  C   UNL     1      32.583 -12.083 -27.138  0.00  0.00    +0.117 C 
BRANCH  11  12
ATOM     12  C   UNL     1      33.340 -11.247 -26.146  0.00  0.00    -0.003 C 
ATOM     13  C   UNL     1      32.704 -10.804 -24.994  0.00  0.00    -0.007 C 
ATOM     14  C   UNL     1      33.408 -10.029 -24.071  0.00  0.00    -0.022 C 
ATOM     15  C   UNL     1      34.671 -10.926 -26.392  0.00  0.00    -0.003 C 
ATOM     16  C   UNL     1      34.743  -9.702 -24.310  0.00  0.00    -0.004 C 
ATOM     17  C   UNL     1      35.374 -10.151 -25.470  0.00  0.00    -0.001 C 
ATOM     18  C   UNL     1      32.733  -9.548 -22.832  0.00  0.00    +0.031 C 
ENDBRANCH  11  12
ENDBRANCH   8  11
ENDBRANCH   3   9
BRANCH   4  21
ATOM     19  O   UNL     1      34.543 -19.594 -24.864  0.00  0.00    -0.269 OA
ATOM     20  N   UNL     1      34.446 -17.930 -23.251  0.00  0.00    -0.296 N 
ATOM     21  C   UNL     1      34.127 -18.506 -24.473  0.00  0.00    +0.260 C 
ATOM     22  H   UNL     1      34.062 -17.052 -23.027  0.00  0.00    +0.150 HD
BRANCH  20  23
ATOM     23  C   UNL     1      35.317 -18.568 -22.297  0.00  0.00    +0.117 C 
BRANCH  23  24
ATOM     24  C   UNL     1      34.579 -19.483 -21.378  0.00  0.00    -0.003 C 
ATOM     25  C   UNL     1      35.283 -20.299 -20.494  0.00  0.00    -0.007 C 
ATOM     26  C   UNL     1      34.593 -21.155 -19.633  0.00  0.00    -0.022 C 
ATOM     27  C   UNL     1      33.185 -19.522 -21.403  0.00  0.00    -0.003 C 
ATOM     28  C   UNL     1      33.199 -21.192 -19.659  0.00  0.00    -0.004 C 
ATOM     29  C   UNL     1      32.495 -20.376 -20.544  0.00  0.00    -0.001 C 
ATOM     30  C   UNL     1      35.346 -22.028 -18.688  0.00  0.00    +0.031 C 
ENDBRANCH  23  24
ENDBRANCH  20  23
ENDBRANCH   4  21
TORSDOF 6
ENDMDL
MODEL 6
REMARK VINA RESULT:     -11.5      4.193     11.080
REMARK  Name = 5289109
REMARK  6 active torsions:
REMARK  status: ('A' for Active; 'I' for Inactive)
REMARK    1  A    between atoms: C_3  and  C_9
REMARK    2  A    between atoms: C_4  and  C_21
REMARK    3  A    between atoms: N_8  and  C_11
REMARK    4  A    between atoms: C_11  and  C_12
REMARK    5  A    between atoms: N_20  and  C_23
REMARK    6  A    between atoms: C_23  and  C_24
REMARK                            x       y       z     vdW  Elec       q    Type
REMARK                         _______ _______ _______ _____ _____    ______ ____
ROOT
ATOM      1  N   UNL     1      34.921 -16.708 -20.470  0.00  0.00    -0.244 NA
ATOM      2  N   UNL     1      34.198 -14.690 -21.568  0.00  0.00    -0.244 NA
ATOM      3  C   UNL     1      34.914 -17.321 -21.672  0.00  0.00    +0.115 C 
ATOM      4  C   UNL     1      34.221 -15.380 -22.710  0.00  0.00    +0.115 C 
ATOM      5  C   UNL     1      34.565 -16.693 -22.851  0.00  0.00    +0.100 C 
ATOM      6  C   UNL     1      34.558 -15.412 -20.491  0.00  0.00    +0.250 C 
ENDROOT
BRANCH   3   9
ATOM      7  O   UNL     1      35.192 -19.409 -22.703  0.00  0.00    -0.269 OA
ATOM      8  N   UNL     1      35.822 -19.236 -20.478  0.00  0.00    -0.296 N 
ATOM      9  C   UNL     1      35.303 -18.721 -21.672  0.00  0.00    +0.260 C 
ATOM     10  H   UNL     1      35.883 -18.638 -19.699  0.00  0.00    +0.150 HD
BRANCH   8  11
ATOM     11  C   UNL     1      36.275 -20.601 -20.326  0.00  0.00    +0.117 C 
BRANCH  11  12
ATOM     12  C   UNL     1      35.450 -21.358 -19.326  0.00  0.00    -0.003 C 
ATOM     13  C   UNL     1      36.020 -21.749 -18.121  0.00  0.00    -0.007 C 
ATOM     14  C   UNL     1      35.253 -22.451 -17.191  0.00  0.00    -0.022 C 
ATOM     15  C   UNL     1      34.124 -21.660 -19.616  0.00  0.00    -0.003 C 
ATOM     16  C   UNL     1      33.922 -22.759 -17.473  0.00  0.00    -0.004 C 
ATOM     17  C   UNL     1      33.358 -22.362 -18.686  0.00  0.00    -0.001 C 
ATOM     18  C   UNL     1      35.857 -22.876 -15.894  0.00  0.00    +0.031 C 
ENDBRANCH  11  12
ENDBRANCH   8  11
ENDBRANCH   3   9
BRANCH   4  21
ATOM     19  O   UNL     1      33.582 -15.196 -24.958  0.00  0.00    -0.269 OA
ATOM     20  N   UNL     1      33.739 -13.226 -23.743  0.00  0.00    -0.296 N 
ATOM     21  C   UNL     1      33.826 -14.602 -23.911  0.00  0.00    +0.260 C 
ATOM     22  H   UNL     1      33.956 -12.843 -22.863  0.00  0.00    +0.150 HD
BRANCH  20  23
ATOM     23  C   UNL     1      33.345 -12.339 -24.807  0.00  0.00    +0.117 C 
BRANCH  23  24
ATOM     24  C   UNL     1      33.951 -10.983 -24.668  0.00  0.00    -0.003 C 
ATOM     25  C   UNL     1      33.416 -10.071 -23.759  0.00  0.00    -0.007 C 
ATOM     26  C   UNL     1      33.983  -8.802 -23.628  0.00  0.00    -0.022 C 
ATOM     27  C   UNL     1      35.052 -10.627 -25.446  0.00  0.00    -0.003 C 
ATOM     28  C   UNL     1      35.084  -8.448 -24.406  0.00  0.00    -0.004 C 
ATOM     29  C   UNL     1      35.619  -9.360 -25.316  0.00  0.00    -0.001 C 
ATOM     30  C   UNL     1      33.411  -7.826 -22.656  0.00  0.00    +0.031 C 
ENDBRANCH  23  24
ENDBRANCH  20  23
ENDBRANCH   4  21
TORSDOF 6
ENDMDL
MODEL 7
REMARK VINA RESULT:     -11.5      3.859     11.090
REMARK  Name = 5289109
REMARK  6 active torsions:
REMARK  status: ('A' for Active; 'I' for Inactive)
REMARK    1  A    between atoms: C_3  and  C_9
REMARK    2  A    between atoms: C_4  and  C_21
REMARK    3  A    between atoms: N_8  and  C_11
REMARK    4  A    between atoms: C_11  and  C_12
REMARK    5  A    between atoms: N_20  and  C_23
REMARK    6  A    between atoms: C_23  and  C_24
REMARK                            x       y       z     vdW  Elec       q    Type
REMARK                         _______ _______ _______ _____ _____    ______ ____
ROOT
ATOM      1  N   UNL     1      32.111 -18.516 -25.566  0.00  0.00    -0.244 NA
ATOM      2  N   UNL     1      31.554 -16.589 -26.902  0.00  0.00    -0.244 NA
ATOM      3  C   UNL     1      33.277 -17.913 -25.252  0.00  0.00    +0.115 C 
ATOM      4  C   UNL     1      32.730 -16.076 -26.535  0.00  0.00    +0.115 C 
ATOM      5  C   UNL     1      33.648 -16.668 -25.718  0.00  0.00    +0.100 C 
ATOM      6  C   UNL     1      31.309 -17.807 -26.383  0.00  0.00    +0.250 C 
ENDROOT
BRANCH   3   9
ATOM      7  O   UNL     1      34.626 -19.758 -24.726  0.00  0.00    -0.269 OA
ATOM      8  N   UNL     1      34.465 -18.078 -23.135  0.00  0.00    -0.296 N 
ATOM      9  C   UNL     1      34.159 -18.661 -24.371  0.00  0.00    +0.260 C 
ATOM     10  H   UNL     1      34.061 -17.208 -22.916  0.00  0.00    +0.150 HD
BRANCH   8  11
ATOM     11  C   UNL     1      35.344 -18.686 -22.161  0.00  0.00    +0.117 C 
BRANCH  11  12
ATOM     12  C   UNL     1      34.605 -19.609 -21.236  0.00  0.00    -0.003 C 
ATOM     13  C   UNL     1      35.315 -20.386 -20.330  0.00  0.00    -0.007 C 
ATOM     14  C   UNL     1      34.629 -21.242 -19.468  0.00  0.00    -0.022 C 
ATOM     15  C   UNL     1      33.218 -19.676 -21.295  0.00  0.00    -0.003 C 
ATOM     16  C   UNL     1      33.237 -21.316 -19.521  0.00  0.00    -0.004 C 
ATOM     17  C   UNL     1      32.531 -20.532 -20.434  0.00  0.00    -0.001 C 
ATOM     18  C   UNL     1      35.383 -22.082 -18.492  0.00  0.00    +0.031 C 
ENDBRANCH  11  12
ENDBRANCH   8  11
ENDBRANCH   3   9
BRANCH   4  21
ATOM     19  O   UNL     1      33.895 -14.616 -27.953  0.00  0.00    -0.269 OA
ATOM     20  N   UNL     1      32.241 -13.690 -26.616  0.00  0.00    -0.296 N 
ATOM     21  C   UNL     1      33.020 -14.733 -27.098  0.00  0.00    +0.260 C 
ATOM     22  H   UNL     1      31.564 -13.884 -25.929  0.00  0.00    +0.150 HD
BRANCH  20  23
ATOM     23  C   UNL     1      32.386 -12.334 -27.082  0.00  0.00    +0.117 C 
BRANCH  23  24
ATOM     24  C   UNL     1      33.175 -11.491 -26.137  0.00  0.00    -0.003 C 
ATOM     25  C   UNL     1      33.758 -10.305 -26.583  0.00  0.00    -0.007 C 
ATOM     26  C   UNL     1      34.496  -9.516 -25.699  0.00  0.00    -0.022 C 
ATOM     27  C   UNL     1      33.330 -11.889 -24.809  0.00  0.00    -0.003 C 
ATOM     28  C   UNL     1      34.650  -9.914 -24.371  0.00  0.00    -0.004 C 
ATOM     29  C   UNL     1      34.067 -11.100 -23.926  0.00  0.00    -0.001 C 
ATOM     30  C   UNL     1      35.120  -8.248 -26.175  0.00  0.00    +0.031 C 
ENDBRANCH  23  24
ENDBRANCH  20  23
ENDBRANCH   4  21
TORSDOF 6
ENDMDL
MODEL 8
REMARK VINA RESULT:     -11.5      4.206      5.781
REMARK  Name = 5289109
REMARK  6 active torsions:
REMARK  status: ('A' for Active; 'I' for Inactive)
REMARK    1  A    between atoms: C_3  and  C_9
REMARK    2  A    between atoms: C_4  and  C_21
REMARK    3  A    between atoms: N_8  and  C_11
REMARK    4  A    between atoms: C_11  and  C_12
REMARK    5  A    between atoms: N_20  and  C_23
REMARK    6  A    between atoms: C_23  and  C_24
REMARK                            x       y       z     vdW  Elec       q    Type
REMARK                         _______ _______ _______ _____ _____    ______ ____
ROOT
ATOM      1  N   UNL     1      34.195 -14.690 -21.605  0.00  0.00    -0.244 NA
ATOM      2  N   UNL     1      34.932 -16.707 -20.512  0.00  0.00    -0.244 NA
ATOM      3  C   UNL     1      34.209 -15.363 -22.775  0.00  0.00    +0.115 C 
ATOM      4  C   UNL     1      34.916 -17.286 -21.715  0.00  0.00    +0.115 C 
ATOM      5  C   UNL     1      34.570 -16.690 -22.892  0.00  0.00    +0.100 C 
ATOM      6  C   UNL     1      34.561 -15.413 -20.530  0.00  0.00    +0.250 C 
ENDROOT
BRANCH   3   9
ATOM      7  O   UNL     1      33.513 -15.180 -25.006  0.00  0.00    -0.269 OA
ATOM      8  N   UNL     1      33.776 -13.207 -23.817  0.00  0.00    -0.296 N 
ATOM      9  C   UNL     1      33.817 -14.601 -23.948  0.00  0.00    +0.260 C 
ATOM     10  H   UNL     1      34.029 -12.813 -22.952  0.00  0.00    +0.150 HD
BRANCH   8  11
ATOM     11  C   UNL     1      33.383 -12.315 -24.884  0.00  0.00    +0.117 C 
BRANCH  11  12
ATOM     12  C   UNL     1      33.968 -10.943 -24.714  0.00  0.00    -0.003 C 
ATOM     13  C   UNL     1      33.414 -10.071 -23.785  0.00  0.00    -0.007 C 
ATOM     14  C   UNL     1      33.959  -8.796 -23.625  0.00  0.00    -0.022 C 
ATOM     15  C   UNL     1      35.058 -10.559 -25.487  0.00  0.00    -0.003 C 
ATOM     16  C   UNL     1      35.052  -8.403 -24.396  0.00  0.00    -0.004 C 
ATOM     17  C   UNL     1      35.602  -9.285 -25.327  0.00  0.00    -0.001 C 
ATOM     18  C   UNL     1      33.370  -7.853 -22.630  0.00  0.00    +0.031 C 
ENDBRANCH  11  12
ENDBRANCH   8  11
ENDBRANCH   3   9
BRANCH   4  21
ATOM     19  O   UNL     1      35.217 -19.366 -22.754  0.00  0.00    -0.269 OA
ATOM     20  N   UNL     1      35.826 -19.206 -20.521  0.00  0.00    -0.296 N 
ATOM     21  C   UNL     1      35.322 -18.714 -21.718  0.00  0.00    +0.260 C 
ATOM     22  H   UNL     1      35.871 -18.604 -19.744  0.00  0.00    +0.150 HD
BRANCH  20  23
ATOM     23  C   UNL     1      36.285 -20.564 -20.373  0.00  0.00    +0.117 C 
BRANCH  23  24
ATOM     24  C   UNL     1      35.495 -21.322 -19.360  0.00  0.00    -0.003 C 
ATOM     25  C   UNL     1      36.091 -21.707 -18.159  0.00  0.00    -0.007 C 
ATOM     26  C   UNL     1      35.352 -22.416 -17.209  0.00  0.00    -0.022 C 
ATOM     27  C   UNL     1      34.162 -21.644 -19.612  0.00  0.00    -0.003 C 
ATOM     28  C   UNL     1      34.019 -22.737 -17.463  0.00  0.00    -0.004 C 
ATOM     29  C   UNL     1      33.424 -22.352 -18.663  0.00  0.00    -0.001 C 
ATOM     30  C   UNL     1      35.989 -22.829 -15.926  0.00  0.00    +0.031 C 
ENDBRANCH  23  24
ENDBRANCH  20  23
ENDBRANCH   4  21
TORSDOF 6
ENDMDL
MODEL 9
REMARK VINA RESULT:     -11.5      1.571     10.618
REMARK  Name = 5289109
REMARK  6 active torsions:
REMARK  status: ('A' for Active; 'I' for Inactive)
REMARK    1  A    between atoms: C_3  and  C_9
REMARK    2  A    between atoms: C_4  and  C_21
REMARK    3  A    between atoms: N_8  and  C_11
REMARK    4  A    between atoms: C_11  and  C_12
REMARK    5  A    between atoms: N_20  and  C_23
REMARK    6  A    between atoms: C_23  and  C_24
REMARK                            x       y       z     vdW  Elec       q    Type
REMARK                         _______ _______ _______ _____ _____    ______ ____
ROOT
ATOM      1  N   UNL     1      32.729 -21.018 -19.871  0.00  0.00    -0.244 NA
ATOM      2  N   UNL     1      32.788 -19.539 -21.772  0.00  0.00    -0.244 NA
ATOM      3  C   UNL     1      34.078 -21.001 -19.864  0.00  0.00    +0.115 C 
ATOM      4  C   UNL     1      34.119 -19.585 -21.684  0.00  0.00    +0.115 C 
ATOM      5  C   UNL     1      34.842 -20.288 -20.766  0.00  0.00    +0.100 C 
ATOM      6  C   UNL     1      32.158 -20.275 -20.838  0.00  0.00    +0.250 C 
ENDROOT
BRANCH   3   9
ATOM      7  O   UNL     1      35.955 -21.837 -18.734  0.00  0.00    -0.269 OA
ATOM      8  N   UNL     1      33.873 -22.482 -17.944  0.00  0.00    -0.296 N 
ATOM      9  C   UNL     1      34.715 -21.796 -18.828  0.00  0.00    +0.260 C 
ATOM     10  H   UNL     1      32.900 -22.407 -18.075  0.00  0.00    +0.150 HD
BRANCH   8  11
ATOM     11  C   UNL     1      34.353 -23.294 -16.849  0.00  0.00    +0.117 C 
BRANCH  11  12
ATOM     12  C   UNL     1      33.292 -23.525 -15.812  0.00  0.00    -0.003 C 
ATOM     13  C   UNL     1      31.968 -23.226 -16.107  0.00  0.00    -0.007 C 
ATOM     14  C   UNL     1      30.981 -23.443 -15.144  0.00  0.00    -0.022 C 
ATOM     15  C   UNL     1      33.645 -24.036 -14.568  0.00  0.00    -0.003 C 
ATOM     16  C   UNL     1      31.326 -23.955 -13.894  0.00  0.00    -0.004 C 
ATOM     17  C   UNL     1      32.659 -24.253 -13.606  0.00  0.00    -0.001 C 
ATOM     18  C   UNL     1      29.556 -23.124 -15.451  0.00  0.00    +0.031 C 
ENDBRANCH  11  12
ENDBRANCH   8  11
ENDBRANCH   3   9
BRANCH   4  21
ATOM     19  O   UNL     1      36.063 -18.802 -22.737  0.00  0.00    -0.269 OA
ATOM     20  N   UNL     1      34.034 -18.065 -23.587  0.00  0.00    -0.296 N 
ATOM     21  C   UNL     1      34.834 -18.780 -22.707  0.00  0.00    +0.260 C 
ATOM     22  H   UNL     1      33.056 -18.111 -23.482  0.00  0.00    +0.150 HD
BRANCH  20  23
ATOM     23  C   UNL     1      34.579 -17.257 -24.649  0.00  0.00    +0.117 C 
BRANCH  23  24
ATOM     24  C   UNL     1      33.548 -16.877 -25.657  0.00  0.00    -0.003 C 
ATOM     25  C   UNL     1      33.526 -15.583 -26.178  0.00  0.00    -0.007 C 
ATOM     26  C   UNL     1      32.562 -15.227 -27.123  0.00  0.00    -0.022 C 
ATOM     27  C   UNL     1      32.605 -17.814 -26.080  0.00  0.00    -0.003 C 
ATOM     28  C   UNL     1      31.621 -16.165 -27.545  0.00  0.00    -0.004 C 
ATOM     29  C   UNL     1      31.642 -17.459 -27.024  0.00  0.00    -0.001 C 
ATOM     30  C   UNL     1      32.538 -13.844 -27.680  0.00  0.00    +0.031 C 
ENDBRANCH  23  24
ENDBRANCH  20  23
ENDBRANCH   4  21
TORSDOF 6
ENDMDL
