MODEL 1
REMARK VINA RESULT:     -13.3      0.000      0.000
REMARK  Name = 448605
REMARK  6 active torsions:
REMARK  status: ('A' for Active; 'I' for Inactive)
REMARK    1  A    between atoms: C_3  and  N_11
REMARK    2  A    between atoms: C_4  and  C_27
REMARK    3  A    between atoms: C_9  and  C_21
REMARK    4  A    between atoms: N_26  and  C_29
REMARK    5  A    between atoms: C_30  and  C_35
REMARK    6  A    between atoms: C_35  and  N_36
REMARK                            x       y       z     vdW  Elec       q    Type
REMARK                         _______ _______ _______ _____ _____    ______ ____
ROOT
ATOM      1  C   UNL     1      34.466 -23.651 -15.238  0.00  0.00    +0.014 C 
ATOM      2  C   UNL     1      35.541 -22.986 -15.877  0.00  0.00    +0.001 C 
ATOM      3  C   UNL     1      33.221 -23.718 -15.882  0.00  0.00    +0.057 C 
ATOM      4  C   UNL     1      34.092 -22.484 -17.766  0.00  0.00    +0.055 C 
ATOM      5  C   UNL     1      35.337 -22.409 -17.141  0.00  0.00    +0.005 C 
ATOM      6  C   UNL     1      33.035 -23.138 -17.138  0.00  0.00    +0.020 C 
ATOM      7  C   UNL     1      34.670 -24.229 -13.975  0.00  0.00    +0.004 C 
ATOM      8  C   UNL     1      36.787 -22.919 -15.233  0.00  0.00    +0.000 C 
ATOM      9  C   UNL     1      35.916 -24.153 -13.349  0.00  0.00    +0.031 C 
ATOM     10  C   UNL     1      36.972 -23.500 -13.978  0.00  0.00    +0.003 C 
ENDROOT
BRANCH   3  11
ATOM     11  N   UNL     1      32.112 -24.371 -15.288  0.00  0.00    -0.257 N 
ATOM     12  N   UNL     1      30.313 -23.264 -16.309  0.00  0.00    -0.180 NA
ATOM     13  N   UNL     1      29.935 -25.018 -14.701  0.00  0.00    -0.203 NA
ATOM     14  C   UNL     1      30.725 -24.211 -15.440  0.00  0.00    +0.091 C 
ATOM     15  C   UNL     1      28.975 -23.137 -16.429  0.00  0.00    +0.108 C 
ATOM     16  C   UNL     1      28.608 -24.837 -14.871  0.00  0.00    +0.165 C 
ATOM     17  C   UNL     1      28.066 -23.903 -15.729  0.00  0.00    +0.022 C 
ATOM     18  H   UNL     1      32.363 -25.072 -14.645  0.00  0.00    +0.164 HD
ENDBRANCH   3  11
BRANCH   9  21
ATOM     19  N   UNL     1      36.110 -23.987 -10.880  0.00  0.00    -0.343 N 
ATOM     20  N   UNL     1      36.298 -26.061 -11.940  0.00  0.00    -0.285 NA
ATOM     21  C   UNL     1      36.111 -24.757 -12.041  0.00  0.00    +0.117 C 
ATOM     22  H   UNL     1      36.244 -24.416 -10.005  0.00  0.00    +0.144 HD
ATOM     23  H   UNL     1      35.975 -23.013 -10.935  0.00  0.00    +0.144 HD
ATOM     24  H   UNL     1      36.431 -26.472 -11.054  0.00  0.00    +0.188 HD
ENDBRANCH   9  21
BRANCH   4  27
ATOM     25  O   UNL     1      32.982 -22.298 -19.802  0.00  0.00    -0.270 OA
ATOM     26  N   UNL     1      34.772 -20.835 -19.401  0.00  0.00    -0.280 N 
ATOM     27  C   UNL     1      33.897 -21.881 -19.075  0.00  0.00    +0.250 C 
ATOM     28  H   UNL     1      35.450 -20.616 -18.723  0.00  0.00    +0.155 HD
BRANCH  26  29
ATOM     29  C   UNL     1      34.808 -20.051 -20.581  0.00  0.00    +0.051 C 
ATOM     30  C   UNL     1      34.878 -18.520 -22.886  0.00  0.00    -0.044 C 
ATOM     31  C   UNL     1      33.648 -19.887 -21.319  0.00  0.00    +0.014 C 
ATOM     32  C   UNL     1      36.002 -19.468 -20.970  0.00  0.00    +0.014 C 
ATOM     33  C   UNL     1      33.684 -19.116 -22.481  0.00  0.00    -0.005 C 
ATOM     34  C   UNL     1      36.037 -18.697 -22.131  0.00  0.00    -0.005 C 
BRANCH  30  35
ATOM     35  C   UNL     1      34.915 -17.695 -24.128  0.00  0.00    -0.059 C 
BRANCH  35  36
ATOM     36  N   UNL     1      35.226 -16.314 -23.859  0.00  0.00    +0.383 N 
ATOM     37  H   UNL     1      36.037 -16.034 -24.411  0.00  0.00    -0.089 HD
ATOM     38  H   UNL     1      35.433 -16.199 -22.867  0.00  0.00    -0.089 HD
ATOM     39  H   UNL     1      34.427 -15.731 -24.109  0.00  0.00    -0.089 HD
ENDBRANCH  35  36
ENDBRANCH  30  35
ENDBRANCH  26  29
ENDBRANCH   4  27
TORSDOF 6
ENDMDL
MODEL 2
REMARK VINA RESULT:     -13.2      1.960      4.636
REMARK  Name = 448605
REMARK  6 active torsions:
REMARK  status: ('A' for Active; 'I' for Inactive)
REMARK    1  A    between atoms: C_3  and  N_11
REMARK    2  A    between atoms: C_4  and  C_27
REMARK    3  A    between atoms: C_9  and  C_21
REMARK    4  A    between atoms: N_26  and  C_29
REMARK    5  A    between atoms: C_30  and  C_35
REMARK    6  A    between atoms: C_35  and  N_36
REMARK                            x       y       z     vdW  Elec       q    Type
REMARK                         _______ _______ _______ _____ _____    ______ ____
ROOT
ATOM      1  C   UNL     1      33.843 -23.016 -16.380  0.00  0.00    +0.014 C 
ATOM      2  C   UNL     1      32.888 -22.731 -17.386  0.00  0.00    +0.001 C 
ATOM      3  C   UNL     1      35.184 -22.652 -16.583  0.00  0.00    +0.057 C 
ATOM      4  C   UNL     1      34.641 -21.737 -18.750  0.00  0.00    +0.055 C 
ATOM      5  C   UNL     1      33.304 -22.090 -18.565  0.00  0.00    +0.005 C 
ATOM      6  C   UNL     1      35.579 -22.017 -17.760  0.00  0.00    +0.020 C 
ATOM      7  C   UNL     1      33.428 -23.656 -15.201  0.00  0.00    +0.004 C 
ATOM      8  C   UNL     1      31.548 -23.095 -17.183  0.00  0.00    +0.000 C 
ATOM      9  C   UNL     1      32.090 -24.011 -15.016  0.00  0.00    +0.031 C 
ATOM     10  C   UNL     1      31.152 -23.730 -16.005  0.00  0.00    +0.003 C 
ENDROOT
BRANCH   3  11
ATOM     11  N   UNL     1      36.179 -22.914 -15.609  0.00  0.00    -0.257 N 
ATOM     12  N   UNL     1      36.213 -25.259 -15.589  0.00  0.00    -0.180 NA
ATOM     13  N   UNL     1      37.671 -23.989 -14.152  0.00  0.00    -0.203 NA
ATOM     14  C   UNL     1      36.712 -24.107 -15.094  0.00  0.00    +0.091 C 
ATOM     15  C   UNL     1      36.747 -26.385 -15.073  0.00  0.00    +0.108 C 
ATOM     16  C   UNL     1      38.160 -25.154 -13.679  0.00  0.00    +0.165 C 
ATOM     17  C   UNL     1      37.732 -26.394 -14.107  0.00  0.00    +0.022 C 
ATOM     18  H   UNL     1      36.573 -22.101 -15.218  0.00  0.00    +0.164 HD
ENDBRANCH   3  11
BRANCH   9  21
ATOM     19  N   UNL     1      30.339 -24.983 -13.550  0.00  0.00    -0.343 N 
ATOM     20  N   UNL     1      32.576 -24.987 -12.875  0.00  0.00    -0.285 NA
ATOM     21  C   UNL     1      31.676 -24.672 -13.789  0.00  0.00    +0.117 C 
ATOM     22  H   UNL     1      30.080 -25.431 -12.712  0.00  0.00    +0.144 HD
ATOM     23  H   UNL     1      29.652 -24.754 -14.218  0.00  0.00    +0.144 HD
ATOM     24  H   UNL     1      32.297 -25.435 -12.044  0.00  0.00    +0.188 HD
ENDBRANCH   9  21
BRANCH   4  27
ATOM     25  O   UNL     1      36.020 -21.527 -20.611  0.00  0.00    -0.270 OA
ATOM     26  N   UNL     1      34.290 -19.962 -20.358  0.00  0.00    -0.280 N 
ATOM     27  C   UNL     1      35.054 -21.074 -19.977  0.00  0.00    +0.250 C 
ATOM     28  H   UNL     1      33.554 -19.721 -19.752  0.00  0.00    +0.155 HD
BRANCH  26  29
ATOM     29  C   UNL     1      34.438 -19.141 -21.503  0.00  0.00    +0.051 C 
ATOM     30  C   UNL     1      34.727 -17.537 -23.741  0.00  0.00    -0.044 C 
ATOM     31  C   UNL     1      34.131 -19.659 -22.750  0.00  0.00    +0.014 C 
ATOM     32  C   UNL     1      34.887 -17.840 -21.350  0.00  0.00    +0.014 C 
ATOM     33  C   UNL     1      34.278 -18.850 -23.878  0.00  0.00    -0.005 C 
ATOM     34  C   UNL     1      35.032 -17.033 -22.477  0.00  0.00    -0.005 C 
BRANCH  30  35
ATOM     35  C   UNL     1      34.883 -16.673 -24.946  0.00  0.00    -0.059 C 
BRANCH  35  36
ATOM     36  N   UNL     1      33.984 -17.048 -26.008  0.00  0.00    +0.383 N 
ATOM     37  H   UNL     1      34.148 -16.452 -26.819  0.00  0.00    -0.089 HD
ATOM     38  H   UNL     1      33.020 -16.937 -25.693  0.00  0.00    -0.089 HD
ATOM     39  H   UNL     1      34.148 -18.022 -26.264  0.00  0.00    -0.089 HD
ENDBRANCH  35  36
ENDBRANCH  30  35
ENDBRANCH  26  29
ENDBRANCH   4  27
TORSDOF 6
ENDMDL
MODEL 3
REMARK VINA RESULT:     -12.5      1.647      2.243
REMARK  Name = 448605
REMARK  6 active torsions:
REMARK  status: ('A' for Active; 'I' for Inactive)
REMARK    1  A    between atoms: C_3  and  N_11
REMARK    2  A    between atoms: C_4  and  C_27
REMARK    3  A    between atoms: C_9  and  C_21
REMARK    4  A    between atoms: N_26  and  C_29
REMARK    5  A    between atoms: C_30  and  C_35
REMARK    6  A    between atoms: C_35  and  N_36
REMARK                            x       y       z     vdW  Elec       q    Type
REMARK                         _______ _______ _______ _____ _____    ______ ____
ROOT
ATOM      1  C   UNL     1      34.585 -22.990 -16.968  0.00  0.00    +0.014 C 
ATOM      2  C   UNL     1      35.543 -22.142 -17.574  0.00  0.00    +0.001 C 
ATOM      3  C   UNL     1      33.284 -23.043 -17.494  0.00  0.00    +0.057 C 
ATOM      4  C   UNL     1      33.874 -21.437 -19.197  0.00  0.00    +0.055 C 
ATOM      5  C   UNL     1      35.171 -21.372 -18.689  0.00  0.00    +0.005 C 
ATOM      6  C   UNL     1      32.932 -22.271 -18.601  0.00  0.00    +0.020 C 
ATOM      7  C   UNL     1      34.956 -23.760 -15.854  0.00  0.00    +0.004 C 
ATOM      8  C   UNL     1      36.844 -22.089 -17.048  0.00  0.00    +0.000 C 
ATOM      9  C   UNL     1      36.254 -23.695 -15.344  0.00  0.00    +0.031 C 
ATOM     10  C   UNL     1      37.196 -22.862 -15.941  0.00  0.00    +0.003 C 
ENDROOT
BRANCH   3  11
ATOM     11  N   UNL     1      32.287 -23.874 -16.926  0.00  0.00    -0.257 N 
ATOM     12  N   UNL     1      32.012 -22.900 -14.809  0.00  0.00    -0.180 NA
ATOM     13  N   UNL     1      30.722 -24.828 -15.461  0.00  0.00    -0.203 NA
ATOM     14  C   UNL     1      31.645 -23.866 -15.677  0.00  0.00    +0.091 C 
ATOM     15  C   UNL     1      31.377 -22.923 -13.620  0.00  0.00    +0.108 C 
ATOM     16  C   UNL     1      30.126 -24.792 -14.251  0.00  0.00    +0.165 C 
ATOM     17  C   UNL     1      30.415 -23.853 -13.282  0.00  0.00    +0.022 C 
ATOM     18  H   UNL     1      31.986 -24.596 -17.523  0.00  0.00    +0.164 HD
ENDBRANCH   3  11
BRANCH   9  21
ATOM     19  N   UNL     1      35.734 -25.414 -13.629  0.00  0.00    -0.343 N 
ATOM     20  N   UNL     1      37.822 -24.366 -13.652  0.00  0.00    -0.285 NA
ATOM     21  C   UNL     1      36.624 -24.499 -14.190  0.00  0.00    +0.117 C 
ATOM     22  H   UNL     1      36.004 -25.947 -12.848  0.00  0.00    +0.144 HD
ATOM     23  H   UNL     1      34.834 -25.525 -14.014  0.00  0.00    +0.144 HD
ATOM     24  H   UNL     1      38.074 -24.910 -12.870  0.00  0.00    +0.188 HD
ENDBRANCH   9  21
BRANCH   4  27
ATOM     25  O   UNL     1      32.325 -20.636 -20.737  0.00  0.00    -0.270 OA
ATOM     26  N   UNL     1      34.540 -19.887 -20.933  0.00  0.00    -0.280 N 
ATOM     27  C   UNL     1      33.505 -20.633 -20.352  0.00  0.00    +0.250 C 
ATOM     28  H   UNL     1      35.426 -19.989 -20.517  0.00  0.00    +0.155 HD
BRANCH  26  29
ATOM     29  C   UNL     1      34.478 -19.005 -22.040  0.00  0.00    +0.051 C 
ATOM     30  C   UNL     1      34.356 -17.282 -24.203  0.00  0.00    -0.044 C 
ATOM     31  C   UNL     1      34.659 -17.648 -21.834  0.00  0.00    +0.014 C 
ATOM     32  C   UNL     1      34.237 -19.520 -23.302  0.00  0.00    +0.014 C 
ATOM     33  C   UNL     1      34.597 -16.780 -22.924  0.00  0.00    -0.005 C 
ATOM     34  C   UNL     1      34.176 -18.652 -24.391  0.00  0.00    -0.005 C 
BRANCH  30  35
ATOM     35  C   UNL     1      34.290 -16.353 -25.368  0.00  0.00    -0.059 C 
BRANCH  35  36
ATOM     36  N   UNL     1      33.078 -15.575 -25.381  0.00  0.00    +0.383 N 
ATOM     37  H   UNL     1      32.869 -15.253 -24.436  0.00  0.00    -0.089 HD
ATOM     38  H   UNL     1      32.308 -16.151 -25.722  0.00  0.00    -0.089 HD
ATOM     39  H   UNL     1      33.198 -14.770 -25.995  0.00  0.00    -0.089 HD
ENDBRANCH  35  36
ENDBRANCH  30  35
ENDBRANCH  26  29
ENDBRANCH   4  27
TORSDOF 6
ENDMDL
MODEL 4
REMARK VINA RESULT:     -11.4      8.510     15.651
REMARK  Name = 448605
REMARK  6 active torsions:
REMARK  status: ('A' for Active; 'I' for Inactive)
REMARK    1  A    between atoms: C_3  and  N_11
REMARK    2  A    between atoms: C_4  and  C_27
REMARK    3  A    between atoms: C_9  and  C_21
REMARK    4  A    between atoms: N_26  and  C_29
REMARK    5  A    between atoms: C_30  and  C_35
REMARK    6  A    between atoms: C_35  and  N_36
REMARK                            x       y       z     vdW  Elec       q    Type
REMARK                         _______ _______ _______ _____ _____    ______ ____
ROOT
ATOM      1  C   UNL     1      33.387  -8.816 -24.778  0.00  0.00    +0.014 C 
ATOM      2  C   UNL     1      34.202  -9.862 -25.275  0.00  0.00    +0.001 C 
ATOM      3  C   UNL     1      32.488  -9.084 -23.734  0.00  0.00    +0.057 C 
ATOM      4  C   UNL     1      33.193 -11.393 -23.676  0.00  0.00    +0.055 C 
ATOM      5  C   UNL     1      34.093 -11.145 -24.712  0.00  0.00    +0.005 C 
ATOM      6  C   UNL     1      32.392 -10.365 -23.187  0.00  0.00    +0.020 C 
ATOM      7  C   UNL     1      33.496  -7.534 -25.339  0.00  0.00    +0.004 C 
ATOM      8  C   UNL     1      35.102  -9.594 -26.319  0.00  0.00    +0.000 C 
ATOM      9  C   UNL     1      34.396  -7.286 -26.377  0.00  0.00    +0.031 C 
ATOM     10  C   UNL     1      35.198  -8.314 -26.866  0.00  0.00    +0.003 C 
ENDROOT
BRANCH   3  11
ATOM     11  N   UNL     1      31.649  -8.075 -23.199  0.00  0.00    -0.257 N 
ATOM     12  N   UNL     1      32.739  -7.580 -21.181  0.00  0.00    -0.180 NA
ATOM     13  N   UNL     1      30.718  -6.429 -21.810  0.00  0.00    -0.203 NA
ATOM     14  C   UNL     1      31.705  -7.328 -22.011  0.00  0.00    +0.091 C 
ATOM     15  C   UNL     1      32.761  -6.845 -20.050  0.00  0.00    +0.108 C 
ATOM     16  C   UNL     1      30.802  -5.729 -20.659  0.00  0.00    +0.165 C 
ATOM     17  C   UNL     1      31.810  -5.896 -19.733  0.00  0.00    +0.022 C 
ATOM     18  H   UNL     1      30.878  -7.857 -23.770  0.00  0.00    +0.164 HD
ENDBRANCH   3  11
BRANCH   9  21
ATOM     19  N   UNL     1      35.617  -5.561 -27.682  0.00  0.00    -0.343 N 
ATOM     20  N   UNL     1      33.519  -5.084 -26.770  0.00  0.00    -0.285 NA
ATOM     21  C   UNL     1      34.498  -5.952 -26.948  0.00  0.00    +0.117 C 
ATOM     22  H   UNL     1      35.665  -4.654 -28.059  0.00  0.00    +0.144 HD
ATOM     23  H   UNL     1      36.359  -6.193 -27.823  0.00  0.00    +0.144 HD
ATOM     24  H   UNL     1      33.586  -4.180 -27.156  0.00  0.00    +0.188 HD
ENDBRANCH   9  21
BRANCH   4  27
ATOM     25  O   UNL     1      32.031 -13.072 -22.562  0.00  0.00    -0.270 OA
ATOM     26  N   UNL     1      34.229 -13.536 -23.240  0.00  0.00    -0.280 N 
ATOM     27  C   UNL     1      33.092 -12.727 -23.105  0.00  0.00    +0.250 C 
ATOM     28  H   UNL     1      34.998 -13.123 -23.693  0.00  0.00    +0.155 HD
BRANCH  26  29
ATOM     29  C   UNL     1      34.415 -14.873 -22.809  0.00  0.00    +0.051 C 
ATOM     30  C   UNL     1      34.779 -17.486 -21.968  0.00  0.00    -0.044 C 
ATOM     31  C   UNL     1      34.475 -15.885 -23.752  0.00  0.00    +0.014 C 
ATOM     32  C   UNL     1      34.531 -15.138 -21.455  0.00  0.00    +0.014 C 
ATOM     33  C   UNL     1      34.658 -17.201 -23.329  0.00  0.00    -0.005 C 
ATOM     34  C   UNL     1      34.715 -16.454 -21.032  0.00  0.00    -0.005 C 
BRANCH  30  35
ATOM     35  C   UNL     1      34.975 -18.893 -21.516  0.00  0.00    -0.059 C 
BRANCH  35  36
ATOM     36  N   UNL     1      36.051 -19.018 -20.566  0.00  0.00    +0.383 N 
ATOM     37  H   UNL     1      36.661 -18.204 -20.632  0.00  0.00    -0.089 HD
ATOM     38  H   UNL     1      36.587 -19.862 -20.768  0.00  0.00    -0.089 HD
ATOM     39  H   UNL     1      35.666 -19.078 -19.623  0.00  0.00    -0.089 HD
ENDBRANCH  35  36
ENDBRANCH  30  35
ENDBRANCH  26  29
ENDBRANCH   4  27
TORSDOF 6
ENDMDL
MODEL 5
REMARK VINA RESULT:     -10.5      9.056     16.229
REMARK  Name = 448605
REMARK  6 active torsions:
REMARK  status: ('A' for Active; 'I' for Inactive)
REMARK    1  A    between atoms: C_3  and  N_11
REMARK    2  A    between atoms: C_4  and  C_27
REMARK    3  A    between atoms: C_9  and  C_21
REMARK    4  A    between atoms: N_26  and  C_29
REMARK    5  A    between atoms: C_30  and  C_35
REMARK    6  A    between atoms: C_35  and  N_36
REMARK                            x       y       z     vdW  Elec       q    Type
REMARK                         _______ _______ _______ _____ _____    ______ ____
ROOT
ATOM      1  C   UNL     1      32.714  -8.263 -23.736  0.00  0.00    +0.014 C 
ATOM      2  C   UNL     1      32.385  -9.275 -22.802  0.00  0.00    +0.001 C 
ATOM      3  C   UNL     1      33.232  -8.628 -24.989  0.00  0.00    +0.057 C 
ATOM      4  C   UNL     1      33.101 -10.965 -24.399  0.00  0.00    +0.055 C 
ATOM      5  C   UNL     1      32.584 -10.621 -23.149  0.00  0.00    +0.005 C 
ATOM      6  C   UNL     1      33.424  -9.970 -25.317  0.00  0.00    +0.020 C 
ATOM      7  C   UNL     1      32.515  -6.917 -23.390  0.00  0.00    +0.004 C 
ATOM      8  C   UNL     1      31.867  -8.910 -21.549  0.00  0.00    +0.000 C 
ATOM      9  C   UNL     1      31.998  -6.573 -22.139  0.00  0.00    +0.031 C 
ATOM     10  C   UNL     1      31.674  -7.567 -21.221  0.00  0.00    +0.003 C 
ENDROOT
BRANCH   3  11
ATOM     11  N   UNL     1      33.578  -7.656 -25.961  0.00  0.00    -0.257 N 
ATOM     12  N   UNL     1      31.550  -7.400 -27.111  0.00  0.00    -0.180 NA
ATOM     13  N   UNL     1      33.500  -6.136 -27.746  0.00  0.00    -0.203 NA
ATOM     14  C   UNL     1      32.843  -7.036 -26.984  0.00  0.00    +0.091 C 
ATOM     15  C   UNL     1      30.874  -6.785 -28.104  0.00  0.00    +0.108 C 
ATOM     16  C   UNL     1      32.765  -5.560 -28.720  0.00  0.00    +0.165 C 
ATOM     17  C   UNL     1      31.435  -5.848 -28.948  0.00  0.00    +0.022 C 
ATOM     18  H   UNL     1      34.515  -7.359 -25.909  0.00  0.00    +0.164 HD
ENDBRANCH   3  11
BRANCH   9  21
ATOM     19  N   UNL     1      32.680  -4.187 -22.229  0.00  0.00    -0.343 N 
ATOM     20  N   UNL     1      30.761  -4.821 -21.055  0.00  0.00    -0.285 NA
ATOM     21  C   UNL     1      31.796  -5.174 -21.796  0.00  0.00    +0.117 C 
ATOM     22  H   UNL     1      32.525  -3.246 -21.984  0.00  0.00    +0.144 HD
ATOM     23  H   UNL     1      33.460  -4.430 -22.779  0.00  0.00    +0.144 HD
ATOM     24  H   UNL     1      30.623  -3.874 -20.822  0.00  0.00    +0.188 HD
ENDBRANCH   9  21
BRANCH   4  27
ATOM     25  O   UNL     1      33.228 -12.709 -25.932  0.00  0.00    -0.270 OA
ATOM     26  N   UNL     1      33.590 -13.221 -23.671  0.00  0.00    -0.280 N 
ATOM     27  C   UNL     1      33.302 -12.364 -24.742  0.00  0.00    +0.250 C 
ATOM     28  H   UNL     1      33.613 -12.801 -22.781  0.00  0.00    +0.155 HD
BRANCH  26  29
ATOM     29  C   UNL     1      33.853 -14.613 -23.702  0.00  0.00    +0.051 C 
ATOM     30  C   UNL     1      34.366 -17.333 -23.761  0.00  0.00    -0.044 C 
ATOM     31  C   UNL     1      34.521 -15.198 -22.640  0.00  0.00    +0.014 C 
ATOM     32  C   UNL     1      33.436 -15.356 -24.793  0.00  0.00    +0.014 C 
ATOM     33  C   UNL     1      34.780 -16.568 -22.670  0.00  0.00    -0.005 C 
ATOM     34  C   UNL     1      33.694 -16.726 -24.822  0.00  0.00    -0.005 C 
BRANCH  30  35
ATOM     35  C   UNL     1      34.643 -18.797 -23.793  0.00  0.00    -0.059 C 
BRANCH  35  36
ATOM     36  N   UNL     1      34.407 -19.427 -22.519  0.00  0.00    +0.383 N 
ATOM     37  H   UNL     1      35.057 -20.203 -22.396  0.00  0.00    -0.089 HD
ATOM     38  H   UNL     1      33.449 -19.778 -22.485  0.00  0.00    -0.089 HD
ATOM     39  H   UNL     1      34.545 -18.746 -21.773  0.00  0.00    -0.089 HD
ENDBRANCH  35  36
ENDBRANCH  30  35
ENDBRANCH  26  29
ENDBRANCH   4  27
TORSDOF 6
ENDMDL
MODEL 6
REMARK VINA RESULT:     -10.3      4.373     12.321
REMARK  Name = 448605
REMARK  6 active torsions:
REMARK  status: ('A' for Active; 'I' for Inactive)
REMARK    1  A    between atoms: C_3  and  N_11
REMARK    2  A    between atoms: C_4  and  C_27
REMARK    3  A    between atoms: C_9  and  C_21
REMARK    4  A    between atoms: N_26  and  C_29
REMARK    5  A    between atoms: C_30  and  C_35
REMARK    6  A    between atoms: C_35  and  N_36
REMARK                            x       y       z     vdW  Elec       q    Type
REMARK                         _______ _______ _______ _____ _____    ______ ____
ROOT
ATOM      1  C   UNL     1      33.037 -15.845 -25.368  0.00  0.00    +0.014 C 
ATOM      2  C   UNL     1      32.826 -17.244 -25.429  0.00  0.00    +0.001 C 
ATOM      3  C   UNL     1      33.948 -15.327 -24.434  0.00  0.00    +0.057 C 
ATOM      4  C   UNL     1      34.435 -17.551 -23.629  0.00  0.00    +0.055 C 
ATOM      5  C   UNL     1      33.534 -18.083 -24.552  0.00  0.00    +0.005 C 
ATOM      6  C   UNL     1      34.642 -16.175 -23.570  0.00  0.00    +0.020 C 
ATOM      7  C   UNL     1      32.330 -15.006 -26.244  0.00  0.00    +0.004 C 
ATOM      8  C   UNL     1      31.915 -17.761 -26.363  0.00  0.00    +0.000 C 
ATOM      9  C   UNL     1      31.428 -15.537 -27.167  0.00  0.00    +0.031 C 
ATOM     10  C   UNL     1      31.221 -16.913 -27.226  0.00  0.00    +0.003 C 
ENDROOT
BRANCH   3  11
ATOM     11  N   UNL     1      34.196 -13.936 -24.331  0.00  0.00    -0.257 N 
ATOM     12  N   UNL     1      32.351 -13.221 -23.071  0.00  0.00    -0.180 NA
ATOM     13  N   UNL     1      34.026 -11.654 -23.810  0.00  0.00    -0.203 NA
ATOM     14  C   UNL     1      33.493 -12.891 -23.710  0.00  0.00    +0.091 C 
ATOM     15  C   UNL     1      31.702 -12.193 -22.486  0.00  0.00    +0.108 C 
ATOM     16  C   UNL     1      33.325 -10.674 -23.203  0.00  0.00    +0.165 C 
ATOM     17  C   UNL     1      32.145 -10.887 -22.519  0.00  0.00    +0.022 C 
ATOM     18  H   UNL     1      35.021 -13.646 -24.783  0.00  0.00    +0.164 HD
ENDBRANCH   3  11
BRANCH   9  21
ATOM     19  N   UNL     1      29.422 -14.970 -28.517  0.00  0.00    -0.343 N 
ATOM     20  N   UNL     1      31.263 -13.531 -28.479  0.00  0.00    -0.285 NA
ATOM     21  C   UNL     1      30.703 -14.655 -28.068  0.00  0.00    +0.117 C 
ATOM     22  H   UNL     1      28.950 -14.359 -29.127  0.00  0.00    +0.144 HD
ATOM     23  H   UNL     1      28.989 -15.805 -28.224  0.00  0.00    +0.144 HD
ATOM     24  H   UNL     1      30.774 -12.932 -29.089  0.00  0.00    +0.188 HD
ENDBRANCH   9  21
BRANCH   4  27
ATOM     25  O   UNL     1      36.375 -18.612 -22.908  0.00  0.00    -0.270 OA
ATOM     26  N   UNL     1      34.405 -19.006 -21.695  0.00  0.00    -0.280 N 
ATOM     27  C   UNL     1      35.160 -18.434 -22.729  0.00  0.00    +0.250 C 
ATOM     28  H   UNL     1      33.450 -18.772 -21.683  0.00  0.00    +0.155 HD
BRANCH  26  29
ATOM     29  C   UNL     1      34.839 -19.877 -20.665  0.00  0.00    +0.051 C 
ATOM     30  C   UNL     1      35.687 -21.578 -18.653  0.00  0.00    -0.044 C 
ATOM     31  C   UNL     1      33.929 -20.744 -20.086  0.00  0.00    +0.014 C 
ATOM     32  C   UNL     1      36.163 -19.839 -20.261  0.00  0.00    +0.014 C 
ATOM     33  C   UNL     1      34.356 -21.601 -19.071  0.00  0.00    -0.005 C 
ATOM     34  C   UNL     1      36.589 -20.697 -19.247  0.00  0.00    -0.005 C 
BRANCH  30  35
ATOM     35  C   UNL     1      36.142 -22.495 -17.569  0.00  0.00    -0.059 C 
BRANCH  35  36
ATOM     36  N   UNL     1      36.859 -21.801 -16.529  0.00  0.00    +0.383 N 
ATOM     37  H   UNL     1      36.479 -20.861 -16.422  0.00  0.00    -0.089 HD
ATOM     38  H   UNL     1      37.847 -21.742 -16.778  0.00  0.00    -0.089 HD
ATOM     39  H   UNL     1      36.760 -22.310 -15.651  0.00  0.00    -0.089 HD
ENDBRANCH  35  36
ENDBRANCH  30  35
ENDBRANCH  26  29
ENDBRANCH   4  27
TORSDOF 6
ENDMDL
