MODEL 1
REMARK VINA RESULT:     -13.0      0.000      0.000
REMARK  Name = 60870
REMARK  7 active torsions:
REMARK  status: ('A' for Active; 'I' for Inactive)
REMARK    1  A    between atoms: C_2  and  C_4
REMARK    2  A    between atoms: C_2  and  C_18
REMARK    3  A    between atoms: C_3  and  C_9
REMARK    4  A    between atoms: C_9  and  C_14
REMARK    5  A    between atoms: C_18  and  C_19
REMARK    6  A    between atoms: C_19  and  C_22
REMARK    7  A    between atoms: C_24  and  C_26
REMARK                            x       y       z     vdW  Elec       q    Type
REMARK                         _______ _______ _______ _____ _____    ______ ____
ROOT
ATOM      1  O   UNL     1      33.396 -24.079 -18.660  0.00  0.00    -0.291 OA
ATOM      2  C   UNL     1      33.145 -22.873 -18.460  0.00  0.00    +0.173 C 
ENDROOT
BRANCH   2   4
ATOM      3  C   UNL     1      34.776 -19.879 -20.960  0.00  0.00    -0.021 C 
ATOM      4  C   UNL     1      33.706 -21.844 -19.321  0.00  0.00    +0.035 C 
ATOM      5  C   UNL     1      35.626 -20.751 -20.298  0.00  0.00    -0.004 C 
ATOM      6  C   UNL     1      33.399 -19.972 -20.817  0.00  0.00    -0.004 C 
ATOM      7  C   UNL     1      35.088 -21.740 -19.473  0.00  0.00    +0.003 C 
ATOM      8  C   UNL     1      32.861 -20.961 -19.992  0.00  0.00    +0.003 C 
BRANCH   3   9
ATOM      9  C   UNL     1      35.357 -18.812 -21.852  0.00  0.00    +0.047 C 
BRANCH   9  14
ATOM     10  S   UNL     1      34.171 -18.780 -24.338  0.00  0.00    -0.048 S 
ATOM     11  O   UNL     1      34.800 -15.863 -21.889  0.00  0.00    -0.274 OA
ATOM     12  O   UNL     1      34.460 -17.089 -26.329  0.00  0.00    -0.263 OA
ATOM     13  N   UNL     1      34.653 -16.278 -24.159  0.00  0.00    -0.246 N 
ATOM     14  C   UNL     1      34.284 -18.097 -22.655  0.00  0.00    +0.137 C 
ATOM     15  C   UNL     1      34.608 -16.630 -22.827  0.00  0.00    +0.239 C 
ATOM     16  C   UNL     1      34.450 -17.237 -25.117  0.00  0.00    +0.279 C 
ATOM     17  H   UNL     1      34.829 -15.346 -24.421  0.00  0.00    +0.158 HD
ENDBRANCH   9  14
ENDBRANCH   3   9
ENDBRANCH   2   4
BRANCH   2  18
ATOM     18  C   UNL     1      32.228 -22.479 -17.286  0.00  0.00    +0.076 C 
BRANCH  18  19
ATOM     19  C   UNL     1      31.711 -23.678 -16.486  0.00  0.00    +0.066 C 
BRANCH  19  22
ATOM     20  O   UNL     1      33.052 -24.193 -13.129  0.00  0.00    -0.449 OA
ATOM     21  N   UNL     1      33.831 -23.932 -15.236  0.00  0.00    -0.373 NA
ATOM     22  C   UNL     1      32.475 -23.883 -15.211  0.00  0.00    +0.130 C 
ATOM     23  C   UNL     1      31.983 -24.036 -13.959  0.00  0.00    +0.216 C 
ATOM     24  C   UNL     1      34.120 -24.118 -13.968  0.00  0.00    +0.277 C 
ATOM     25  C   UNL     1      30.651 -24.070 -13.346  0.00  0.00    +0.055 C 
BRANCH  24  26
ATOM     26  C   UNL     1      35.404 -24.255 -13.338  0.00  0.00    +0.066 C 
ATOM     27  C   UNL     1      35.729 -23.475 -12.225  0.00  0.00    +0.006 C 
ATOM     28  C   UNL     1      36.337 -25.170 -13.836  0.00  0.00    +0.006 C 
ATOM     29  C   UNL     1      36.977 -23.608 -11.614  0.00  0.00    +0.000 C 
ATOM     30  C   UNL     1      37.584 -25.303 -13.225  0.00  0.00    +0.000 C 
ATOM     31  C   UNL     1      37.904 -24.521 -12.114  0.00  0.00    +0.000 C 
ENDBRANCH  24  26
ENDBRANCH  19  22
ENDBRANCH  18  19
ENDBRANCH   2  18
TORSDOF 7
ENDMDL
MODEL 2
REMARK VINA RESULT:     -12.2      1.589      2.138
REMARK  Name = 60870
REMARK  7 active torsions:
REMARK  status: ('A' for Active; 'I' for Inactive)
REMARK    1  A    between atoms: C_2  and  C_4
REMARK    2  A    between atoms: C_2  and  C_18
REMARK    3  A    between atoms: C_3  and  C_9
REMARK    4  A    between atoms: C_9  and  C_14
REMARK    5  A    between atoms: C_18  and  C_19
REMARK    6  A    between atoms: C_19  and  C_22
REMARK    7  A    between atoms: C_24  and  C_26
REMARK                            x       y       z     vdW  Elec       q    Type
REMARK                         _______ _______ _______ _____ _____    ______ ____
ROOT
ATOM      1  O   UNL     1      36.039 -21.285 -18.260  0.00  0.00    -0.291 OA
ATOM      2  C   UNL     1      35.265 -21.419 -19.231  0.00  0.00    +0.173 C 
ENDROOT
BRANCH   2   4
ATOM      3  C   UNL     1      35.325 -18.663 -22.437  0.00  0.00    -0.021 C 
ATOM      4  C   UNL     1      35.286 -20.471 -20.335  0.00  0.00    +0.035 C 
ATOM      5  C   UNL     1      36.480 -18.874 -21.698  0.00  0.00    -0.004 C 
ATOM      6  C   UNL     1      34.152 -19.342 -22.144  0.00  0.00    -0.004 C 
ATOM      7  C   UNL     1      36.460 -19.784 -20.640  0.00  0.00    +0.003 C 
ATOM      8  C   UNL     1      34.132 -20.251 -21.086  0.00  0.00    +0.003 C 
BRANCH   3   9
ATOM      9  C   UNL     1      35.347 -17.682 -23.581  0.00  0.00    +0.047 C 
BRANCH   9  14
ATOM     10  S   UNL     1      33.558 -17.985 -25.654  0.00  0.00    -0.048 S 
ATOM     11  O   UNL     1      34.047 -14.995 -23.262  0.00  0.00    -0.274 OA
ATOM     12  O   UNL     1      32.835 -16.288 -27.526  0.00  0.00    -0.263 OA
ATOM     13  N   UNL     1      33.397 -15.445 -25.435  0.00  0.00    -0.246 N 
ATOM     14  C   UNL     1      33.946 -17.289 -24.018  0.00  0.00    +0.137 C 
ATOM     15  C   UNL     1      33.814 -15.790 -24.166  0.00  0.00    +0.239 C 
ATOM     16  C   UNL     1      33.197 -16.428 -26.368  0.00  0.00    +0.279 C 
ATOM     17  H   UNL     1      33.243 -14.501 -25.668  0.00  0.00    +0.158 HD
ENDBRANCH   9  14
ENDBRANCH   3   9
ENDBRANCH   2   4
BRANCH   2  18
ATOM     18  C   UNL     1      34.283 -22.604 -19.253  0.00  0.00    +0.076 C 
BRANCH  18  19
ATOM     19  C   UNL     1      33.087 -22.424 -18.313  0.00  0.00    +0.066 C 
BRANCH  19  22
ATOM     20  O   UNL     1      32.943 -24.160 -15.104  0.00  0.00    -0.449 OA
ATOM     21  N   UNL     1      34.494 -23.598 -16.652  0.00  0.00    -0.373 NA
ATOM     22  C   UNL     1      33.262 -23.166 -17.021  0.00  0.00    +0.130 C 
ATOM     23  C   UNL     1      32.315 -23.490 -16.110  0.00  0.00    +0.216 C 
ATOM     24  C   UNL     1      34.244 -24.183 -15.502  0.00  0.00    +0.277 C 
ATOM     25  C   UNL     1      30.867 -23.294 -15.978  0.00  0.00    +0.055 C 
BRANCH  24  26
ATOM     26  C   UNL     1      35.147 -24.846 -14.602  0.00  0.00    +0.066 C 
ATOM     27  C   UNL     1      35.249 -24.429 -13.272  0.00  0.00    +0.006 C 
ATOM     28  C   UNL     1      35.931 -25.912 -15.053  0.00  0.00    +0.006 C 
ATOM     29  C   UNL     1      36.127 -25.072 -12.399  0.00  0.00    +0.000 C 
ATOM     30  C   UNL     1      36.809 -26.556 -14.180  0.00  0.00    +0.000 C 
ATOM     31  C   UNL     1      36.907 -26.135 -12.853  0.00  0.00    +0.000 C 
ENDBRANCH  24  26
ENDBRANCH  19  22
ENDBRANCH  18  19
ENDBRANCH   2  18
TORSDOF 7
ENDMDL
MODEL 3
REMARK VINA RESULT:     -12.2      3.235     10.286
REMARK  Name = 60870
REMARK  7 active torsions:
REMARK  status: ('A' for Active; 'I' for Inactive)
REMARK    1  A    between atoms: C_2  and  C_4
REMARK    2  A    between atoms: C_2  and  C_18
REMARK    3  A    between atoms: C_3  and  C_9
REMARK    4  A    between atoms: C_9  and  C_14
REMARK    5  A    between atoms: C_18  and  C_19
REMARK    6  A    between atoms: C_19  and  C_22
REMARK    7  A    between atoms: C_24  and  C_26
REMARK                            x       y       z     vdW  Elec       q    Type
REMARK                         _______ _______ _______ _____ _____    ______ ____
ROOT
ATOM      1  O   UNL     1      31.771 -23.361 -16.818  0.00  0.00    -0.291 OA
ATOM      2  C   UNL     1      32.981 -23.158 -17.046  0.00  0.00    +0.173 C 
ENDROOT
BRANCH   2   4
ATOM      3  C   UNL     1      35.822 -23.282 -13.918  0.00  0.00    -0.021 C 
ATOM      4  C   UNL     1      33.959 -23.202 -15.970  0.00  0.00    +0.035 C 
ATOM      5  C   UNL     1      34.532 -23.732 -13.684  0.00  0.00    -0.004 C 
ATOM      6  C   UNL     1      36.197 -22.793 -15.160  0.00  0.00    -0.004 C 
ATOM      7  C   UNL     1      33.594 -23.692 -14.717  0.00  0.00    +0.003 C 
ATOM      8  C   UNL     1      35.260 -22.752 -16.193  0.00  0.00    +0.003 C 
BRANCH   3   9
ATOM      9  C   UNL     1      36.836 -23.326 -12.803  0.00  0.00    +0.047 C 
BRANCH   9  14
ATOM     10  S   UNL     1      38.181 -25.114 -14.409  0.00  0.00    -0.048 S 
ATOM     11  O   UNL     1      36.033 -25.779 -11.272  0.00  0.00    -0.274 OA
ATOM     12  O   UNL     1      37.423 -27.449 -15.348  0.00  0.00    -0.263 OA
ATOM     13  N   UNL     1      36.626 -26.788 -13.267  0.00  0.00    -0.246 N 
ATOM     14  C   UNL     1      37.572 -24.653 -12.757  0.00  0.00    +0.137 C 
ATOM     15  C   UNL     1      36.657 -25.778 -12.328  0.00  0.00    +0.239 C 
ATOM     16  C   UNL     1      37.348 -26.653 -14.424  0.00  0.00    +0.279 C 
ATOM     17  H   UNL     1      36.090 -27.597 -13.108  0.00  0.00    +0.158 HD
ENDBRANCH   9  14
ENDBRANCH   3   9
ENDBRANCH   2   4
BRANCH   2  18
ATOM     18  C   UNL     1      33.435 -22.862 -18.488  0.00  0.00    +0.076 C 
BRANCH  18  19
ATOM     19  C   UNL     1      32.718 -21.667 -19.122  0.00  0.00    +0.066 C 
BRANCH  19  22
ATOM     20  O   UNL     1      35.358 -19.965 -20.983  0.00  0.00    -0.449 OA
ATOM     21  N   UNL     1      33.097 -20.004 -20.913  0.00  0.00    -0.373 NA
ATOM     22  C   UNL     1      33.625 -20.859 -20.000  0.00  0.00    +0.130 C 
ATOM     23  C   UNL     1      34.979 -20.854 -20.022  0.00  0.00    +0.216 C 
ATOM     24  C   UNL     1      34.176 -19.498 -21.469  0.00  0.00    +0.277 C 
ATOM     25  C   UNL     1      36.048 -21.545 -19.294  0.00  0.00    +0.055 C 
BRANCH  24  26
ATOM     26  C   UNL     1      34.288 -18.524 -22.518  0.00  0.00    +0.066 C 
ATOM     27  C   UNL     1      33.902 -18.845 -23.822  0.00  0.00    +0.006 C 
ATOM     28  C   UNL     1      34.785 -17.247 -22.241  0.00  0.00    +0.006 C 
ATOM     29  C   UNL     1      34.013 -17.899 -24.841  0.00  0.00    +0.000 C 
ATOM     30  C   UNL     1      34.896 -16.300 -23.260  0.00  0.00    +0.000 C 
ATOM     31  C   UNL     1      34.509 -16.627 -24.560  0.00  0.00    +0.000 C 
ENDBRANCH  24  26
ENDBRANCH  19  22
ENDBRANCH  18  19
ENDBRANCH   2  18
TORSDOF 7
ENDMDL
MODEL 4
REMARK VINA RESULT:     -12.2      3.329     11.448
REMARK  Name = 60870
REMARK  7 active torsions:
REMARK  status: ('A' for Active; 'I' for Inactive)
REMARK    1  A    between atoms: C_2  and  C_4
REMARK    2  A    between atoms: C_2  and  C_18
REMARK    3  A    between atoms: C_3  and  C_9
REMARK    4  A    between atoms: C_9  and  C_14
REMARK    5  A    between atoms: C_18  and  C_19
REMARK    6  A    between atoms: C_19  and  C_22
REMARK    7  A    between atoms: C_24  and  C_26
REMARK                            x       y       z     vdW  Elec       q    Type
REMARK                         _______ _______ _______ _____ _____    ______ ____
ROOT
ATOM      1  O   UNL     1      32.739 -22.162 -19.667  0.00  0.00    -0.291 OA
ATOM      2  C   UNL     1      33.927 -21.828 -19.484  0.00  0.00    +0.173 C 
ENDROOT
BRANCH   2   4
ATOM      3  C   UNL     1      35.944 -22.876 -15.918  0.00  0.00    -0.021 C 
ATOM      4  C   UNL     1      34.621 -22.189 -18.257  0.00  0.00    +0.035 C 
ATOM      5  C   UNL     1      34.624 -23.263 -16.093  0.00  0.00    -0.004 C 
ATOM      6  C   UNL     1      36.614 -22.152 -16.893  0.00  0.00    -0.004 C 
ATOM      7  C   UNL     1      33.958 -22.917 -17.270  0.00  0.00    +0.003 C 
ATOM      8  C   UNL     1      35.949 -21.806 -18.070  0.00  0.00    +0.003 C 
BRANCH   3   9
ATOM      9  C   UNL     1      36.663 -23.250 -14.648  0.00  0.00    +0.047 C 
BRANCH   9  14
ATOM     10  S   UNL     1      34.798 -24.112 -12.813  0.00  0.00    -0.048 S 
ATOM     11  O   UNL     1      38.201 -25.668 -13.758  0.00  0.00    -0.274 OA
ATOM     12  O   UNL     1      35.125 -25.033 -10.373  0.00  0.00    -0.263 OA
ATOM     13  N   UNL     1      36.781 -25.469 -11.945  0.00  0.00    -0.246 N 
ATOM     14  C   UNL     1      36.095 -24.513 -14.025  0.00  0.00    +0.137 C 
ATOM     15  C   UNL     1      37.153 -25.275 -13.259  0.00  0.00    +0.239 C 
ATOM     16  C   UNL     1      35.593 -24.952 -11.498  0.00  0.00    +0.279 C 
ATOM     17  H   UNL     1      37.364 -25.973 -11.333  0.00  0.00    +0.158 HD
ENDBRANCH   9  14
ENDBRANCH   3   9
ENDBRANCH   2   4
BRANCH   2  18
ATOM     18  C   UNL     1      34.660 -21.025 -20.575  0.00  0.00    +0.076 C 
BRANCH  18  19
ATOM     19  C   UNL     1      34.253 -19.550 -20.626  0.00  0.00    +0.066 C 
BRANCH  19  22
ATOM     20  O   UNL     1      35.234 -18.123 -23.841  0.00  0.00    -0.449 OA
ATOM     21  N   UNL     1      33.334 -18.712 -22.764  0.00  0.00    -0.373 NA
ATOM     22  C   UNL     1      34.424 -18.959 -21.994  0.00  0.00    +0.130 C 
ATOM     23  C   UNL     1      35.575 -18.615 -22.617  0.00  0.00    +0.216 C 
ATOM     24  C   UNL     1      33.877 -18.214 -23.852  0.00  0.00    +0.277 C 
ATOM     25  C   UNL     1      37.005 -18.653 -22.288  0.00  0.00    +0.055 C 
BRANCH  24  26
ATOM     26  C   UNL     1      33.243 -17.751 -25.056  0.00  0.00    +0.066 C 
ATOM     27  C   UNL     1      32.349 -18.576 -25.744  0.00  0.00    +0.006 C 
ATOM     28  C   UNL     1      33.520 -16.472 -25.549  0.00  0.00    +0.006 C 
ATOM     29  C   UNL     1      31.735 -18.127 -26.913  0.00  0.00    +0.000 C 
ATOM     30  C   UNL     1      32.906 -16.023 -26.719  0.00  0.00    +0.000 C 
ATOM     31  C   UNL     1      32.014 -16.851 -27.401  0.00  0.00    +0.000 C 
ENDBRANCH  24  26
ENDBRANCH  19  22
ENDBRANCH  18  19
ENDBRANCH   2  18
TORSDOF 7
ENDMDL
MODEL 5
REMARK VINA RESULT:     -12.2      3.285     11.976
REMARK  Name = 60870
REMARK  7 active torsions:
REMARK  status: ('A' for Active; 'I' for Inactive)
REMARK    1  A    between atoms: C_2  and  C_4
REMARK    2  A    between atoms: C_2  and  C_18
REMARK    3  A    between atoms: C_3  and  C_9
REMARK    4  A    between atoms: C_9  and  C_14
REMARK    5  A    between atoms: C_18  and  C_19
REMARK    6  A    between atoms: C_19  and  C_22
REMARK    7  A    between atoms: C_24  and  C_26
REMARK                            x       y       z     vdW  Elec       q    Type
REMARK                         _______ _______ _______ _____ _____    ______ ____
ROOT
ATOM      1  O   UNL     1      35.467 -18.355 -21.118  0.00  0.00    -0.291 OA
ATOM      2  C   UNL     1      34.544 -19.144 -21.404  0.00  0.00    +0.173 C 
ENDROOT
BRANCH   2   4
ATOM      3  C   UNL     1      33.493 -22.285 -18.776  0.00  0.00    -0.021 C 
ATOM      4  C   UNL     1      34.182 -20.226 -20.501  0.00  0.00    +0.035 C 
ATOM      5  C   UNL     1      32.494 -21.508 -19.343  0.00  0.00    -0.004 C 
ATOM      6  C   UNL     1      34.830 -22.051 -19.057  0.00  0.00    -0.004 C 
ATOM      7  C   UNL     1      32.841 -20.472 -20.211  0.00  0.00    +0.003 C 
ATOM      8  C   UNL     1      35.177 -21.015 -19.925  0.00  0.00    +0.003 C 
BRANCH   3   9
ATOM      9  C   UNL     1      33.118 -23.405 -17.839  0.00  0.00    +0.047 C 
BRANCH   9  14
ATOM     10  S   UNL     1      33.509 -23.759 -15.135  0.00  0.00    -0.048 S 
ATOM     11  O   UNL     1      30.311 -22.719 -17.030  0.00  0.00    -0.274 OA
ATOM     12  O   UNL     1      31.990 -24.943 -13.347  0.00  0.00    -0.263 OA
ATOM     13  N   UNL     1      30.956 -23.861 -15.126  0.00  0.00    -0.246 N 
ATOM     14  C   UNL     1      32.660 -22.885 -16.488  0.00  0.00    +0.137 C 
ATOM     15  C   UNL     1      31.183 -23.130 -16.273  0.00  0.00    +0.239 C 
ATOM     16  C   UNL     1      32.022 -24.289 -14.378  0.00  0.00    +0.279 C 
ATOM     17  H   UNL     1      30.037 -24.074 -14.847  0.00  0.00    +0.158 HD
ENDBRANCH   9  14
ENDBRANCH   3   9
ENDBRANCH   2   4
BRANCH   2  18
ATOM     18  C   UNL     1      33.782 -18.963 -22.731  0.00  0.00    +0.076 C 
BRANCH  18  19
ATOM     19  C   UNL     1      34.640 -18.368 -23.851  0.00  0.00    +0.066 C 
BRANCH  19  22
ATOM     20  O   UNL     1      32.485 -16.470 -26.106  0.00  0.00    -0.449 OA
ATOM     21  N   UNL     1      34.165 -16.074 -24.643  0.00  0.00    -0.373 NA
ATOM     22  C   UNL     1      33.874 -17.398 -24.701  0.00  0.00    +0.130 C 
ATOM     23  C   UNL     1      32.870 -17.661 -25.570  0.00  0.00    +0.216 C 
ATOM     24  C   UNL     1      33.307 -15.569 -25.502  0.00  0.00    +0.277 C 
ATOM     25  C   UNL     1      32.158 -18.860 -26.028  0.00  0.00    +0.055 C 
BRANCH  24  26
ATOM     26  C   UNL     1      33.110 -14.201 -25.895  0.00  0.00    +0.066 C 
ATOM     27  C   UNL     1      33.258 -13.172 -24.961  0.00  0.00    +0.006 C 
ATOM     28  C   UNL     1      32.766 -13.892 -27.215  0.00  0.00    +0.006 C 
ATOM     29  C   UNL     1      33.065 -11.844 -25.343  0.00  0.00    +0.000 C 
ATOM     30  C   UNL     1      32.573 -12.564 -27.596  0.00  0.00    +0.000 C 
ATOM     31  C   UNL     1      32.722 -11.540 -26.660  0.00  0.00    +0.000 C 
ENDBRANCH  24  26
ENDBRANCH  19  22
ENDBRANCH  18  19
ENDBRANCH   2  18
TORSDOF 7
ENDMDL
MODEL 6
REMARK VINA RESULT:     -12.0      3.415     11.812
REMARK  Name = 60870
REMARK  7 active torsions:
REMARK  status: ('A' for Active; 'I' for Inactive)
REMARK    1  A    between atoms: C_2  and  C_4
REMARK    2  A    between atoms: C_2  and  C_18
REMARK    3  A    between atoms: C_3  and  C_9
REMARK    4  A    between atoms: C_9  and  C_14
REMARK    5  A    between atoms: C_18  and  C_19
REMARK    6  A    between atoms: C_19  and  C_22
REMARK    7  A    between atoms: C_24  and  C_26
REMARK                            x       y       z     vdW  Elec       q    Type
REMARK                         _______ _______ _______ _____ _____    ______ ____
ROOT
ATOM      1  O   UNL     1      36.353 -18.979 -20.923  0.00  0.00    -0.291 OA
ATOM      2  C   UNL     1      35.200 -19.417 -21.118  0.00  0.00    +0.173 C 
ENDROOT
BRANCH   2   4
ATOM      3  C   UNL     1      33.582 -22.428 -18.629  0.00  0.00    -0.021 C 
ATOM      4  C   UNL     1      34.643 -20.452 -20.261  0.00  0.00    +0.035 C 
ATOM      5  C   UNL     1      34.957 -22.249 -18.677  0.00  0.00    -0.004 C 
ATOM      6  C   UNL     1      32.729 -21.636 -19.382  0.00  0.00    -0.004 C 
ATOM      7  C   UNL     1      35.491 -21.255 -19.498  0.00  0.00    +0.003 C 
ATOM      8  C   UNL     1      33.263 -20.642 -20.203  0.00  0.00    +0.003 C 
BRANCH   3   9
ATOM      9  C   UNL     1      33.005 -23.501 -17.741  0.00  0.00    +0.047 C 
BRANCH   9  14
ATOM     10  S   UNL     1      33.314 -23.853 -15.027  0.00  0.00    -0.048 S 
ATOM     11  O   UNL     1      30.222 -22.654 -17.003  0.00  0.00    -0.274 OA
ATOM     12  O   UNL     1      31.691 -24.936 -13.266  0.00  0.00    -0.263 OA
ATOM     13  N   UNL     1      30.760 -23.814 -15.076  0.00  0.00    -0.246 N 
ATOM     14  C   UNL     1      32.546 -22.945 -16.405  0.00  0.00    +0.137 C 
ATOM     15  C   UNL     1      31.053 -23.106 -16.223  0.00  0.00    +0.239 C 
ATOM     16  C   UNL     1      31.783 -24.294 -14.301  0.00  0.00    +0.279 C 
ATOM     17  H   UNL     1      29.824 -23.974 -14.817  0.00  0.00    +0.158 HD
ENDBRANCH   9  14
ENDBRANCH   3   9
ENDBRANCH   2   4
BRANCH   2  18
ATOM     18  C   UNL     1      34.365 -18.849 -22.280  0.00  0.00    +0.076 C 
BRANCH  18  19
ATOM     19  C   UNL     1      35.189 -18.046 -23.290  0.00  0.00    +0.066 C 
BRANCH  19  22
ATOM     20  O   UNL     1      33.876 -14.639 -23.343  0.00  0.00    -0.449 OA
ATOM     21  N   UNL     1      34.201 -16.346 -24.791  0.00  0.00    -0.373 NA
ATOM     22  C   UNL     1      34.612 -16.685 -23.543  0.00  0.00    +0.130 C 
ATOM     23  C   UNL     1      34.427 -15.679 -22.656  0.00  0.00    +0.216 C 
ATOM     24  C   UNL     1      33.771 -15.117 -24.613  0.00  0.00    +0.277 C 
ATOM     25  C   UNL     1      34.673 -15.476 -21.224  0.00  0.00    +0.055 C 
BRANCH  24  26
ATOM     26  C   UNL     1      33.208 -14.202 -25.566  0.00  0.00    +0.066 C 
ATOM     27  C   UNL     1      32.715 -14.672 -26.787  0.00  0.00    +0.006 C 
ATOM     28  C   UNL     1      33.150 -12.835 -25.279  0.00  0.00    +0.006 C 
ATOM     29  C   UNL     1      32.169 -13.783 -27.713  0.00  0.00    +0.000 C 
ATOM     30  C   UNL     1      32.604 -11.946 -26.205  0.00  0.00    +0.000 C 
ATOM     31  C   UNL     1      32.114 -12.420 -27.422  0.00  0.00    +0.000 C 
ENDBRANCH  24  26
ENDBRANCH  19  22
ENDBRANCH  18  19
ENDBRANCH   2  18
TORSDOF 7
ENDMDL
MODEL 7
REMARK VINA RESULT:     -11.9      2.817      4.702
REMARK  Name = 60870
REMARK  7 active torsions:
REMARK  status: ('A' for Active; 'I' for Inactive)
REMARK    1  A    between atoms: C_2  and  C_4
REMARK    2  A    between atoms: C_2  and  C_18
REMARK    3  A    between atoms: C_3  and  C_9
REMARK    4  A    between atoms: C_9  and  C_14
REMARK    5  A    between atoms: C_18  and  C_19
REMARK    6  A    between atoms: C_19  and  C_22
REMARK    7  A    between atoms: C_24  and  C_26
REMARK                            x       y       z     vdW  Elec       q    Type
REMARK                         _______ _______ _______ _____ _____    ______ ____
ROOT
ATOM      1  O   UNL     1      36.160 -19.875 -19.949  0.00  0.00    -0.291 OA
ATOM      2  C   UNL     1      35.094 -19.869 -20.599  0.00  0.00    +0.173 C 
ENDROOT
BRANCH   2   4
ATOM      3  C   UNL     1      34.667 -17.427 -24.024  0.00  0.00    -0.021 C 
ATOM      4  C   UNL     1      34.946 -19.028 -21.777  0.00  0.00    +0.035 C 
ATOM      5  C   UNL     1      34.306 -18.764 -24.092  0.00  0.00    -0.004 C 
ATOM      6  C   UNL     1      35.164 -16.876 -22.853  0.00  0.00    -0.004 C 
ATOM      7  C   UNL     1      34.446 -19.570 -22.961  0.00  0.00    +0.003 C 
ATOM      8  C   UNL     1      35.305 -17.682 -21.722  0.00  0.00    +0.003 C 
BRANCH   3   9
ATOM      9  C   UNL     1      34.514 -16.557 -25.245  0.00  0.00    +0.047 C 
BRANCH   9  14
ATOM     10  S   UNL     1      32.536 -15.831 -27.020  0.00  0.00    -0.048 S 
ATOM     11  O   UNL     1      33.608 -14.134 -23.723  0.00  0.00    -0.274 OA
ATOM     12  O   UNL     1      31.888 -13.462 -27.957  0.00  0.00    -0.263 OA
ATOM     13  N   UNL     1      32.726 -13.599 -25.793  0.00  0.00    -0.246 N 
ATOM     14  C   UNL     1      33.146 -15.901 -25.307  0.00  0.00    +0.137 C 
ATOM     15  C   UNL     1      33.199 -14.466 -24.830  0.00  0.00    +0.239 C 
ATOM     16  C   UNL     1      32.324 -14.093 -27.006  0.00  0.00    +0.279 C 
ATOM     17  H   UNL     1      32.679 -12.633 -25.611  0.00  0.00    +0.158 HD
ENDBRANCH   9  14
ENDBRANCH   3   9
ENDBRANCH   2   4
BRANCH   2  18
ATOM     18  C   UNL     1      33.928 -20.766 -20.143  0.00  0.00    +0.076 C 
BRANCH  18  19
ATOM     19  C   UNL     1      34.358 -22.194 -19.792  0.00  0.00    +0.066 C 
BRANCH  19  22
ATOM     20  O   UNL     1      34.223 -22.880 -16.209  0.00  0.00    -0.449 OA
ATOM     21  N   UNL     1      32.843 -22.973 -17.999  0.00  0.00    -0.373 NA
ATOM     22  C   UNL     1      34.076 -22.537 -18.360  0.00  0.00    +0.130 C 
ATOM     23  C   UNL     1      34.922 -22.473 -17.305  0.00  0.00    +0.216 C 
ATOM     24  C   UNL     1      32.988 -23.162 -16.706  0.00  0.00    +0.277 C 
ATOM     25  C   UNL     1      36.323 -22.089 -17.097  0.00  0.00    +0.055 C 
BRANCH  24  26
ATOM     26  C   UNL     1      32.030 -23.624 -15.740  0.00  0.00    +0.066 C 
ATOM     27  C   UNL     1      32.448 -24.366 -14.633  0.00  0.00    +0.006 C 
ATOM     28  C   UNL     1      30.672 -23.334 -15.904  0.00  0.00    +0.006 C 
ATOM     29  C   UNL     1      31.517 -24.815 -13.695  0.00  0.00    +0.000 C 
ATOM     30  C   UNL     1      29.741 -23.783 -14.967  0.00  0.00    +0.000 C 
ATOM     31  C   UNL     1      30.164 -24.524 -13.863  0.00  0.00    +0.000 C 
ENDBRANCH  24  26
ENDBRANCH  19  22
ENDBRANCH  18  19
ENDBRANCH   2  18
TORSDOF 7
ENDMDL
MODEL 8
REMARK VINA RESULT:     -11.8      5.293      9.754
REMARK  Name = 60870
REMARK  7 active torsions:
REMARK  status: ('A' for Active; 'I' for Inactive)
REMARK    1  A    between atoms: C_2  and  C_4
REMARK    2  A    between atoms: C_2  and  C_18
REMARK    3  A    between atoms: C_3  and  C_9
REMARK    4  A    between atoms: C_9  and  C_14
REMARK    5  A    between atoms: C_18  and  C_19
REMARK    6  A    between atoms: C_19  and  C_22
REMARK    7  A    between atoms: C_24  and  C_26
REMARK                            x       y       z     vdW  Elec       q    Type
REMARK                         _______ _______ _______ _____ _____    ______ ____
ROOT
ATOM      1  O   UNL     1      32.705 -16.425 -27.776  0.00  0.00    -0.291 OA
ATOM      2  C   UNL     1      32.827 -15.998 -26.610  0.00  0.00    +0.173 C 
ENDROOT
BRANCH   2   4
ATOM      3  C   UNL     1      33.092 -11.849 -25.843  0.00  0.00    -0.021 C 
ATOM      4  C   UNL     1      32.917 -14.570 -26.346  0.00  0.00    +0.035 C 
ATOM      5  C   UNL     1      33.009 -12.295 -27.153  0.00  0.00    -0.004 C 
ATOM      6  C   UNL     1      33.088 -12.739 -24.780  0.00  0.00    -0.004 C 
ATOM      7  C   UNL     1      32.921 -13.665 -27.406  0.00  0.00    +0.003 C 
ATOM      8  C   UNL     1      33.000 -14.109 -25.033  0.00  0.00    +0.003 C 
BRANCH   3   9
ATOM      9  C   UNL     1      33.185 -10.369 -25.569  0.00  0.00    +0.047 C 
BRANCH   9  14
ATOM     10  S   UNL     1      31.921  -9.267 -23.384  0.00  0.00    -0.048 S 
ATOM     11  O   UNL     1      35.678  -9.323 -24.267  0.00  0.00    -0.274 OA
ATOM     12  O   UNL     1      32.297  -6.949 -22.203  0.00  0.00    -0.263 OA
ATOM     13  N   UNL     1      34.129  -7.999 -23.175  0.00  0.00    -0.246 N 
ATOM     14  C   UNL     1      33.389 -10.077 -24.093  0.00  0.00    +0.137 C 
ATOM     15  C   UNL     1      34.536  -9.117 -23.873  0.00  0.00    +0.239 C 
ATOM     16  C   UNL     1      32.813  -7.872 -22.815  0.00  0.00    +0.279 C 
ATOM     17  H   UNL     1      34.777  -7.298 -22.937  0.00  0.00    +0.158 HD
ENDBRANCH   9  14
ENDBRANCH   3   9
ENDBRANCH   2   4
BRANCH   2  18
ATOM     18  C   UNL     1      32.880 -17.001 -25.442  0.00  0.00    +0.076 C 
BRANCH  18  19
ATOM     19  C   UNL     1      34.304 -17.358 -25.006  0.00  0.00    +0.066 C 
BRANCH  19  22
ATOM     20  O   UNL     1      34.566 -17.703 -21.381  0.00  0.00    -0.449 OA
ATOM     21  N   UNL     1      34.237 -19.028 -23.184  0.00  0.00    -0.373 NA
ATOM     22  C   UNL     1      34.378 -17.731 -23.556  0.00  0.00    +0.130 C 
ATOM     23  C   UNL     1      34.576 -16.916 -22.493  0.00  0.00    +0.216 C 
ATOM     24  C   UNL     1      34.359 -18.953 -21.877  0.00  0.00    +0.277 C 
ATOM     25  C   UNL     1      34.784 -15.478 -22.291  0.00  0.00    +0.055 C 
BRANCH  24  26
ATOM     26  C   UNL     1      34.303 -19.999 -20.895  0.00  0.00    +0.066 C 
ATOM     27  C   UNL     1      35.481 -20.573 -20.408  0.00  0.00    +0.006 C 
ATOM     28  C   UNL     1      33.068 -20.453 -20.421  0.00  0.00    +0.006 C 
ATOM     29  C   UNL     1      35.426 -21.590 -19.456  0.00  0.00    +0.000 C 
ATOM     30  C   UNL     1      33.012 -21.471 -19.468  0.00  0.00    +0.000 C 
ATOM     31  C   UNL     1      34.192 -22.039 -18.986  0.00  0.00    +0.000 C 
ENDBRANCH  24  26
ENDBRANCH  19  22
ENDBRANCH  18  19
ENDBRANCH   2  18
TORSDOF 7
ENDMDL
MODEL 9
REMARK VINA RESULT:     -11.8      6.096     10.364
REMARK  Name = 60870
REMARK  7 active torsions:
REMARK  status: ('A' for Active; 'I' for Inactive)
REMARK    1  A    between atoms: C_2  and  C_4
REMARK    2  A    between atoms: C_2  and  C_18
REMARK    3  A    between atoms: C_3  and  C_9
REMARK    4  A    between atoms: C_9  and  C_14
REMARK    5  A    between atoms: C_18  and  C_19
REMARK    6  A    between atoms: C_19  and  C_22
REMARK    7  A    between atoms: C_24  and  C_26
REMARK                            x       y       z     vdW  Elec       q    Type
REMARK                         _______ _______ _______ _____ _____    ______ ____
ROOT
ATOM      1  O   UNL     1      33.392 -14.529 -24.948  0.00  0.00    -0.291 OA
ATOM      2  C   UNL     1      33.501 -14.053 -23.799  0.00  0.00    +0.173 C 
ENDROOT
BRANCH   2   4
ATOM      3  C   UNL     1      32.056 -10.179 -22.917  0.00  0.00    -0.021 C 
ATOM      4  C   UNL     1      33.005 -12.720 -23.495  0.00  0.00    +0.035 C 
ATOM      5  C   UNL     1      31.682 -11.245 -22.112  0.00  0.00    -0.004 C 
ATOM      6  C   UNL     1      32.896 -10.361 -24.005  0.00  0.00    -0.004 C 
ATOM      7  C   UNL     1      32.160 -12.524 -22.403  0.00  0.00    +0.003 C 
ATOM      8  C   UNL     1      33.374 -11.640 -24.296  0.00  0.00    +0.003 C 
BRANCH   3   9
ATOM      9  C   UNL     1      31.541  -8.798 -22.602  0.00  0.00    +0.047 C 
BRANCH   9  14
ATOM     10  S   UNL     1      32.662  -8.049 -20.200  0.00  0.00    -0.048 S 
ATOM     11  O   UNL     1      32.228  -6.000 -23.441  0.00  0.00    -0.274 OA
ATOM     12  O   UNL     1      32.397  -5.822 -18.830  0.00  0.00    -0.263 OA
ATOM     13  N   UNL     1      32.296  -5.706 -21.149  0.00  0.00    -0.246 N 
ATOM     14  C   UNL     1      32.623  -7.909 -22.014  0.00  0.00    +0.137 C 
ATOM     15  C   UNL     1      32.360  -6.450 -22.309  0.00  0.00    +0.239 C 
ATOM     16  C   UNL     1      32.432  -6.334 -19.938  0.00  0.00    +0.279 C 
ATOM     17  H   UNL     1      32.155  -4.733 -21.190  0.00  0.00    +0.158 HD
ENDBRANCH   9  14
ENDBRANCH   3   9
ENDBRANCH   2   4
BRANCH   2  18
ATOM     18  C   UNL     1      34.168 -14.896 -22.695  0.00  0.00    +0.076 C 
BRANCH  18  19
ATOM     19  C   UNL     1      35.105 -15.980 -23.237  0.00  0.00    +0.066 C 
BRANCH  19  22
ATOM     20  O   UNL     1      33.748 -19.356 -22.926  0.00  0.00    -0.449 OA
ATOM     21  N   UNL     1      34.901 -17.876 -21.662  0.00  0.00    -0.373 NA
ATOM     22  C   UNL     1      34.636 -17.362 -22.889  0.00  0.00    +0.130 C 
ATOM     23  C   UNL     1      33.946 -18.229 -23.666  0.00  0.00    +0.216 C 
ATOM     24  C   UNL     1      34.347 -19.066 -21.739  0.00  0.00    +0.277 C 
ATOM     25  C   UNL     1      33.405 -18.224 -25.030  0.00  0.00    +0.055 C 
BRANCH  24  26
ATOM     26  C   UNL     1      34.285 -20.108 -20.752  0.00  0.00    +0.066 C 
ATOM     27  C   UNL     1      33.049 -20.564 -20.287  0.00  0.00    +0.006 C 
ATOM     28  C   UNL     1      35.462 -20.670 -20.248  0.00  0.00    +0.006 C 
ATOM     29  C   UNL     1      32.988 -21.575 -19.327  0.00  0.00    +0.000 C 
ATOM     30  C   UNL     1      35.402 -21.681 -19.288  0.00  0.00    +0.000 C 
ATOM     31  C   UNL     1      34.165 -22.132 -18.828  0.00  0.00    +0.000 C 
ENDBRANCH  24  26
ENDBRANCH  19  22
ENDBRANCH  18  19
ENDBRANCH   2  18
TORSDOF 7
ENDMDL
