MODEL 1
REMARK VINA RESULT:     -11.8      0.000      0.000
REMARK  Name = 657077
REMARK  7 active torsions:
REMARK  status: ('A' for Active; 'I' for Inactive)
REMARK    1  A    between atoms: C_3  and  C_23
REMARK    2  A    between atoms: C_8  and  C_10
REMARK    3  A    between atoms: C_12  and  C_15
REMARK    4  A    between atoms: C_15  and  C_16
REMARK    5  A    between atoms: C_16  and  C_17
REMARK    6  A    between atoms: C_26  and  C_29
REMARK    7  A    between atoms: C_29  and  N_30
REMARK                            x       y       z     vdW  Elec       q    Type
REMARK                         _______ _______ _______ _____ _____    ______ ____
ROOT
ATOM      1  O   UNL     1      35.491 -17.688 -20.509  0.00  0.00    -0.270 OA
ATOM      2  N   UNL     1      34.984 -18.330 -22.699  0.00  0.00    -0.276 N 
ATOM      3  C   UNL     1      34.060 -17.339 -25.257  0.00  0.00    +0.026 C 
ATOM      4  C   UNL     1      33.393 -18.544 -24.565  0.00  0.00    +0.026 C 
ATOM      5  C   UNL     1      34.718 -16.414 -24.215  0.00  0.00    +0.026 C 
ATOM      6  C   UNL     1      34.384 -19.270 -23.655  0.00  0.00    +0.094 C 
ATOM      7  C   UNL     1      35.672 -17.193 -23.311  0.00  0.00    +0.094 C 
ATOM      8  C   UNL     1      34.967 -18.462 -21.309  0.00  0.00    +0.251 C 
ENDROOT
BRANCH   8  10
ATOM      9  N   UNL     1      32.194 -20.837 -20.479  0.00  0.00    -0.242 NA
ATOM     10  C   UNL     1      34.255 -19.607 -20.731  0.00  0.00    +0.072 C 
ATOM     11  C   UNL     1      34.916 -20.521 -19.922  0.00  0.00    +0.003 C 
ATOM     12  C   UNL     1      34.215 -21.597 -19.388  0.00  0.00    -0.003 C 
ATOM     13  C   UNL     1      32.910 -19.804 -20.979  0.00  0.00    +0.103 C 
ATOM     14  C   UNL     1      32.868 -21.709 -19.695  0.00  0.00    +0.095 C 
BRANCH  12  15
ATOM     15  C   UNL     1      34.889 -22.596 -18.518  0.00  0.00    +0.033 C 
BRANCH  15  16
ATOM     16  C   UNL     1      35.892 -21.986 -17.516  0.00  0.00    +0.031 C 
BRANCH  16  17
ATOM     17  C   UNL     1      35.923 -22.712 -16.192  0.00  0.00    -0.022 C 
ATOM     18  C   UNL     1      37.142 -23.090 -15.653  0.00  0.00    -0.004 C 
ATOM     19  C   UNL     1      34.731 -22.987 -15.541  0.00  0.00    -0.004 C 
ATOM     20  C   UNL     1      37.170 -23.761 -14.430  0.00  0.00    -0.000 C 
ATOM     21  C   UNL     1      34.760 -23.658 -14.317  0.00  0.00    -0.000 C 
ATOM     22  C   UNL     1      35.980 -24.045 -13.763  0.00  0.00    -0.000 C 
ENDBRANCH  16  17
ENDBRANCH  15  16
ENDBRANCH  12  15
ENDBRANCH   8  10
BRANCH   3  23
ATOM     23  C   UNL     1      33.092 -16.590 -26.152  0.00  0.00    -0.023 C 
ATOM     24  C   UNL     1      33.353 -15.268 -26.506  0.00  0.00    -0.011 C 
ATOM     25  C   UNL     1      31.944 -17.228 -26.621  0.00  0.00    -0.004 C 
ATOM     26  C   UNL     1      32.464 -14.580 -27.330  0.00  0.00    -0.045 C 
ATOM     27  C   UNL     1      31.054 -16.539 -27.446  0.00  0.00    -0.001 C 
ATOM     28  C   UNL     1      31.314 -15.215 -27.800  0.00  0.00    -0.006 C 
BRANCH  26  29
ATOM     29  C   UNL     1      32.741 -13.164 -27.711  0.00  0.00    -0.059 C 
BRANCH  29  30
ATOM     30  N   UNL     1      31.530 -12.341 -27.714  0.00  0.00    +0.383 N 
ATOM     31  H   UNL     1      31.535 -11.726 -26.900  0.00  0.00    -0.089 HD
ATOM     32  H   UNL     1      30.709 -12.944 -27.681  0.00  0.00    -0.089 HD
ATOM     33  H   UNL     1      31.505 -11.778 -28.565  0.00  0.00    -0.089 HD
ENDBRANCH  29  30
ENDBRANCH  26  29
ENDBRANCH   3  23
TORSDOF 7
ENDMDL
MODEL 2
REMARK VINA RESULT:     -11.5      3.901     10.166
REMARK  Name = 657077
REMARK  7 active torsions:
REMARK  status: ('A' for Active; 'I' for Inactive)
REMARK    1  A    between atoms: C_3  and  C_23
REMARK    2  A    between atoms: C_8  and  C_10
REMARK    3  A    between atoms: C_12  and  C_15
REMARK    4  A    between atoms: C_15  and  C_16
REMARK    5  A    between atoms: C_16  and  C_17
REMARK    6  A    between atoms: C_26  and  C_29
REMARK    7  A    between atoms: C_29  and  N_30
REMARK                            x       y       z     vdW  Elec       q    Type
REMARK                         _______ _______ _______ _____ _____    ______ ____
ROOT
ATOM      1  O   UNL     1      31.345 -15.957 -27.180  0.00  0.00    -0.270 OA
ATOM      2  N   UNL     1      33.358 -16.662 -26.222  0.00  0.00    -0.276 N 
ATOM      3  C   UNL     1      34.490 -18.425 -24.225  0.00  0.00    +0.026 C 
ATOM      4  C   UNL     1      34.838 -16.924 -24.274  0.00  0.00    +0.026 C 
ATOM      5  C   UNL     1      33.099 -18.677 -24.839  0.00  0.00    +0.026 C 
ATOM      6  C   UNL     1      34.698 -16.376 -25.694  0.00  0.00    +0.094 C 
ATOM      7  C   UNL     1      33.000 -18.081 -26.243  0.00  0.00    +0.094 C 
ATOM      8  C   UNL     1      32.457 -15.714 -26.713  0.00  0.00    +0.251 C 
ENDROOT
BRANCH   8  10
ATOM      9  N   UNL     1      33.379 -12.269 -27.853  0.00  0.00    -0.242 NA
ATOM     10  C   UNL     1      32.845 -14.300 -26.664  0.00  0.00    +0.072 C 
ATOM     11  C   UNL     1      33.044 -13.659 -25.450  0.00  0.00    +0.003 C 
ATOM     12  C   UNL     1      33.412 -12.318 -25.435  0.00  0.00    -0.003 C 
ATOM     13  C   UNL     1      33.022 -13.574 -27.826  0.00  0.00    +0.103 C 
ATOM     14  C   UNL     1      33.564 -11.674 -26.653  0.00  0.00    +0.095 C 
BRANCH  12  15
ATOM     15  C   UNL     1      33.632 -11.597 -24.153  0.00  0.00    +0.033 C 
BRANCH  15  16
ATOM     16  C   UNL     1      32.623 -10.460 -23.886  0.00  0.00    +0.031 C 
BRANCH  16  17
ATOM     17  C   UNL     1      32.011 -10.523 -22.507  0.00  0.00    -0.022 C 
ATOM     18  C   UNL     1      31.752 -11.758 -21.934  0.00  0.00    -0.004 C 
ATOM     19  C   UNL     1      31.719  -9.344 -21.841  0.00  0.00    -0.004 C 
ATOM     20  C   UNL     1      31.187 -11.815 -20.660  0.00  0.00    -0.000 C 
ATOM     21  C   UNL     1      31.155  -9.402 -20.566  0.00  0.00    -0.000 C 
ATOM     22  C   UNL     1      30.888 -10.638 -19.976  0.00  0.00    -0.000 C 
ENDBRANCH  16  17
ENDBRANCH  15  16
ENDBRANCH  12  15
ENDBRANCH   8  10
BRANCH   3  23
ATOM     23  C   UNL     1      34.604 -18.990 -22.823  0.00  0.00    -0.023 C 
ATOM     24  C   UNL     1      33.477 -19.508 -22.188  0.00  0.00    -0.011 C 
ATOM     25  C   UNL     1      35.838 -18.992 -22.173  0.00  0.00    -0.004 C 
ATOM     26  C   UNL     1      33.582 -20.029 -20.899  0.00  0.00    -0.045 C 
ATOM     27  C   UNL     1      35.943 -19.513 -20.883  0.00  0.00    -0.001 C 
ATOM     28  C   UNL     1      34.815 -20.031 -20.246  0.00  0.00    -0.006 C 
BRANCH  26  29
ATOM     29  C   UNL     1      32.377 -20.585 -20.217  0.00  0.00    -0.059 C 
BRANCH  29  30
ATOM     30  N   UNL     1      32.687 -21.774 -19.420  0.00  0.00    +0.383 N 
ATOM     31  H   UNL     1      32.683 -21.529 -18.430  0.00  0.00    -0.089 HD
ATOM     32  H   UNL     1      33.608 -22.126 -19.680  0.00  0.00    -0.089 HD
ATOM     33  H   UNL     1      31.985 -22.493 -19.596  0.00  0.00    -0.089 HD
ENDBRANCH  29  30
ENDBRANCH  26  29
ENDBRANCH   3  23
TORSDOF 7
ENDMDL
MODEL 3
REMARK VINA RESULT:     -11.3      3.276      5.993
REMARK  Name = 657077
REMARK  7 active torsions:
REMARK  status: ('A' for Active; 'I' for Inactive)
REMARK    1  A    between atoms: C_3  and  C_23
REMARK    2  A    between atoms: C_8  and  C_10
REMARK    3  A    between atoms: C_12  and  C_15
REMARK    4  A    between atoms: C_15  and  C_16
REMARK    5  A    between atoms: C_16  and  C_17
REMARK    6  A    between atoms: C_26  and  C_29
REMARK    7  A    between atoms: C_29  and  N_30
REMARK                            x       y       z     vdW  Elec       q    Type
REMARK                         _______ _______ _______ _____ _____    ______ ____
ROOT
ATOM      1  O   UNL     1      34.150 -16.336 -26.567  0.00  0.00    -0.270 OA
ATOM      2  N   UNL     1      33.149 -14.426 -25.663  0.00  0.00    -0.276 N 
ATOM      3  C   UNL     1      32.942 -11.554 -25.950  0.00  0.00    +0.026 C 
ATOM      4  C   UNL     1      33.307 -12.210 -24.604  0.00  0.00    +0.026 C 
ATOM      5  C   UNL     1      33.357 -12.460 -27.124  0.00  0.00    +0.026 C 
ATOM      6  C   UNL     1      32.727 -13.621 -24.510  0.00  0.00    +0.094 C 
ATOM      7  C   UNL     1      32.781 -13.867 -26.965  0.00  0.00    +0.094 C 
ATOM      8  C   UNL     1      33.820 -15.649 -25.601  0.00  0.00    +0.251 C 
ENDROOT
BRANCH   8  10
ATOM      9  N   UNL     1      34.985 -15.742 -22.044  0.00  0.00    -0.242 NA
ATOM     10  C   UNL     1      34.184 -16.172 -24.279  0.00  0.00    +0.072 C 
ATOM     11  C   UNL     1      34.087 -17.527 -23.999  0.00  0.00    +0.003 C 
ATOM     12  C   UNL     1      34.439 -17.994 -22.737  0.00  0.00    -0.003 C 
ATOM     13  C   UNL     1      34.634 -15.327 -23.283  0.00  0.00    +0.103 C 
ATOM     14  C   UNL     1      34.878 -17.068 -21.803  0.00  0.00    +0.095 C 
BRANCH  12  15
ATOM     15  C   UNL     1      34.347 -19.439 -22.399  0.00  0.00    +0.033 C 
BRANCH  15  16
ATOM     16  C   UNL     1      33.254 -19.776 -21.363  0.00  0.00    +0.031 C 
BRANCH  16  17
ATOM     17  C   UNL     1      33.733 -20.711 -20.278  0.00  0.00    -0.022 C 
ATOM     18  C   UNL     1      32.805 -21.417 -19.530  0.00  0.00    -0.004 C 
ATOM     19  C   UNL     1      35.093 -20.845 -20.051  0.00  0.00    -0.004 C 
ATOM     20  C   UNL     1      33.248 -22.280 -18.528  0.00  0.00    -0.000 C 
ATOM     21  C   UNL     1      35.537 -21.709 -19.049  0.00  0.00    -0.000 C 
ATOM     22  C   UNL     1      34.613 -22.426 -18.287  0.00  0.00    -0.000 C 
ENDBRANCH  16  17
ENDBRANCH  15  16
ENDBRANCH  12  15
ENDBRANCH   8  10
BRANCH   3  23
ATOM     23  C   UNL     1      33.521 -10.157 -26.077  0.00  0.00    -0.023 C 
ATOM     24  C   UNL     1      32.669  -9.062 -26.208  0.00  0.00    -0.011 C 
ATOM     25  C   UNL     1      34.902  -9.974 -26.059  0.00  0.00    -0.004 C 
ATOM     26  C   UNL     1      33.201  -7.778 -26.324  0.00  0.00    -0.045 C 
ATOM     27  C   UNL     1      35.434  -8.689 -26.175  0.00  0.00    -0.001 C 
ATOM     28  C   UNL     1      34.584  -7.592 -26.307  0.00  0.00    -0.006 C 
BRANCH  26  29
ATOM     29  C   UNL     1      32.292  -6.603 -26.464  0.00  0.00    -0.059 C 
BRANCH  29  30
ATOM     30  N   UNL     1      31.015  -6.957 -27.087  0.00  0.00    +0.383 N 
ATOM     31  H   UNL     1      31.163  -7.710 -27.759  0.00  0.00    -0.089 HD
ATOM     32  H   UNL     1      30.634  -6.143 -27.567  0.00  0.00    -0.089 HD
ATOM     33  H   UNL     1      30.361  -7.267 -26.369  0.00  0.00    -0.089 HD
ENDBRANCH  29  30
ENDBRANCH  26  29
ENDBRANCH   3  23
TORSDOF 7
ENDMDL
MODEL 4
REMARK VINA RESULT:     -11.3      3.645      6.333
REMARK  Name = 657077
REMARK  7 active torsions:
REMARK  status: ('A' for Active; 'I' for Inactive)
REMARK    1  A    between atoms: C_3  and  C_23
REMARK    2  A    between atoms: C_8  and  C_10
REMARK    3  A    between atoms: C_12  and  C_15
REMARK    4  A    between atoms: C_15  and  C_16
REMARK    5  A    between atoms: C_16  and  C_17
REMARK    6  A    between atoms: C_26  and  C_29
REMARK    7  A    between atoms: C_29  and  N_30
REMARK                            x       y       z     vdW  Elec       q    Type
REMARK                         _______ _______ _______ _____ _____    ______ ____
ROOT
ATOM      1  O   UNL     1      33.057 -16.184 -27.792  0.00  0.00    -0.270 OA
ATOM      2  N   UNL     1      32.684 -14.768 -25.968  0.00  0.00    -0.276 N 
ATOM      3  C   UNL     1      33.013 -12.049 -25.032  0.00  0.00    +0.026 C 
ATOM      4  C   UNL     1      33.515 -13.255 -24.214  0.00  0.00    +0.026 C 
ATOM      5  C   UNL     1      32.972 -12.393 -26.534  0.00  0.00    +0.026 C 
ATOM      6  C   UNL     1      32.693 -14.506 -24.524  0.00  0.00    +0.094 C 
ATOM      7  C   UNL     1      32.168 -13.669 -26.785  0.00  0.00    +0.094 C 
ATOM      8  C   UNL     1      33.089 -15.955 -26.583  0.00  0.00    +0.251 C 
ENDROOT
BRANCH   8  10
ATOM      9  N   UNL     1      34.172 -19.363 -25.475  0.00  0.00    -0.242 NA
ATOM     10  C   UNL     1      33.613 -17.031 -25.733  0.00  0.00    +0.072 C 
ATOM     11  C   UNL     1      34.035 -16.771 -24.437  0.00  0.00    +0.003 C 
ATOM     12  C   UNL     1      34.528 -17.810 -23.655  0.00  0.00    -0.003 C 
ATOM     13  C   UNL     1      33.699 -18.327 -26.204  0.00  0.00    +0.103 C 
ATOM     14  C   UNL     1      34.576 -19.077 -24.217  0.00  0.00    +0.095 C 
BRANCH  12  15
ATOM     15  C   UNL     1      34.990 -17.570 -22.263  0.00  0.00    +0.033 C 
BRANCH  15  16
ATOM     16  C   UNL     1      35.829 -18.721 -21.669  0.00  0.00    +0.031 C 
BRANCH  16  17
ATOM     17  C   UNL     1      35.002 -19.721 -20.897  0.00  0.00    -0.022 C 
ATOM     18  C   UNL     1      35.639 -20.723 -20.183  0.00  0.00    -0.004 C 
ATOM     19  C   UNL     1      33.620 -19.619 -20.919  0.00  0.00    -0.004 C 
ATOM     20  C   UNL     1      34.875 -21.647 -19.470  0.00  0.00    -0.000 C 
ATOM     21  C   UNL     1      32.856 -20.543 -20.205  0.00  0.00    -0.000 C 
ATOM     22  C   UNL     1      33.483 -21.557 -19.482  0.00  0.00    -0.000 C 
ENDBRANCH  16  17
ENDBRANCH  15  16
ENDBRANCH  12  15
ENDBRANCH   8  10
BRANCH   3  23
ATOM     23  C   UNL     1      33.824 -10.797 -24.757  0.00  0.00    -0.023 C 
ATOM     24  C   UNL     1      33.372  -9.869 -23.821  0.00  0.00    -0.011 C 
ATOM     25  C   UNL     1      35.019 -10.580 -25.440  0.00  0.00    -0.004 C 
ATOM     26  C   UNL     1      34.118  -8.719 -23.567  0.00  0.00    -0.045 C 
ATOM     27  C   UNL     1      35.765  -9.429 -25.185  0.00  0.00    -0.001 C 
ATOM     28  C   UNL     1      35.315  -8.499 -24.249  0.00  0.00    -0.006 C 
BRANCH  26  29
ATOM     29  C   UNL     1      33.638  -7.723 -22.564  0.00  0.00    -0.059 C 
BRANCH  29  30
ATOM     30  N   UNL     1      32.705  -8.310 -21.600  0.00  0.00    +0.383 N 
ATOM     31  H   UNL     1      32.445  -9.247 -21.906  0.00  0.00    -0.089 HD
ATOM     32  H   UNL     1      31.870  -7.728 -21.537  0.00  0.00    -0.089 HD
ATOM     33  H   UNL     1      33.152  -8.363 -20.685  0.00  0.00    -0.089 HD
ENDBRANCH  29  30
ENDBRANCH  26  29
ENDBRANCH   3  23
TORSDOF 7
ENDMDL
MODEL 5
REMARK VINA RESULT:     -11.2      2.452      4.201
REMARK  Name = 657077
REMARK  7 active torsions:
REMARK  status: ('A' for Active; 'I' for Inactive)
REMARK    1  A    between atoms: C_3  and  C_23
REMARK    2  A    between atoms: C_8  and  C_10
REMARK    3  A    between atoms: C_12  and  C_15
REMARK    4  A    between atoms: C_15  and  C_16
REMARK    5  A    between atoms: C_16  and  C_17
REMARK    6  A    between atoms: C_26  and  C_29
REMARK    7  A    between atoms: C_29  and  N_30
REMARK                            x       y       z     vdW  Elec       q    Type
REMARK                         _______ _______ _______ _____ _____    ______ ____
ROOT
ATOM      1  O   UNL     1      36.716 -21.848 -18.173  0.00  0.00    -0.270 OA
ATOM      2  N   UNL     1      35.413 -21.043 -19.940  0.00  0.00    -0.276 N 
ATOM      3  C   UNL     1      34.963 -18.741 -21.635  0.00  0.00    +0.026 C 
ATOM      4  C   UNL     1      33.812 -19.420 -20.867  0.00  0.00    +0.026 C 
ATOM      5  C   UNL     1      36.304 -18.969 -20.912  0.00  0.00    +0.026 C 
ATOM      6  C   UNL     1      34.118 -20.897 -20.617  0.00  0.00    +0.094 C 
ATOM      7  C   UNL     1      36.546 -20.456 -20.655  0.00  0.00    +0.094 C 
ATOM      8  C   UNL     1      35.627 -21.703 -18.728  0.00  0.00    +0.251 C 
ENDROOT
BRANCH   8  10
ATOM      9  N   UNL     1      32.090 -22.694 -18.002  0.00  0.00    -0.242 NA
ATOM     10  C   UNL     1      34.465 -22.268 -18.032  0.00  0.00    +0.072 C 
ATOM     11  C   UNL     1      34.606 -22.888 -16.799  0.00  0.00    +0.003 C 
ATOM     12  C   UNL     1      33.487 -23.413 -16.163  0.00  0.00    -0.003 C 
ATOM     13  C   UNL     1      33.203 -22.195 -18.589  0.00  0.00    +0.103 C 
ATOM     14  C   UNL     1      32.263 -23.292 -16.802  0.00  0.00    +0.095 C 
BRANCH  12  15
ATOM     15  C   UNL     1      33.599 -24.086 -14.842  0.00  0.00    +0.033 C 
BRANCH  15  16
ATOM     16  C   UNL     1      34.727 -25.136 -14.762  0.00  0.00    +0.031 C 
BRANCH  16  17
ATOM     17  C   UNL     1      35.814 -24.766 -13.781  0.00  0.00    -0.022 C 
ATOM     18  C   UNL     1      35.688 -23.605 -13.034  0.00  0.00    -0.004 C 
ATOM     19  C   UNL     1      36.916 -25.594 -13.646  0.00  0.00    -0.004 C 
ATOM     20  C   UNL     1      36.692 -23.263 -12.129  0.00  0.00    -0.000 C 
ATOM     21  C   UNL     1      37.920 -25.252 -12.738  0.00  0.00    -0.000 C 
ATOM     22  C   UNL     1      37.808 -24.086 -11.981  0.00  0.00    -0.000 C 
ENDBRANCH  16  17
ENDBRANCH  15  16
ENDBRANCH  12  15
ENDBRANCH   8  10
BRANCH   3  23
ATOM     23  C   UNL     1      34.692 -17.269 -21.881  0.00  0.00    -0.023 C 
ATOM     24  C   UNL     1      34.382 -16.825 -23.165  0.00  0.00    -0.011 C 
ATOM     25  C   UNL     1      34.750 -16.365 -20.821  0.00  0.00    -0.004 C 
ATOM     26  C   UNL     1      34.132 -15.472 -23.391  0.00  0.00    -0.045 C 
ATOM     27  C   UNL     1      34.500 -15.012 -21.047  0.00  0.00    -0.001 C 
ATOM     28  C   UNL     1      34.190 -14.565 -22.332  0.00  0.00    -0.006 C 
BRANCH  26  29
ATOM     29  C   UNL     1      33.800 -14.993 -24.764  0.00  0.00    -0.059 C 
BRANCH  29  30
ATOM     30  N   UNL     1      32.816 -13.908 -24.753  0.00  0.00    +0.383 N 
ATOM     31  H   UNL     1      31.964 -14.227 -24.291  0.00  0.00    -0.089 HD
ATOM     32  H   UNL     1      32.602 -13.633 -25.711  0.00  0.00    -0.089 HD
ATOM     33  H   UNL     1      33.197 -13.109 -24.246  0.00  0.00    -0.089 HD
ENDBRANCH  29  30
ENDBRANCH  26  29
ENDBRANCH   3  23
TORSDOF 7
ENDMDL
MODEL 6
REMARK VINA RESULT:     -11.1      4.219     11.505
REMARK  Name = 657077
REMARK  7 active torsions:
REMARK  status: ('A' for Active; 'I' for Inactive)
REMARK    1  A    between atoms: C_3  and  C_23
REMARK    2  A    between atoms: C_8  and  C_10
REMARK    3  A    between atoms: C_12  and  C_15
REMARK    4  A    between atoms: C_15  and  C_16
REMARK    5  A    between atoms: C_16  and  C_17
REMARK    6  A    between atoms: C_26  and  C_29
REMARK    7  A    between atoms: C_29  and  N_30
REMARK                            x       y       z     vdW  Elec       q    Type
REMARK                         _______ _______ _______ _____ _____    ______ ____
ROOT
ATOM      1  O   UNL     1      32.673 -15.596 -26.074  0.00  0.00    -0.270 OA
ATOM      2  N   UNL     1      34.165 -16.309 -24.421  0.00  0.00    -0.276 N 
ATOM      3  C   UNL     1      34.755 -18.482 -22.603  0.00  0.00    +0.026 C 
ATOM      4  C   UNL     1      34.640 -17.025 -22.115  0.00  0.00    +0.026 C 
ATOM      5  C   UNL     1      33.917 -18.693 -23.879  0.00  0.00    +0.026 C 
ATOM      6  C   UNL     1      34.989 -16.044 -23.234  0.00  0.00    +0.094 C 
ATOM      7  C   UNL     1      34.279 -17.668 -24.952  0.00  0.00    +0.094 C 
ATOM      8  C   UNL     1      33.343 -15.382 -25.065  0.00  0.00    +0.251 C 
ENDROOT
BRANCH   8  10
ATOM      9  N   UNL     1      32.673 -12.626 -22.620  0.00  0.00    -0.242 NA
ATOM     10  C   UNL     1      33.243 -14.033 -24.496  0.00  0.00    +0.072 C 
ATOM     11  C   UNL     1      33.604 -12.919 -25.240  0.00  0.00    +0.003 C 
ATOM     12  C   UNL     1      33.499 -11.653 -24.674  0.00  0.00    -0.003 C 
ATOM     13  C   UNL     1      32.788 -13.840 -23.205  0.00  0.00    +0.103 C 
ATOM     14  C   UNL     1      33.033 -11.562 -23.372  0.00  0.00    +0.095 C 
BRANCH  12  15
ATOM     15  C   UNL     1      33.877 -10.436 -25.440  0.00  0.00    +0.033 C 
BRANCH  15  16
ATOM     16  C   UNL     1      34.675  -9.397 -24.622  0.00  0.00    +0.031 C 
BRANCH  16  17
ATOM     17  C   UNL     1      33.877  -8.156 -24.302  0.00  0.00    -0.022 C 
ATOM     18  C   UNL     1      33.671  -7.207 -25.291  0.00  0.00    -0.004 C 
ATOM     19  C   UNL     1      33.367  -7.988 -23.025  0.00  0.00    -0.004 C 
ATOM     20  C   UNL     1      32.934  -6.060 -24.995  0.00  0.00    -0.000 C 
ATOM     21  C   UNL     1      32.629  -6.841 -22.730  0.00  0.00    -0.000 C 
ATOM     22  C   UNL     1      32.414  -5.877 -23.715  0.00  0.00    -0.000 C 
ENDBRANCH  16  17
ENDBRANCH  15  16
ENDBRANCH  12  15
ENDBRANCH   8  10
BRANCH   3  23
ATOM     23  C   UNL     1      34.397 -19.477 -21.515  0.00  0.00    -0.023 C 
ATOM     24  C   UNL     1      35.403 -20.050 -20.740  0.00  0.00    -0.011 C 
ATOM     25  C   UNL     1      33.063 -19.813 -21.293  0.00  0.00    -0.004 C 
ATOM     26  C   UNL     1      35.074 -20.963 -19.739  0.00  0.00    -0.045 C 
ATOM     27  C   UNL     1      32.734 -20.727 -20.292  0.00  0.00    -0.001 C 
ATOM     28  C   UNL     1      33.739 -21.301 -19.515  0.00  0.00    -0.006 C 
BRANCH  26  29
ATOM     29  C   UNL     1      36.148 -21.578 -18.906  0.00  0.00    -0.059 C 
BRANCH  29  30
ATOM     30  N   UNL     1      35.631 -22.141 -17.657  0.00  0.00    +0.383 N 
ATOM     31  H   UNL     1      35.082 -22.976 -17.863  0.00  0.00    -0.089 HD
ATOM     32  H   UNL     1      35.040 -21.452 -17.192  0.00  0.00    -0.089 HD
ATOM     33  H   UNL     1      36.410 -22.389 -17.048  0.00  0.00    -0.089 HD
ENDBRANCH  29  30
ENDBRANCH  26  29
ENDBRANCH   3  23
TORSDOF 7
ENDMDL
MODEL 7
REMARK VINA RESULT:     -11.1      4.513     10.380
REMARK  Name = 657077
REMARK  7 active torsions:
REMARK  status: ('A' for Active; 'I' for Inactive)
REMARK    1  A    between atoms: C_3  and  C_23
REMARK    2  A    between atoms: C_8  and  C_10
REMARK    3  A    between atoms: C_12  and  C_15
REMARK    4  A    between atoms: C_15  and  C_16
REMARK    5  A    between atoms: C_16  and  C_17
REMARK    6  A    between atoms: C_26  and  C_29
REMARK    7  A    between atoms: C_29  and  N_30
REMARK                            x       y       z     vdW  Elec       q    Type
REMARK                         _______ _______ _______ _____ _____    ______ ____
ROOT
ATOM      1  O   UNL     1      32.581 -16.296 -26.181  0.00  0.00    -0.270 OA
ATOM      2  N   UNL     1      34.123 -16.871 -24.520  0.00  0.00    -0.276 N 
ATOM      3  C   UNL     1      34.765 -18.882 -22.541  0.00  0.00    +0.026 C 
ATOM      4  C   UNL     1      34.669 -17.387 -22.176  0.00  0.00    +0.026 C 
ATOM      5  C   UNL     1      33.886 -19.198 -23.766  0.00  0.00    +0.026 C 
ATOM      6  C   UNL     1      34.984 -16.509 -23.387  0.00  0.00    +0.094 C 
ATOM      7  C   UNL     1      34.216 -18.271 -24.935  0.00  0.00    +0.094 C 
ATOM      8  C   UNL     1      33.283 -15.998 -25.215  0.00  0.00    +0.251 C 
ENDROOT
BRANCH   8  10
ATOM      9  N   UNL     1      33.341 -12.256 -25.295  0.00  0.00    -0.242 NA
ATOM     10  C   UNL     1      33.205 -14.605 -24.762  0.00  0.00    +0.072 C 
ATOM     11  C   UNL     1      32.934 -14.303 -23.435  0.00  0.00    +0.003 C 
ATOM     12  C   UNL     1      32.867 -12.972 -23.035  0.00  0.00    -0.003 C 
ATOM     13  C   UNL     1      33.399 -13.561 -25.646  0.00  0.00    +0.103 C 
ATOM     14  C   UNL     1      33.075 -11.995 -23.996  0.00  0.00    +0.095 C 
BRANCH  12  15
ATOM     15  C   UNL     1      32.578 -12.610 -21.622  0.00  0.00    +0.033 C 
BRANCH  15  16
ATOM     16  C   UNL     1      31.184 -11.986 -21.402  0.00  0.00    +0.031 C 
BRANCH  16  17
ATOM     17  C   UNL     1      31.238 -10.512 -21.078  0.00  0.00    -0.022 C 
ATOM     18  C   UNL     1      31.390 -10.112 -19.759  0.00  0.00    -0.004 C 
ATOM     19  C   UNL     1      31.135  -9.587 -22.104  0.00  0.00    -0.004 C 
ATOM     20  C   UNL     1      31.439  -8.751 -19.460  0.00  0.00    -0.000 C 
ATOM     21  C   UNL     1      31.185  -8.226 -21.804  0.00  0.00    -0.000 C 
ATOM     22  C   UNL     1      31.337  -7.808 -20.481  0.00  0.00    -0.000 C 
ENDBRANCH  16  17
ENDBRANCH  15  16
ENDBRANCH  12  15
ENDBRANCH   8  10
BRANCH   3  23
ATOM     23  C   UNL     1      34.439 -19.777 -21.360  0.00  0.00    -0.023 C 
ATOM     24  C   UNL     1      35.468 -20.284 -20.568  0.00  0.00    -0.011 C 
ATOM     25  C   UNL     1      33.112 -20.088 -21.069  0.00  0.00    -0.004 C 
ATOM     26  C   UNL     1      35.168 -21.105 -19.482  0.00  0.00    -0.045 C 
ATOM     27  C   UNL     1      32.813 -20.910 -19.983  0.00  0.00    -0.001 C 
ATOM     28  C   UNL     1      33.841 -21.418 -19.189  0.00  0.00    -0.006 C 
BRANCH  26  29
ATOM     29  C   UNL     1      36.267 -21.649 -18.631  0.00  0.00    -0.059 C 
BRANCH  29  30
ATOM     30  N   UNL     1      35.770 -22.220 -17.378  0.00  0.00    +0.383 N 
ATOM     31  H   UNL     1      35.268 -23.086 -17.574  0.00  0.00    -0.089 HD
ATOM     32  H   UNL     1      35.140 -21.555 -16.928  0.00  0.00    -0.089 HD
ATOM     33  H   UNL     1      36.557 -22.416 -16.759  0.00  0.00    -0.089 HD
ENDBRANCH  29  30
ENDBRANCH  26  29
ENDBRANCH   3  23
TORSDOF 7
ENDMDL
MODEL 8
REMARK VINA RESULT:     -11.1      3.811     11.274
REMARK  Name = 657077
REMARK  7 active torsions:
REMARK  status: ('A' for Active; 'I' for Inactive)
REMARK    1  A    between atoms: C_3  and  C_23
REMARK    2  A    between atoms: C_8  and  C_10
REMARK    3  A    between atoms: C_12  and  C_15
REMARK    4  A    between atoms: C_15  and  C_16
REMARK    5  A    between atoms: C_16  and  C_17
REMARK    6  A    between atoms: C_26  and  C_29
REMARK    7  A    between atoms: C_29  and  N_30
REMARK                            x       y       z     vdW  Elec       q    Type
REMARK                         _______ _______ _______ _____ _____    ______ ____
ROOT
ATOM      1  O   UNL     1      31.436 -15.922 -27.227  0.00  0.00    -0.270 OA
ATOM      2  N   UNL     1      33.436 -16.663 -26.268  0.00  0.00    -0.276 N 
ATOM      3  C   UNL     1      34.534 -18.425 -24.252  0.00  0.00    +0.026 C 
ATOM      4  C   UNL     1      34.918 -16.934 -24.322  0.00  0.00    +0.026 C 
ATOM      5  C   UNL     1      33.134 -18.652 -24.857  0.00  0.00    +0.026 C 
ATOM      6  C   UNL     1      34.784 -16.402 -25.749  0.00  0.00    +0.094 C 
ATOM      7  C   UNL     1      33.043 -18.072 -26.268  0.00  0.00    +0.094 C 
ATOM      8  C   UNL     1      32.555 -15.700 -26.768  0.00  0.00    +0.251 C 
ENDROOT
BRANCH   8  10
ATOM      9  N   UNL     1      33.878 -12.392 -27.918  0.00  0.00    -0.242 NA
ATOM     10  C   UNL     1      32.978 -14.295 -26.740  0.00  0.00    +0.072 C 
ATOM     11  C   UNL     1      32.891 -13.550 -25.573  0.00  0.00    +0.003 C 
ATOM     12  C   UNL     1      33.299 -12.220 -25.577  0.00  0.00    -0.003 C 
ATOM     13  C   UNL     1      33.472 -13.682 -27.875  0.00  0.00    +0.103 C 
ATOM     14  C   UNL     1      33.780 -11.694 -26.765  0.00  0.00    +0.095 C 
BRANCH  12  15
ATOM     15  C   UNL     1      33.220 -11.390 -24.346  0.00  0.00    +0.033 C 
BRANCH  15  16
ATOM     16  C   UNL     1      34.292 -10.283 -24.261  0.00  0.00    +0.031 C 
BRANCH  16  17
ATOM     17  C   UNL     1      33.705  -8.897 -24.142  0.00  0.00    -0.022 C 
ATOM     18  C   UNL     1      33.603  -8.103 -25.273  0.00  0.00    -0.004 C 
ATOM     19  C   UNL     1      33.279  -8.445 -22.904  0.00  0.00    -0.004 C 
ATOM     20  C   UNL     1      33.061  -6.822 -25.163  0.00  0.00    -0.000 C 
ATOM     21  C   UNL     1      32.736  -7.164 -22.794  0.00  0.00    -0.000 C 
ATOM     22  C   UNL     1      32.627  -6.353 -23.924  0.00  0.00    -0.000 C 
ENDBRANCH  16  17
ENDBRANCH  15  16
ENDBRANCH  12  15
ENDBRANCH   8  10
BRANCH   3  23
ATOM     23  C   UNL     1      34.641 -18.974 -22.842  0.00  0.00    -0.023 C 
ATOM     24  C   UNL     1      33.509 -19.479 -22.206  0.00  0.00    -0.011 C 
ATOM     25  C   UNL     1      35.872 -18.975 -22.189  0.00  0.00    -0.004 C 
ATOM     26  C   UNL     1      33.607 -19.985 -20.910  0.00  0.00    -0.045 C 
ATOM     27  C   UNL     1      35.970 -19.480 -20.892  0.00  0.00    -0.001 C 
ATOM     28  C   UNL     1      34.838 -19.986 -20.253  0.00  0.00    -0.006 C 
BRANCH  26  29
ATOM     29  C   UNL     1      32.397 -20.526 -20.226  0.00  0.00    -0.059 C 
BRANCH  29  30
ATOM     30  N   UNL     1      32.662 -21.799 -19.551  0.00  0.00    +0.383 N 
ATOM     31  H   UNL     1      31.955 -21.956 -18.833  0.00  0.00    -0.089 HD
ATOM     32  H   UNL     1      33.585 -21.769 -19.120  0.00  0.00    -0.089 HD
ATOM     33  H   UNL     1      32.628 -22.557 -20.232  0.00  0.00    -0.089 HD
ENDBRANCH  29  30
ENDBRANCH  26  29
ENDBRANCH   3  23
TORSDOF 7
ENDMDL
MODEL 9
REMARK VINA RESULT:     -10.8      2.524     11.419
REMARK  Name = 657077
REMARK  7 active torsions:
REMARK  status: ('A' for Active; 'I' for Inactive)
REMARK    1  A    between atoms: C_3  and  C_23
REMARK    2  A    between atoms: C_8  and  C_10
REMARK    3  A    between atoms: C_12  and  C_15
REMARK    4  A    between atoms: C_15  and  C_16
REMARK    5  A    between atoms: C_16  and  C_17
REMARK    6  A    between atoms: C_26  and  C_29
REMARK    7  A    between atoms: C_29  and  N_30
REMARK                            x       y       z     vdW  Elec       q    Type
REMARK                         _______ _______ _______ _____ _____    ______ ____
ROOT
ATOM      1  O   UNL     1      31.928 -20.222 -20.178  0.00  0.00    -0.270 OA
ATOM      2  N   UNL     1      33.335 -21.872 -19.303  0.00  0.00    -0.276 N 
ATOM      3  C   UNL     1      33.911 -23.411 -16.920  0.00  0.00    +0.026 C 
ATOM      4  C   UNL     1      35.009 -22.624 -17.662  0.00  0.00    +0.026 C 
ATOM      5  C   UNL     1      32.530 -22.771 -17.162  0.00  0.00    +0.026 C 
ATOM      6  C   UNL     1      34.666 -22.473 -19.144  0.00  0.00    +0.094 C 
ATOM      7  C   UNL     1      32.250 -22.611 -18.656  0.00  0.00    +0.094 C 
ATOM      8  C   UNL     1      33.047 -20.711 -20.024  0.00  0.00    +0.251 C 
ENDROOT
BRANCH   8  10
ATOM      9  N   UNL     1      36.475 -19.307 -20.567  0.00  0.00    -0.242 NA
ATOM     10  C   UNL     1      34.162 -19.989 -20.647  0.00  0.00    +0.072 C 
ATOM     11  C   UNL     1      33.993 -19.326 -21.854  0.00  0.00    +0.003 C 
ATOM     12  C   UNL     1      35.068 -18.650 -22.422  0.00  0.00    -0.003 C 
ATOM     13  C   UNL     1      35.406 -19.953 -20.047  0.00  0.00    +0.103 C 
ATOM     14  C   UNL     1      36.277 -18.672 -21.744  0.00  0.00    +0.095 C 
BRANCH  12  15
ATOM     15  C   UNL     1      34.925 -17.929 -23.714  0.00  0.00    +0.033 C 
BRANCH  15  16
ATOM     16  C   UNL     1      34.091 -18.685 -24.770  0.00  0.00    +0.031 C 
BRANCH  16  17
ATOM     17  C   UNL     1      33.325 -17.764 -25.690  0.00  0.00    -0.022 C 
ATOM     18  C   UNL     1      33.813 -16.491 -25.938  0.00  0.00    -0.004 C 
ATOM     19  C   UNL     1      32.148 -18.210 -26.269  0.00  0.00    -0.004 C 
ATOM     20  C   UNL     1      33.105 -15.641 -26.787  0.00  0.00    -0.000 C 
ATOM     21  C   UNL     1      31.440 -17.360 -27.119  0.00  0.00    -0.000 C 
ATOM     22  C   UNL     1      31.919 -16.075 -27.377  0.00  0.00    -0.000 C 
ENDBRANCH  16  17
ENDBRANCH  15  16
ENDBRANCH  12  15
ENDBRANCH   8  10
BRANCH   3  23
ATOM     23  C   UNL     1      34.218 -23.560 -15.442  0.00  0.00    -0.023 C 
ATOM     24  C   UNL     1      35.518 -23.363 -14.980  0.00  0.00    -0.011 C 
ATOM     25  C   UNL     1      33.199 -23.891 -14.550  0.00  0.00    -0.004 C 
ATOM     26  C   UNL     1      35.801 -23.499 -13.622  0.00  0.00    -0.045 C 
ATOM     27  C   UNL     1      33.482 -24.027 -13.191  0.00  0.00    -0.001 C 
ATOM     28  C   UNL     1      34.783 -23.831 -12.727  0.00  0.00    -0.006 C 
BRANCH  26  29
ATOM     29  C   UNL     1      37.191 -23.289 -13.123  0.00  0.00    -0.059 C 
BRANCH  29  30
ATOM     30  N   UNL     1      37.247 -23.164 -11.665  0.00  0.00    +0.383 N 
ATOM     31  H   UNL     1      36.533 -22.506 -11.353  0.00  0.00    -0.089 HD
ATOM     32  H   UNL     1      38.168 -22.825 -11.388  0.00  0.00    -0.089 HD
ATOM     33  H   UNL     1      37.078 -24.076 -11.240  0.00  0.00    -0.089 HD
ENDBRANCH  29  30
ENDBRANCH  26  29
ENDBRANCH   3  23
TORSDOF 7
ENDMDL
