MODEL 1
REMARK VINA RESULT:     -11.0      0.000      0.000
REMARK  Name = 11992146
REMARK  2 active torsions:
REMARK  status: ('A' for Active; 'I' for Inactive)
REMARK    1  A    between atoms: C_2  and  C_14
REMARK    2  A    between atoms: C_5  and  C_20
REMARK                            x       y       z     vdW  Elec       q    Type
REMARK                         _______ _______ _______ _____ _____    ______ ____
ROOT
ATOM      1  N   UNL     1      33.155 -24.654 -14.504  0.00  0.00    -0.244 NA
ATOM      2  C   UNL     1      33.503 -23.100 -16.800  0.00  0.00    +0.016 C 
ATOM      3  C   UNL     1      34.608 -23.517 -16.067  0.00  0.00    +0.020 C 
ATOM      4  C   UNL     1      32.225 -23.458 -16.388  0.00  0.00    +0.022 C 
ATOM      5  C   UNL     1      34.382 -24.286 -14.936  0.00  0.00    +0.084 C 
ATOM      6  C   UNL     1      32.106 -24.230 -15.243  0.00  0.00    +0.099 C 
ENDROOT
BRANCH   2  14
ATOM      7  O   UNL     1      31.795 -20.164 -21.263  0.00  0.00    -0.270 OA
ATOM      8  N   UNL     1      34.927 -22.020 -18.494  0.00  0.00    -0.316 N 
ATOM      9  N   UNL     1      34.001 -19.603 -21.664  0.00  0.00    -0.300 N 
ATOM     10  C   UNL     1      34.786 -21.250 -19.613  0.00  0.00    +0.031 C 
ATOM     11  C   UNL     1      35.882 -20.756 -20.478  0.00  0.00    +0.063 C 
ATOM     12  C   UNL     1      33.443 -21.022 -19.826  0.00  0.00    +0.064 C 
ATOM     13  C   UNL     1      35.385 -19.492 -21.189  0.00  0.00    +0.096 C 
ATOM     14  C   UNL     1      33.682 -22.297 -17.986  0.00  0.00    +0.048 C 
ATOM     15  C   UNL     1      32.740 -21.694 -18.796  0.00  0.00    +0.020 C 
ATOM     16  C   UNL     1      32.981 -20.238 -20.955  0.00  0.00    +0.247 C 
ATOM     17  H   UNL     1      35.783 -22.326 -18.114  0.00  0.00    +0.152 HD
ATOM     18  H   UNL     1      33.779 -19.205 -22.537  0.00  0.00    +0.150 HD
ENDBRANCH   2  14
BRANCH   5  20
ATOM     19  F   UNL     1      35.841 -26.598 -15.584  0.00  0.00    -0.204 F 
ATOM     20  C   UNL     1      35.480 -24.755 -14.125  0.00  0.00    +0.045 C 
ATOM     21  C   UNL     1      36.177 -25.911 -14.483  0.00  0.00    +0.142 C 
ATOM     22  C   UNL     1      35.847 -24.052 -12.975  0.00  0.00    +0.004 C 
ATOM     23  C   UNL     1      37.236 -26.362 -13.693  0.00  0.00    +0.030 C 
ATOM     24  C   UNL     1      36.904 -24.503 -12.186  0.00  0.00    +0.000 C 
ATOM     25  C   UNL     1      37.599 -25.659 -12.545  0.00  0.00    +0.002 C 
ENDBRANCH   5  20
TORSDOF 2
ENDMDL
MODEL 2
REMARK VINA RESULT:     -10.9      4.672      7.784
REMARK  Name = 11992146
REMARK  2 active torsions:
REMARK  status: ('A' for Active; 'I' for Inactive)
REMARK    1  A    between atoms: C_2  and  C_14
REMARK    2  A    between atoms: C_5  and  C_20
REMARK                            x       y       z     vdW  Elec       q    Type
REMARK                         _______ _______ _______ _____ _____    ______ ____
ROOT
ATOM      1  N   UNL     1      36.238 -19.780 -20.752  0.00  0.00    -0.244 NA
ATOM      2  C   UNL     1      34.820 -18.449 -22.758  0.00  0.00    +0.016 C 
ATOM      3  C   UNL     1      34.156 -19.308 -21.889  0.00  0.00    +0.020 C 
ATOM      4  C   UNL     1      36.189 -18.254 -22.626  0.00  0.00    +0.022 C 
ATOM      5  C   UNL     1      34.905 -19.944 -20.911  0.00  0.00    +0.084 C 
ATOM      6  C   UNL     1      36.847 -18.939 -21.616  0.00  0.00    +0.099 C 
ENDROOT
BRANCH   2  14
ATOM      7  O   UNL     1      33.270 -13.994 -25.793  0.00  0.00    -0.270 OA
ATOM      8  N   UNL     1      33.145 -18.397 -24.563  0.00  0.00    -0.316 N 
ATOM      9  N   UNL     1      32.013 -15.409 -27.119  0.00  0.00    -0.300 N 
ATOM     10  C   UNL     1      32.620 -17.502 -25.450  0.00  0.00    +0.031 C 
ATOM     11  C   UNL     1      31.553 -17.776 -26.440  0.00  0.00    +0.063 C 
ATOM     12  C   UNL     1      33.232 -16.280 -25.259  0.00  0.00    +0.064 C 
ATOM     13  C   UNL     1      31.705 -16.766 -27.584  0.00  0.00    +0.096 C 
ATOM     14  C   UNL     1      34.088 -17.760 -23.794  0.00  0.00    +0.048 C 
ATOM     15  C   UNL     1      34.159 -16.442 -24.201  0.00  0.00    +0.020 C 
ATOM     16  C   UNL     1      32.869 -15.124 -26.055  0.00  0.00    +0.247 C 
ATOM     17  H   UNL     1      32.889 -19.345 -24.487  0.00  0.00    +0.152 HD
ATOM     18  H   UNL     1      31.590 -14.652 -27.587  0.00  0.00    +0.150 HD
ENDBRANCH   2  14
BRANCH   5  20
ATOM     19  F   UNL     1      32.118 -20.086 -20.583  0.00  0.00    -0.204 F 
ATOM     20  C   UNL     1      34.286 -20.850 -19.973  0.00  0.00    +0.045 C 
ATOM     21  C   UNL     1      32.896 -20.886 -19.841  0.00  0.00    +0.142 C 
ATOM     22  C   UNL     1      35.079 -21.693 -19.192  0.00  0.00    +0.004 C 
ATOM     23  C   UNL     1      32.303 -21.761 -18.930  0.00  0.00    +0.030 C 
ATOM     24  C   UNL     1      34.486 -22.567 -18.282  0.00  0.00    +0.000 C 
ATOM     25  C   UNL     1      33.098 -22.601 -18.150  0.00  0.00    +0.002 C 
ENDBRANCH   5  20
TORSDOF 2
ENDMDL
MODEL 3
REMARK VINA RESULT:     -10.5      6.814     10.479
REMARK  Name = 11992146
REMARK  2 active torsions:
REMARK  status: ('A' for Active; 'I' for Inactive)
REMARK    1  A    between atoms: C_2  and  C_14
REMARK    2  A    between atoms: C_5  and  C_20
REMARK                            x       y       z     vdW  Elec       q    Type
REMARK                         _______ _______ _______ _____ _____    ______ ____
ROOT
ATOM      1  N   UNL     1      34.126 -18.841 -24.775  0.00  0.00    -0.244 NA
ATOM      2  C   UNL     1      33.621 -16.094 -24.830  0.00  0.00    +0.016 C 
ATOM      3  C   UNL     1      34.111 -16.689 -23.673  0.00  0.00    +0.020 C 
ATOM      4  C   UNL     1      33.382 -16.869 -25.958  0.00  0.00    +0.022 C 
ATOM      5  C   UNL     1      34.345 -18.055 -23.697  0.00  0.00    +0.084 C 
ATOM      6  C   UNL     1      33.649 -18.227 -25.880  0.00  0.00    +0.099 C 
ENDROOT
BRANCH   2  14
ATOM      7  O   UNL     1      32.575 -11.063 -22.581  0.00  0.00    -0.270 OA
ATOM      8  N   UNL     1      33.199 -13.990 -26.039  0.00  0.00    -0.316 N 
ATOM      9  N   UNL     1      32.693 -10.156 -24.703  0.00  0.00    -0.300 N 
ATOM     10  C   UNL     1      32.961 -12.675 -25.758  0.00  0.00    +0.031 C 
ATOM     11  C   UNL     1      32.705 -11.603 -26.747  0.00  0.00    +0.063 C 
ATOM     12  C   UNL     1      32.974 -12.507 -24.389  0.00  0.00    +0.064 C 
ATOM     13  C   UNL     1      33.106 -10.269 -26.106  0.00  0.00    +0.096 C 
ATOM     14  C   UNL     1      33.359 -14.675 -24.859  0.00  0.00    +0.048 C 
ATOM     15  C   UNL     1      33.219 -13.779 -23.817  0.00  0.00    +0.020 C 
ATOM     16  C   UNL     1      32.739 -11.208 -23.788  0.00  0.00    +0.247 C 
ATOM     17  H   UNL     1      33.248 -14.383 -26.941  0.00  0.00    +0.152 HD
ATOM     18  H   UNL     1      32.363  -9.283 -24.387  0.00  0.00    +0.150 HD
ENDBRANCH   2  14
BRANCH   5  20
ATOM     19  F   UNL     1      32.696 -19.603 -22.031  0.00  0.00    -0.204 F 
ATOM     20  C   UNL     1      34.855 -18.742 -22.535  0.00  0.00    +0.045 C 
ATOM     21  C   UNL     1      33.999 -19.500 -21.733  0.00  0.00    +0.142 C 
ATOM     22  C   UNL     1      36.209 -18.648 -22.209  0.00  0.00    +0.004 C 
ATOM     23  C   UNL     1      34.496 -20.160 -20.608  0.00  0.00    +0.030 C 
ATOM     24  C   UNL     1      36.706 -19.308 -21.085  0.00  0.00    +0.000 C 
ATOM     25  C   UNL     1      35.849 -20.063 -20.284  0.00  0.00    +0.002 C 
ENDBRANCH   5  20
TORSDOF 2
ENDMDL
MODEL 4
REMARK VINA RESULT:     -10.5      2.920      5.145
REMARK  Name = 11992146
REMARK  2 active torsions:
REMARK  status: ('A' for Active; 'I' for Inactive)
REMARK    1  A    between atoms: C_2  and  C_14
REMARK    2  A    between atoms: C_5  and  C_20
REMARK                            x       y       z     vdW  Elec       q    Type
REMARK                         _______ _______ _______ _____ _____    ______ ____
ROOT
ATOM      1  N   UNL     1      36.751 -22.698 -16.697  0.00  0.00    -0.244 NA
ATOM      2  C   UNL     1      34.021 -23.129 -16.291  0.00  0.00    +0.016 C 
ATOM      3  C   UNL     1      34.953 -23.743 -15.463  0.00  0.00    +0.020 C 
ATOM      4  C   UNL     1      34.450 -22.300 -17.321  0.00  0.00    +0.022 C 
ATOM      5  C   UNL     1      36.296 -23.497 -15.706  0.00  0.00    +0.084 C 
ATOM      6  C   UNL     1      35.815 -22.120 -17.481  0.00  0.00    +0.099 C 
ENDROOT
BRANCH   2  14
ATOM      7  O   UNL     1      28.550 -22.366 -17.265  0.00  0.00    -0.270 OA
ATOM      8  N   UNL     1      32.143 -24.157 -15.074  0.00  0.00    -0.316 N 
ATOM      9  N   UNL     1      28.104 -24.023 -15.717  0.00  0.00    -0.300 N 
ATOM     10  C   UNL     1      30.778 -24.174 -15.118  0.00  0.00    +0.031 C 
ATOM     11  C   UNL     1      29.883 -24.899 -14.187  0.00  0.00    +0.063 C 
ATOM     12  C   UNL     1      30.360 -23.380 -16.165  0.00  0.00    +0.064 C 
ATOM     13  C   UNL     1      28.562 -25.166 -14.919  0.00  0.00    +0.096 C 
ATOM     14  C   UNL     1      32.610 -23.350 -16.083  0.00  0.00    +0.048 C 
ATOM     15  C   UNL     1      31.524 -22.850 -16.773  0.00  0.00    +0.020 C 
ATOM     16  C   UNL     1      28.951 -23.196 -16.455  0.00  0.00    +0.247 C 
ATOM     17  H   UNL     1      32.701 -24.644 -14.424  0.00  0.00    +0.152 HD
ATOM     18  H   UNL     1      27.139 -23.827 -15.733  0.00  0.00    +0.150 HD
ENDBRANCH   2  14
BRANCH   5  20
ATOM     19  F   UNL     1      36.267 -23.326 -12.902  0.00  0.00    -0.204 F 
ATOM     20  C   UNL     1      37.321 -24.099 -14.888  0.00  0.00    +0.045 C 
ATOM     21  C   UNL     1      37.269 -23.988 -13.497  0.00  0.00    +0.142 C 
ATOM     22  C   UNL     1      38.372 -24.794 -15.489  0.00  0.00    +0.004 C 
ATOM     23  C   UNL     1      38.265 -24.569 -12.711  0.00  0.00    +0.030 C 
ATOM     24  C   UNL     1      39.368 -25.375 -14.704  0.00  0.00    +0.000 C 
ATOM     25  C   UNL     1      39.314 -25.262 -13.314  0.00  0.00    +0.002 C 
ENDBRANCH   5  20
TORSDOF 2
ENDMDL
MODEL 5
REMARK VINA RESULT:     -10.2      6.824     10.348
REMARK  Name = 11992146
REMARK  2 active torsions:
REMARK  status: ('A' for Active; 'I' for Inactive)
REMARK    1  A    between atoms: C_2  and  C_14
REMARK    2  A    between atoms: C_5  and  C_20
REMARK                            x       y       z     vdW  Elec       q    Type
REMARK                         _______ _______ _______ _____ _____    ______ ____
ROOT
ATOM      1  N   UNL     1      33.912 -19.247 -24.638  0.00  0.00    -0.244 NA
ATOM      2  C   UNL     1      33.588 -16.500 -25.033  0.00  0.00    +0.016 C 
ATOM      3  C   UNL     1      34.158 -16.972 -23.856  0.00  0.00    +0.020 C 
ATOM      4  C   UNL     1      33.179 -17.398 -26.011  0.00  0.00    +0.022 C 
ATOM      5  C   UNL     1      34.297 -18.343 -23.709  0.00  0.00    +0.084 C 
ATOM      6  C   UNL     1      33.361 -18.751 -25.767  0.00  0.00    +0.099 C 
ENDROOT
BRANCH   2  14
ATOM      7  O   UNL     1      32.390 -11.893 -27.999  0.00  0.00    -0.270 OA
ATOM      8  N   UNL     1      33.720 -14.166 -24.260  0.00  0.00    -0.316 N 
ATOM      9  N   UNL     1      32.658 -10.652 -26.068  0.00  0.00    -0.300 N 
ATOM     10  C   UNL     1      33.468 -12.912 -24.736  0.00  0.00    +0.031 C 
ATOM     11  C   UNL     1      33.685 -11.640 -24.008  0.00  0.00    +0.063 C 
ATOM     12  C   UNL     1      32.994 -13.016 -26.027  0.00  0.00    +0.064 C 
ATOM     13  C   UNL     1      32.739 -10.591 -24.604  0.00  0.00    +0.096 C 
ATOM     14  C   UNL     1      33.419 -15.082 -25.238  0.00  0.00    +0.048 C 
ATOM     15  C   UNL     1      32.971 -14.395 -26.349  0.00  0.00    +0.020 C 
ATOM     16  C   UNL     1      32.647 -11.840 -26.800  0.00  0.00    +0.247 C 
ATOM     17  H   UNL     1      34.062 -14.379 -23.361  0.00  0.00    +0.152 HD
ATOM     18  H   UNL     1      32.607  -9.803 -26.564  0.00  0.00    +0.150 HD
ENDBRANCH   2  14
BRANCH   5  20
ATOM     19  F   UNL     1      32.780 -19.797 -21.842  0.00  0.00    -0.204 F 
ATOM     20  C   UNL     1      34.881 -18.907 -22.515  0.00  0.00    +0.045 C 
ATOM     21  C   UNL     1      34.089 -19.621 -21.613  0.00  0.00    +0.142 C 
ATOM     22  C   UNL     1      36.243 -18.738 -22.259  0.00  0.00    +0.004 C 
ATOM     23  C   UNL     1      34.658 -20.162 -20.459  0.00  0.00    +0.030 C 
ATOM     24  C   UNL     1      36.811 -19.277 -21.106  0.00  0.00    +0.000 C 
ATOM     25  C   UNL     1      36.019 -19.989 -20.205  0.00  0.00    +0.002 C 
ENDBRANCH   5  20
TORSDOF 2
ENDMDL
MODEL 6
REMARK VINA RESULT:     -10.1      8.215     13.493
REMARK  Name = 11992146
REMARK  2 active torsions:
REMARK  status: ('A' for Active; 'I' for Inactive)
REMARK    1  A    between atoms: C_2  and  C_14
REMARK    2  A    between atoms: C_5  and  C_20
REMARK                            x       y       z     vdW  Elec       q    Type
REMARK                         _______ _______ _______ _____ _____    ______ ____
ROOT
ATOM      1  N   UNL     1      32.857 -11.932 -26.102  0.00  0.00    -0.244 NA
ATOM      2  C   UNL     1      33.596 -14.283 -24.786  0.00  0.00    +0.016 C 
ATOM      3  C   UNL     1      33.825 -13.049 -24.188  0.00  0.00    +0.020 C 
ATOM      4  C   UNL     1      32.999 -14.344 -26.039  0.00  0.00    +0.022 C 
ATOM      5  C   UNL     1      33.440 -11.913 -24.882  0.00  0.00    +0.084 C 
ATOM      6  C   UNL     1      32.652 -13.149 -26.650  0.00  0.00    +0.099 C 
ENDROOT
BRANCH   2  14
ATOM      7  O   UNL     1      34.516 -19.799 -24.357  0.00  0.00    -0.270 OA
ATOM      8  N   UNL     1      34.294 -15.515 -22.771  0.00  0.00    -0.316 N 
ATOM      9  N   UNL     1      35.306 -19.441 -22.215  0.00  0.00    -0.300 N 
ATOM     10  C   UNL     1      34.608 -16.793 -22.408  0.00  0.00    +0.031 C 
ATOM     11  C   UNL     1      34.979 -17.249 -21.048  0.00  0.00    +0.063 C 
ATOM     12  C   UNL     1      34.502 -17.607 -23.516  0.00  0.00    +0.064 C 
ATOM     13  C   UNL     1      35.821 -18.522 -21.193  0.00  0.00    +0.096 C 
ATOM     14  C   UNL     1      33.978 -15.498 -24.107  0.00  0.00    +0.048 C 
ATOM     15  C   UNL     1      34.093 -16.785 -24.595  0.00  0.00    +0.020 C 
ATOM     16  C   UNL     1      34.767 -19.030 -23.434  0.00  0.00    +0.247 C 
ATOM     17  H   UNL     1      34.294 -14.733 -22.172  0.00  0.00    +0.152 HD
ATOM     18  H   UNL     1      35.343 -20.407 -22.029  0.00  0.00    +0.150 HD
ENDBRANCH   2  14
BRANCH   5  20
ATOM     19  F   UNL     1      35.792 -10.444 -25.337  0.00  0.00    -0.204 F 
ATOM     20  C   UNL     1      33.645 -10.597 -24.325  0.00  0.00    +0.045 C 
ATOM     21  C   UNL     1      34.831  -9.903 -24.576  0.00  0.00    +0.142 C 
ATOM     22  C   UNL     1      32.655 -10.015 -23.531  0.00  0.00    +0.004 C 
ATOM     23  C   UNL     1      35.026  -8.632 -24.032  0.00  0.00    +0.030 C 
ATOM     24  C   UNL     1      32.850  -8.745 -22.988  0.00  0.00    +0.000 C 
ATOM     25  C   UNL     1      34.035  -8.054 -23.238  0.00  0.00    +0.002 C 
ENDBRANCH   5  20
TORSDOF 2
ENDMDL
MODEL 7
REMARK VINA RESULT:     -10.0      8.394     13.547
REMARK  Name = 11992146
REMARK  2 active torsions:
REMARK  status: ('A' for Active; 'I' for Inactive)
REMARK    1  A    between atoms: C_2  and  C_14
REMARK    2  A    between atoms: C_5  and  C_20
REMARK                            x       y       z     vdW  Elec       q    Type
REMARK                         _______ _______ _______ _____ _____    ______ ____
ROOT
ATOM      1  N   UNL     1      32.890 -11.906 -26.096  0.00  0.00    -0.244 NA
ATOM      2  C   UNL     1      33.618 -14.223 -24.713  0.00  0.00    +0.016 C 
ATOM      3  C   UNL     1      33.806 -12.975 -24.129  0.00  0.00    +0.020 C 
ATOM      4  C   UNL     1      33.068 -14.315 -25.986  0.00  0.00    +0.022 C 
ATOM      5  C   UNL     1      33.429 -11.857 -24.857  0.00  0.00    +0.084 C 
ATOM      6  C   UNL     1      32.724 -13.136 -26.630  0.00  0.00    +0.099 C 
ENDROOT
BRANCH   2  14
ATOM      7  O   UNL     1      35.319 -17.169 -20.253  0.00  0.00    -0.270 OA
ATOM      8  N   UNL     1      34.084 -16.639 -24.625  0.00  0.00    -0.316 N 
ATOM      9  N   UNL     1      35.052 -19.096 -21.499  0.00  0.00    -0.300 N 
ATOM     10  C   UNL     1      34.460 -17.579 -23.709  0.00  0.00    +0.031 C 
ATOM     11  C   UNL     1      34.698 -19.016 -23.978  0.00  0.00    +0.063 C 
ATOM     12  C   UNL     1      34.608 -16.966 -22.482  0.00  0.00    +0.064 C 
ATOM     13  C   UNL     1      34.483 -19.781 -22.666  0.00  0.00    +0.096 C 
ATOM     14  C   UNL     1      33.994 -15.420 -24.000  0.00  0.00    +0.048 C 
ATOM     15  C   UNL     1      34.320 -15.592 -22.669  0.00  0.00    +0.020 C 
ATOM     16  C   UNL     1      35.015 -17.715 -21.310  0.00  0.00    +0.247 C 
ATOM     17  H   UNL     1      33.905 -16.809 -25.579  0.00  0.00    +0.152 HD
ATOM     18  H   UNL     1      35.486 -19.647 -20.807  0.00  0.00    +0.150 HD
ENDBRANCH   2  14
BRANCH   5  20
ATOM     19  F   UNL     1      35.777 -10.363 -25.241  0.00  0.00    -0.204 F 
ATOM     20  C   UNL     1      33.593 -10.529 -24.316  0.00  0.00    +0.045 C 
ATOM     21  C   UNL     1      34.778  -9.822 -24.530  0.00  0.00    +0.142 C 
ATOM     22  C   UNL     1      32.563  -9.947 -23.574  0.00  0.00    +0.004 C 
ATOM     23  C   UNL     1      34.933  -8.540 -24.002  0.00  0.00    +0.030 C 
ATOM     24  C   UNL     1      32.717  -8.666 -23.046  0.00  0.00    +0.000 C 
ATOM     25  C   UNL     1      33.902  -7.962 -23.260  0.00  0.00    +0.002 C 
ENDBRANCH   5  20
TORSDOF 2
ENDMDL
MODEL 8
REMARK VINA RESULT:      -9.9      2.918      4.171
REMARK  Name = 11992146
REMARK  2 active torsions:
REMARK  status: ('A' for Active; 'I' for Inactive)
REMARK    1  A    between atoms: C_2  and  C_14
REMARK    2  A    between atoms: C_5  and  C_20
REMARK                            x       y       z     vdW  Elec       q    Type
REMARK                         _______ _______ _______ _____ _____    ______ ____
ROOT
ATOM      1  N   UNL     1      35.517 -23.396 -15.619  0.00  0.00    -0.244 NA
ATOM      2  C   UNL     1      35.576 -21.850 -17.946  0.00  0.00    +0.016 C 
ATOM      3  C   UNL     1      34.364 -22.314 -17.448  0.00  0.00    +0.020 C 
ATOM      4  C   UNL     1      36.758 -22.158 -17.283  0.00  0.00    +0.022 C 
ATOM      5  C   UNL     1      34.388 -23.077 -16.291  0.00  0.00    +0.084 C 
ATOM      6  C   UNL     1      36.675 -22.928 -16.133  0.00  0.00    +0.099 C 
ENDROOT
BRANCH   2  14
ATOM      7  O   UNL     1      38.011 -18.727 -21.918  0.00  0.00    -0.270 OA
ATOM      8  N   UNL     1      34.465 -20.727 -19.834  0.00  0.00    -0.316 N 
ATOM      9  N   UNL     1      35.978 -18.641 -23.013  0.00  0.00    -0.300 N 
ATOM     10  C   UNL     1      34.800 -19.967 -20.918  0.00  0.00    +0.031 C 
ATOM     11  C   UNL     1      33.859 -19.386 -21.903  0.00  0.00    +0.063 C 
ATOM     12  C   UNL     1      36.170 -19.805 -20.936  0.00  0.00    +0.064 C 
ATOM     13  C   UNL     1      34.625 -19.174 -23.214  0.00  0.00    +0.096 C 
ATOM     14  C   UNL     1      35.608 -21.052 -19.147  0.00  0.00    +0.048 C 
ATOM     15  C   UNL     1      36.683 -20.487 -19.806  0.00  0.00    +0.020 C 
ATOM     16  C   UNL     1      36.822 -19.029 -21.973  0.00  0.00    +0.247 C 
ATOM     17  H   UNL     1      33.550 -20.998 -19.586  0.00  0.00    +0.152 HD
ATOM     18  H   UNL     1      36.310 -17.969 -23.652  0.00  0.00    +0.150 HD
ENDBRANCH   2  14
BRANCH   5  20
ATOM     19  F   UNL     1      31.879 -22.675 -17.490  0.00  0.00    -0.204 F 
ATOM     20  C   UNL     1      33.169 -23.592 -15.715  0.00  0.00    +0.045 C 
ATOM     21  C   UNL     1      31.943 -23.367 -16.344  0.00  0.00    +0.142 C 
ATOM     22  C   UNL     1      33.215 -24.318 -14.523  0.00  0.00    +0.004 C 
ATOM     23  C   UNL     1      30.766 -23.865 -15.781  0.00  0.00    +0.030 C 
ATOM     24  C   UNL     1      32.040 -24.815 -13.961  0.00  0.00    +0.000 C 
ATOM     25  C   UNL     1      30.815 -24.589 -14.590  0.00  0.00    +0.002 C 
ENDBRANCH   5  20
TORSDOF 2
ENDMDL
MODEL 9
REMARK VINA RESULT:      -9.7      9.959     14.233
REMARK  Name = 11992146
REMARK  2 active torsions:
REMARK  status: ('A' for Active; 'I' for Inactive)
REMARK    1  A    between atoms: C_2  and  C_14
REMARK    2  A    between atoms: C_5  and  C_20
REMARK                            x       y       z     vdW  Elec       q    Type
REMARK                         _______ _______ _______ _____ _____    ______ ____
ROOT
ATOM      1  N   UNL     1      32.617  -9.848 -25.234  0.00  0.00    -0.244 NA
ATOM      2  C   UNL     1      33.170 -12.553 -24.807  0.00  0.00    +0.016 C 
ATOM      3  C   UNL     1      32.989 -11.700 -23.725  0.00  0.00    +0.020 C 
ATOM      4  C   UNL     1      33.075 -12.057 -26.102  0.00  0.00    +0.022 C 
ATOM      5  C   UNL     1      32.717 -10.367 -23.990  0.00  0.00    +0.084 C 
ATOM      6  C   UNL     1      32.800 -10.708 -26.260  0.00  0.00    +0.099 C 
ENDROOT
BRANCH   2  14
ATOM      7  O   UNL     1      35.234 -16.946 -21.996  0.00  0.00    -0.270 OA
ATOM      8  N   UNL     1      33.157 -14.908 -25.525  0.00  0.00    -0.316 N 
ATOM      9  N   UNL     1      34.313 -18.330 -23.602  0.00  0.00    -0.300 N 
ATOM     10  C   UNL     1      33.541 -16.129 -25.048  0.00  0.00    +0.031 C 
ATOM     11  C   UNL     1      33.423 -17.422 -25.760  0.00  0.00    +0.063 C 
ATOM     12  C   UNL     1      34.085 -15.961 -23.792  0.00  0.00    +0.064 C 
ATOM     13  C   UNL     1      33.368 -18.534 -24.706  0.00  0.00    +0.096 C 
ATOM     14  C   UNL     1      33.455 -13.950 -24.588  0.00  0.00    +0.048 C 
ATOM     15  C   UNL     1      34.038 -14.575 -23.502  0.00  0.00    +0.020 C 
ATOM     16  C   UNL     1      34.594 -17.087 -23.035  0.00  0.00    +0.247 C 
ATOM     17  H   UNL     1      32.735 -14.743 -26.400  0.00  0.00    +0.152 HD
ATOM     18  H   UNL     1      34.777 -19.120 -23.239  0.00  0.00    +0.150 HD
ENDBRANCH   2  14
BRANCH   5  20
ATOM     19  F   UNL     1      34.492  -8.239 -23.518  0.00  0.00    -0.204 F 
ATOM     20  C   UNL     1      32.517  -9.421 -22.917  0.00  0.00    +0.045 C 
ATOM     21  C   UNL     1      33.425  -8.380 -22.718  0.00  0.00    +0.142 C 
ATOM     22  C   UNL     1      31.412  -9.549 -22.074  0.00  0.00    +0.004 C 
ATOM     23  C   UNL     1      33.229  -7.470 -21.677  0.00  0.00    +0.030 C 
ATOM     24  C   UNL     1      31.216  -8.641 -21.034  0.00  0.00    +0.000 C 
ATOM     25  C   UNL     1      32.125  -7.602 -20.835  0.00  0.00    +0.002 C 
ENDBRANCH   5  20
TORSDOF 2
ENDMDL
