MODEL 1
REMARK VINA RESULT:     -12.3      0.000      0.000
REMARK  Name = 10224714
REMARK  8 active torsions:
REMARK  status: ('A' for Active; 'I' for Inactive)
REMARK    1  A    between atoms: N_1  and  C_12
REMARK    2  A    between atoms: N_2  and  CA_30
REMARK    3  A    between atoms: N_15  and  C_17
REMARK    4  A    between atoms: C_17  and  C_18
REMARK    5  A    between atoms: C_21  and  C_25
REMARK    6  A    between atoms: CA_30  and  C_31
REMARK    7  A    between atoms: CA_30  and  C_33
REMARK    8  A    between atoms: C_33  and  O_34
REMARK                            x       y       z     vdW  Elec       q    Type
REMARK                         _______ _______ _______ _____ _____    ______ ____
ROOT
ATOM      1  N   UNL     1      31.432 -24.031 -15.400  0.00  0.00    -0.262 N 
ATOM      2  N   UNL     1      36.158 -24.189 -14.944  0.00  0.00    -0.258 N 
ATOM      3  N   UNL     1      33.818 -24.218 -14.989  0.00  0.00    -0.311 NA
ATOM      4  N   UNL     1      31.463 -22.908 -17.326  0.00  0.00    -0.240 NA
ATOM      5  N   UNL     1      35.110 -23.153 -16.765  0.00  0.00    -0.311 NA
ATOM      6  C   UNL     1      32.749 -23.827 -15.698  0.00  0.00    +0.220 C 
ATOM      7  C   UNL     1      32.746 -23.129 -16.895  0.00  0.00    +0.167 C 
ATOM      8  C   UNL     1      33.986 -22.790 -17.428  0.00  0.00    +0.215 C 
ATOM      9  C   UNL     1      34.986 -23.842 -15.589  0.00  0.00    +0.202 C 
ATOM     10  C   UNL     1      30.698 -23.461 -16.406  0.00  0.00    +0.222 C 
ATOM     11  H   UNL     1      37.012 -23.930 -15.359  0.00  0.00    +0.160 HD
ATOM     12  N   UNL     1      34.078 -22.080 -18.638  0.00  0.00    -0.302 N 
ATOM     13  H   UNL     1      33.244 -21.830 -19.100  0.00  0.00    +0.150 HD
ENDROOT
BRANCH   1  14
ATOM     14  C   UNL     1      30.903 -24.717 -14.246  0.00  0.00    +0.077 C 
ATOM     15  C   UNL     1      30.726 -23.776 -13.053  0.00  0.00    +0.022 C 
ATOM     16  C   UNL     1      29.609 -25.467 -14.569  0.00  0.00    +0.022 C 
ENDBRANCH   1  14
BRANCH  12  17
ATOM     17  C   UNL     1      35.327 -21.706 -19.232  0.00  0.00    +0.116 C 
BRANCH  17  18
ATOM     18  C   UNL     1      35.128 -20.585 -20.216  0.00  0.00    -0.003 C 
ATOM     19  C   UNL     1      33.862 -20.345 -20.733  0.00  0.00    -0.003 C 
ATOM     20  C   UNL     1      36.213 -19.806 -20.594  0.00  0.00    -0.003 C 
ATOM     21  C   UNL     1      34.761 -18.517 -22.033  0.00  0.00    +0.018 C 
ATOM     22  C   UNL     1      33.678 -19.307 -21.646  0.00  0.00    +0.001 C 
ATOM     23  C   UNL     1      36.029 -18.767 -21.507  0.00  0.00    +0.001 C 
BRANCH  21  25
ATOM     24  N   UNL     1      34.641 -16.200 -22.449  0.00  0.00    -0.244 NA
ATOM     25  C   UNL     1      34.570 -17.440 -22.979  0.00  0.00    +0.081 C 
ATOM     26  C   UNL     1      34.332 -17.704 -24.317  0.00  0.00    +0.019 C 
ATOM     27  C   UNL     1      34.157 -16.621 -25.170  0.00  0.00    +0.003 C 
ATOM     28  C   UNL     1      34.466 -15.171 -23.309  0.00  0.00    +0.099 C 
ATOM     29  C   UNL     1      34.223 -15.327 -24.665  0.00  0.00    +0.021 C 
ENDBRANCH  21  25
ENDBRANCH  17  18
ENDBRANCH  12  17
BRANCH   2  30
ATOM     30  CA  UNL     1      36.197 -24.917 -13.689  0.00  0.00    +0.109 C 
BRANCH  30  31
ATOM     31  C   UNL     1      37.207 -24.263 -12.740  0.00  0.00    +0.023 C 
ATOM     32  C   UNL     1      36.603 -23.121 -11.932  0.00  0.00    +0.002 C 
ENDBRANCH  30  31
BRANCH  30  33
ATOM     33  C   UNL     1      36.578 -26.369 -13.975  0.00  0.00    +0.157 C 
BRANCH  33  34
ATOM     34  O   UNL     1      35.673 -26.916 -14.929  0.00  0.00    -0.380 OA
ATOM     35  H   UNL     1      35.075 -26.219 -15.244  0.00  0.00    +0.211 HD
ENDBRANCH  33  34
ENDBRANCH  30  33
ENDBRANCH   2  30
TORSDOF 8
ENDMDL
MODEL 2
REMARK VINA RESULT:     -11.3      1.579      4.194
REMARK  Name = 10224714
REMARK  8 active torsions:
REMARK  status: ('A' for Active; 'I' for Inactive)
REMARK    1  A    between atoms: N_1  and  C_12
REMARK    2  A    between atoms: N_2  and  CA_30
REMARK    3  A    between atoms: N_15  and  C_17
REMARK    4  A    between atoms: C_17  and  C_18
REMARK    5  A    between atoms: C_21  and  C_25
REMARK    6  A    between atoms: CA_30  and  C_31
REMARK    7  A    between atoms: CA_30  and  C_33
REMARK    8  A    between atoms: C_33  and  O_34
REMARK                            x       y       z     vdW  Elec       q    Type
REMARK                         _______ _______ _______ _____ _____    ______ ____
ROOT
ATOM      1  N   UNL     1      36.055 -23.295 -13.969  0.00  0.00    -0.262 N 
ATOM      2  N   UNL     1      31.732 -24.009 -15.803  0.00  0.00    -0.258 N 
ATOM      3  N   UNL     1      33.783 -23.719 -14.715  0.00  0.00    -0.311 NA
ATOM      4  N   UNL     1      36.964 -22.604 -15.884  0.00  0.00    -0.240 NA
ATOM      5  N   UNL     1      33.526 -23.230 -17.093  0.00  0.00    -0.311 NA
ATOM      6  C   UNL     1      35.056 -23.340 -14.900  0.00  0.00    +0.220 C 
ATOM      7  C   UNL     1      35.641 -22.909 -16.079  0.00  0.00    +0.167 C 
ATOM      8  C   UNL     1      34.824 -22.861 -17.205  0.00  0.00    +0.215 C 
ATOM      9  C   UNL     1      33.061 -23.639 -15.872  0.00  0.00    +0.202 C 
ATOM     10  C   UNL     1      37.181 -22.847 -14.607  0.00  0.00    +0.222 C 
ATOM     11  H   UNL     1      31.191 -23.957 -16.624  0.00  0.00    +0.160 HD
ATOM     12  N   UNL     1      35.333 -22.437 -18.445  0.00  0.00    -0.302 N 
ATOM     13  H   UNL     1      36.281 -22.173 -18.498  0.00  0.00    +0.150 HD
ENDROOT
BRANCH   1  14
ATOM     14  C   UNL     1      35.953 -23.648 -12.574  0.00  0.00    +0.077 C 
ATOM     15  C   UNL     1      36.050 -25.160 -12.358  0.00  0.00    +0.022 C 
ATOM     16  C   UNL     1      36.967 -22.891 -11.715  0.00  0.00    +0.022 C 
ENDBRANCH   1  14
BRANCH  12  17
ATOM     17  C   UNL     1      34.538 -22.368 -19.634  0.00  0.00    +0.116 C 
BRANCH  17  18
ATOM     18  C   UNL     1      34.540 -20.969 -20.189  0.00  0.00    -0.003 C 
ATOM     19  C   UNL     1      33.339 -20.375 -20.554  0.00  0.00    -0.003 C 
ATOM     20  C   UNL     1      35.743 -20.291 -20.330  0.00  0.00    -0.003 C 
ATOM     21  C   UNL     1      34.545 -18.389 -21.215  0.00  0.00    +0.018 C 
ATOM     22  C   UNL     1      33.342 -19.079 -21.069  0.00  0.00    +0.001 C 
ATOM     23  C   UNL     1      35.745 -18.994 -20.846  0.00  0.00    +0.001 C 
BRANCH  21  25
ATOM     24  N   UNL     1      34.505 -16.968 -23.096  0.00  0.00    -0.244 NA
ATOM     25  C   UNL     1      34.546 -17.044 -21.748  0.00  0.00    +0.081 C 
ATOM     26  C   UNL     1      34.590 -15.946 -20.906  0.00  0.00    +0.019 C 
ATOM     27  C   UNL     1      34.589 -14.683 -21.487  0.00  0.00    +0.003 C 
ATOM     28  C   UNL     1      34.505 -15.724 -23.625  0.00  0.00    +0.099 C 
ATOM     29  C   UNL     1      34.546 -14.561 -22.872  0.00  0.00    +0.021 C 
ENDBRANCH  21  25
ENDBRANCH  17  18
ENDBRANCH  12  17
BRANCH   2  30
ATOM     30  CA  UNL     1      31.090 -24.468 -14.586  0.00  0.00    +0.109 C 
BRANCH  30  31
ATOM     31  C   UNL     1      29.832 -25.274 -14.933  0.00  0.00    +0.023 C 
ATOM     32  C   UNL     1      28.759 -24.429 -15.608  0.00  0.00    +0.002 C 
ENDBRANCH  30  31
BRANCH  30  33
ATOM     33  C   UNL     1      30.739 -23.253 -13.727  0.00  0.00    +0.157 C 
BRANCH  33  34
ATOM     34  O   UNL     1      31.716 -23.100 -12.703  0.00  0.00    -0.380 OA
ATOM     35  H   UNL     1      31.388 -22.481 -12.033  0.00  0.00    +0.211 HD
ENDBRANCH  33  34
ENDBRANCH  30  33
ENDBRANCH   2  30
TORSDOF 8
ENDMDL
MODEL 3
REMARK VINA RESULT:     -10.3      3.730     11.486
REMARK  Name = 10224714
REMARK  8 active torsions:
REMARK  status: ('A' for Active; 'I' for Inactive)
REMARK    1  A    between atoms: N_1  and  C_12
REMARK    2  A    between atoms: N_2  and  CA_30
REMARK    3  A    between atoms: N_15  and  C_17
REMARK    4  A    between atoms: C_17  and  C_18
REMARK    5  A    between atoms: C_21  and  C_25
REMARK    6  A    between atoms: CA_30  and  C_31
REMARK    7  A    between atoms: CA_30  and  C_33
REMARK    8  A    between atoms: C_33  and  O_34
REMARK                            x       y       z     vdW  Elec       q    Type
REMARK                         _______ _______ _______ _____ _____    ______ ____
ROOT
ATOM      1  N   UNL     1      33.671 -13.759 -23.058  0.00  0.00    -0.262 N 
ATOM      2  N   UNL     1      33.283 -17.362 -26.128  0.00  0.00    -0.258 N 
ATOM      3  N   UNL     1      33.387 -15.465 -24.762  0.00  0.00    -0.311 NA
ATOM      4  N   UNL     1      34.620 -14.977 -21.450  0.00  0.00    -0.240 NA
ATOM      5  N   UNL     1      34.218 -17.629 -23.996  0.00  0.00    -0.311 NA
ATOM      6  C   UNL     1      33.772 -15.027 -23.555  0.00  0.00    +0.220 C 
ATOM      7  C   UNL     1      34.363 -15.766 -22.542  0.00  0.00    +0.167 C 
ATOM      8  C   UNL     1      34.583 -17.116 -22.797  0.00  0.00    +0.215 C 
ATOM      9  C   UNL     1      33.642 -16.798 -24.919  0.00  0.00    +0.202 C 
ATOM     10  C   UNL     1      34.193 -13.779 -21.791  0.00  0.00    +0.222 C 
ATOM     11  H   UNL     1      33.459 -18.321 -26.265  0.00  0.00    +0.160 HD
ATOM     12  N   UNL     1      35.176 -17.943 -21.827  0.00  0.00    -0.302 N 
ATOM     13  H   UNL     1      35.432 -17.544 -20.963  0.00  0.00    +0.150 HD
ENDROOT
BRANCH   1  14
ATOM     14  C   UNL     1      33.121 -12.607 -23.731  0.00  0.00    +0.077 C 
ATOM     15  C   UNL     1      32.318 -11.717 -22.780  0.00  0.00    +0.022 C 
ATOM     16  C   UNL     1      34.194 -11.812 -24.476  0.00  0.00    +0.022 C 
ENDBRANCH   1  14
BRANCH  12  17
ATOM     17  C   UNL     1      35.425 -19.338 -22.036  0.00  0.00    +0.116 C 
BRANCH  17  18
ATOM     18  C   UNL     1      34.794 -20.156 -20.942  0.00  0.00    -0.003 C 
ATOM     19  C   UNL     1      35.600 -20.905 -20.094  0.00  0.00    -0.003 C 
ATOM     20  C   UNL     1      33.414 -20.152 -20.795  0.00  0.00    -0.003 C 
ATOM     21  C   UNL     1      33.628 -21.667 -18.924  0.00  0.00    +0.018 C 
ATOM     22  C   UNL     1      35.014 -21.664 -19.082  0.00  0.00    +0.001 C 
ATOM     23  C   UNL     1      32.828 -20.911 -19.781  0.00  0.00    +0.001 C 
BRANCH  21  25
ATOM     24  N   UNL     1      31.672 -22.427 -17.851  0.00  0.00    -0.244 NA
ATOM     25  C   UNL     1      33.022 -22.453 -17.873  0.00  0.00    +0.081 C 
ATOM     26  C   UNL     1      33.803 -23.162 -16.976  0.00  0.00    +0.019 C 
ATOM     27  C   UNL     1      33.153 -23.897 -15.991  0.00  0.00    +0.003 C 
ATOM     28  C   UNL     1      31.075 -23.154 -16.879  0.00  0.00    +0.099 C 
ATOM     29  C   UNL     1      31.764 -23.898 -15.934  0.00  0.00    +0.021 C 
ENDBRANCH  21  25
ENDBRANCH  17  18
ENDBRANCH  12  17
BRANCH   2  30
ATOM     30  CA  UNL     1      32.660 -16.618 -27.207  0.00  0.00    +0.109 C 
BRANCH  30  31
ATOM     31  C   UNL     1      33.065 -15.141 -27.121  0.00  0.00    +0.023 C 
ATOM     32  C   UNL     1      32.035 -14.212 -27.750  0.00  0.00    +0.002 C 
ENDBRANCH  30  31
BRANCH  30  33
ATOM     33  C   UNL     1      31.144 -16.775 -27.100  0.00  0.00    +0.157 C 
BRANCH  33  34
ATOM     34  O   UNL     1      30.821 -17.425 -25.876  0.00  0.00    -0.380 OA
ATOM     35  H   UNL     1      30.587 -16.760 -25.209  0.00  0.00    +0.211 HD
ENDBRANCH  33  34
ENDBRANCH  30  33
ENDBRANCH   2  30
TORSDOF 8
ENDMDL
MODEL 4
REMARK VINA RESULT:      -9.7      6.500     13.933
REMARK  Name = 10224714
REMARK  8 active torsions:
REMARK  status: ('A' for Active; 'I' for Inactive)
REMARK    1  A    between atoms: N_1  and  C_12
REMARK    2  A    between atoms: N_2  and  CA_30
REMARK    3  A    between atoms: N_15  and  C_17
REMARK    4  A    between atoms: C_17  and  C_18
REMARK    5  A    between atoms: C_21  and  C_25
REMARK    6  A    between atoms: CA_30  and  C_31
REMARK    7  A    between atoms: CA_30  and  C_33
REMARK    8  A    between atoms: C_33  and  O_34
REMARK                            x       y       z     vdW  Elec       q    Type
REMARK                         _______ _______ _______ _____ _____    ______ ____
ROOT
ATOM      1  N   UNL     1      31.449  -9.465 -22.099  0.00  0.00    -0.262 N 
ATOM      2  N   UNL     1      34.293  -9.917 -25.877  0.00  0.00    -0.258 N 
ATOM      3  N   UNL     1      32.877  -9.490 -24.064  0.00  0.00    -0.311 NA
ATOM      4  N   UNL     1      31.570 -11.611 -21.509  0.00  0.00    -0.240 NA
ATOM      5  N   UNL     1      33.755 -11.727 -24.491  0.00  0.00    -0.311 NA
ATOM      6  C   UNL     1      32.264 -10.063 -23.017  0.00  0.00    +0.220 C 
ATOM      7  C   UNL     1      32.326 -11.393 -22.633  0.00  0.00    +0.167 C 
ATOM      8  C   UNL     1      33.107 -12.237 -23.416  0.00  0.00    +0.215 C 
ATOM      9  C   UNL     1      33.618 -10.394 -24.771  0.00  0.00    +0.202 C 
ATOM     10  C   UNL     1      31.057 -10.434 -21.215  0.00  0.00    +0.222 C 
ATOM     11  H   UNL     1      34.836 -10.550 -26.400  0.00  0.00    +0.160 HD
ATOM     12  N   UNL     1      33.227 -13.602 -23.102  0.00  0.00    -0.302 N 
ATOM     13  H   UNL     1      32.746 -13.947 -22.314  0.00  0.00    +0.150 HD
ENDROOT
BRANCH   1  14
ATOM     14  C   UNL     1      31.066  -8.074 -22.060  0.00  0.00    +0.077 C 
ATOM     15  C   UNL     1      32.252  -7.163 -21.733  0.00  0.00    +0.022 C 
ATOM     16  C   UNL     1      30.358  -7.637 -23.344  0.00  0.00    +0.022 C 
ENDBRANCH   1  14
BRANCH  12  17
ATOM     17  C   UNL     1      34.017 -14.516 -23.873  0.00  0.00    +0.116 C 
BRANCH  17  18
ATOM     18  C   UNL     1      34.295 -15.767 -23.085  0.00  0.00    -0.003 C 
ATOM     19  C   UNL     1      34.279 -16.998 -23.726  0.00  0.00    -0.003 C 
ATOM     20  C   UNL     1      34.563 -15.674 -21.726  0.00  0.00    -0.003 C 
ATOM     21  C   UNL     1      34.807 -18.076 -21.629  0.00  0.00    +0.018 C 
ATOM     22  C   UNL     1      34.536 -18.158 -22.995  0.00  0.00    +0.001 C 
ATOM     23  C   UNL     1      34.820 -16.834 -20.994  0.00  0.00    +0.001 C 
BRANCH  21  25
ATOM     24  N   UNL     1      36.351 -19.416 -20.456  0.00  0.00    -0.244 NA
ATOM     25  C   UNL     1      35.074 -19.279 -20.872  0.00  0.00    +0.081 C 
ATOM     26  C   UNL     1      34.067 -20.195 -20.617  0.00  0.00    +0.019 C 
ATOM     27  C   UNL     1      34.394 -21.329 -19.883  0.00  0.00    +0.003 C 
ATOM     28  C   UNL     1      36.631 -20.532 -19.745  0.00  0.00    +0.099 C 
ATOM     29  C   UNL     1      35.698 -21.509 -19.435  0.00  0.00    +0.021 C 
ENDBRANCH  21  25
ENDBRANCH  17  18
ENDBRANCH  12  17
BRANCH   2  30
ATOM     30  CA  UNL     1      34.248  -8.532 -26.308  0.00  0.00    +0.109 C 
BRANCH  30  31
ATOM     31  C   UNL     1      35.348  -8.273 -27.344  0.00  0.00    +0.023 C 
ATOM     32  C   UNL     1      35.278  -6.872 -27.938  0.00  0.00    +0.002 C 
ENDBRANCH  30  31
BRANCH  30  33
ATOM     33  C   UNL     1      34.426  -7.631 -25.086  0.00  0.00    +0.157 C 
BRANCH  33  34
ATOM     34  O   UNL     1      33.359  -6.690 -25.033  0.00  0.00    -0.380 OA
ATOM     35  H   UNL     1      32.951  -6.713 -24.153  0.00  0.00    +0.211 HD
ENDBRANCH  33  34
ENDBRANCH  30  33
ENDBRANCH   2  30
TORSDOF 8
ENDMDL
MODEL 5
REMARK VINA RESULT:      -9.6      4.217     11.887
REMARK  Name = 10224714
REMARK  8 active torsions:
REMARK  status: ('A' for Active; 'I' for Inactive)
REMARK    1  A    between atoms: N_1  and  C_12
REMARK    2  A    between atoms: N_2  and  CA_30
REMARK    3  A    between atoms: N_15  and  C_17
REMARK    4  A    between atoms: C_17  and  C_18
REMARK    5  A    between atoms: C_21  and  C_25
REMARK    6  A    between atoms: CA_30  and  C_31
REMARK    7  A    between atoms: CA_30  and  C_33
REMARK    8  A    between atoms: C_33  and  O_34
REMARK                            x       y       z     vdW  Elec       q    Type
REMARK                         _______ _______ _______ _____ _____    ______ ____
ROOT
ATOM      1  N   UNL     1      33.368 -12.962 -22.717  0.00  0.00    -0.262 N 
ATOM      2  N   UNL     1      32.970 -16.204 -26.167  0.00  0.00    -0.258 N 
ATOM      3  N   UNL     1      33.061 -14.475 -24.592  0.00  0.00    -0.311 NA
ATOM      4  N   UNL     1      34.505 -14.291 -21.335  0.00  0.00    -0.240 NA
ATOM      5  N   UNL     1      34.075 -16.651 -24.150  0.00  0.00    -0.311 NA
ATOM      6  C   UNL     1      33.508 -14.154 -23.369  0.00  0.00    +0.220 C 
ATOM      7  C   UNL     1      34.215 -14.964 -22.495  0.00  0.00    +0.167 C 
ATOM      8  C   UNL     1      34.497 -16.257 -22.925  0.00  0.00    +0.215 C 
ATOM      9  C   UNL     1      33.383 -15.760 -24.926  0.00  0.00    +0.202 C 
ATOM     10  C   UNL     1      33.982 -13.094 -21.500  0.00  0.00    +0.222 C 
ATOM     11  H   UNL     1      33.193 -17.126 -26.430  0.00  0.00    +0.160 HD
ATOM     12  N   UNL     1      35.209 -17.148 -22.103  0.00  0.00    -0.302 N 
ATOM     13  H   UNL     1      35.504 -16.836 -21.217  0.00  0.00    +0.150 HD
ENDROOT
BRANCH   1  14
ATOM     14  C   UNL     1      32.701 -11.781 -23.209  0.00  0.00    +0.077 C 
ATOM     15  C   UNL     1      31.955 -11.040 -22.097  0.00  0.00    +0.022 C 
ATOM     16  C   UNL     1      33.657 -10.854 -23.961  0.00  0.00    +0.022 C 
ENDBRANCH   1  14
BRANCH  12  17
ATOM     17  C   UNL     1      35.526 -18.489 -22.495  0.00  0.00    +0.116 C 
BRANCH  17  18
ATOM     18  C   UNL     1      35.199 -19.453 -21.387  0.00  0.00    -0.003 C 
ATOM     19  C   UNL     1      33.875 -19.793 -21.143  0.00  0.00    -0.003 C 
ATOM     20  C   UNL     1      36.225 -19.991 -20.623  0.00  0.00    -0.003 C 
ATOM     21  C   UNL     1      34.595 -21.232 -19.341  0.00  0.00    +0.018 C 
ATOM     22  C   UNL     1      33.572 -20.685 -20.115  0.00  0.00    +0.001 C 
ATOM     23  C   UNL     1      35.922 -20.885 -19.594  0.00  0.00    +0.001 C 
BRANCH  21  25
ATOM     24  N   UNL     1      35.308 -22.441 -17.447  0.00  0.00    -0.244 NA
ATOM     25  C   UNL     1      34.281 -22.158 -18.276  0.00  0.00    +0.081 C 
ATOM     26  C   UNL     1      33.009 -22.694 -18.153  0.00  0.00    +0.019 C 
ATOM     27  C   UNL     1      32.777 -23.578 -17.106  0.00  0.00    +0.003 C 
ATOM     28  C   UNL     1      35.044 -23.305 -16.441  0.00  0.00    +0.099 C 
ATOM     29  C   UNL     1      33.808 -23.895 -16.229  0.00  0.00    +0.021 C 
ENDBRANCH  21  25
ENDBRANCH  17  18
ENDBRANCH  12  17
BRANCH   2  30
ATOM     30  CA  UNL     1      32.225 -15.384 -27.104  0.00  0.00    +0.109 C 
BRANCH  30  31
ATOM     31  C   UNL     1      31.131 -16.223 -27.775  0.00  0.00    +0.023 C 
ATOM     32  C   UNL     1      29.828 -15.455 -27.955  0.00  0.00    +0.002 C 
ENDBRANCH  30  31
BRANCH  30  33
ATOM     33  C   UNL     1      33.195 -14.821 -28.143  0.00  0.00    +0.157 C 
BRANCH  33  34
ATOM     34  O   UNL     1      33.272 -13.407 -28.000  0.00  0.00    -0.380 OA
ATOM     35  H   UNL     1      33.171 -13.170 -27.065  0.00  0.00    +0.211 HD
ENDBRANCH  33  34
ENDBRANCH  30  33
ENDBRANCH   2  30
TORSDOF 8
ENDMDL
