MODEL 1
REMARK VINA RESULT:     -12.2      0.000      0.000
REMARK  Name = 11538455
REMARK  6 active torsions:
REMARK  status: ('A' for Active; 'I' for Inactive)
REMARK    1  A    between atoms: C_4  and  C_19
REMARK    2  A    between atoms: C_12  and  C_15
REMARK    3  A    between atoms: N_14  and  O_17
REMARK    4  A    between atoms: C_19  and  N_20
REMARK    5  A    between atoms: N_20  and  C_23
REMARK    6  A    between atoms: C_23  and  C_25
REMARK                            x       y       z     vdW  Elec       q    Type
REMARK                         _______ _______ _______ _____ _____    ______ ____
ROOT
ATOM      1  N   UNL     1      34.701 -22.073 -17.981  0.00  0.00    -0.253 N 
ATOM      2  N   UNL     1      36.125 -23.028 -16.359  0.00  0.00    -0.203 NA
ATOM      3  N   UNL     1      33.732 -23.099 -16.089  0.00  0.00    -0.180 NA
ATOM      4  C   UNL     1      34.355 -20.789 -20.553  0.00  0.00    -0.018 C 
ATOM      5  C   UNL     1      35.571 -20.502 -19.667  0.00  0.00    +0.020 C 
ATOM      6  C   UNL     1      33.158 -21.163 -19.672  0.00  0.00    +0.020 C 
ATOM      7  C   UNL     1      35.889 -21.682 -18.748  0.00  0.00    +0.101 C 
ATOM      8  C   UNL     1      33.484 -22.344 -18.759  0.00  0.00    +0.101 C 
ATOM      9  C   UNL     1      34.857 -22.757 -16.769  0.00  0.00    +0.090 C 
ATOM     10  C   UNL     1      36.240 -23.685 -15.186  0.00  0.00    +0.170 C 
ATOM     11  C   UNL     1      33.919 -23.754 -14.925  0.00  0.00    +0.113 C 
ATOM     12  C   UNL     1      35.162 -24.077 -14.419  0.00  0.00    +0.078 C 
ENDROOT
BRANCH  12  15
ATOM     13  O   UNL     1      34.667 -24.456 -12.155  0.00  0.00    -0.268 OA
ATOM     14  N   UNL     1      36.244 -25.824 -13.131  0.00  0.00    -0.194 N 
ATOM     15  C   UNL     1      35.324 -24.784 -13.164  0.00  0.00    +0.267 C 
ATOM     16  H   UNL     1      36.759 -26.081 -13.931  0.00  0.00    +0.183 HD
BRANCH  14  17
ATOM     17  O   UNL     1      36.404 -26.495 -11.910  0.00  0.00    -0.295 OA
ATOM     18  H   UNL     1      35.713 -26.211 -11.292  0.00  0.00    +0.241 HD
ENDBRANCH  14  17
ENDBRANCH  12  15
BRANCH   4  19
ATOM     19  C   UNL     1      34.027 -19.585 -21.432  0.00  0.00    -0.081 C 
BRANCH  19  20
ATOM     20  N   UNL     1      34.635 -19.721 -22.747  0.00  0.00    +0.386 N 
ATOM     21  H   UNL     1      33.902 -19.706 -23.457  0.00  0.00    -0.084 HD
ATOM     22  H   UNL     1      35.145 -20.604 -22.780  0.00  0.00    -0.084 HD
BRANCH  20  23
ATOM     23  C   UNL     1      35.571 -18.635 -23.005  0.00  0.00    -0.053 C 
BRANCH  23  25
ATOM     24  N   UNL     1      33.884 -16.249 -25.195  0.00  0.00    -0.284 N 
ATOM     25  C   UNL     1      34.873 -17.484 -23.674  0.00  0.00    -0.028 C 
ATOM     26  C   UNL     1      34.528 -16.265 -23.060  0.00  0.00    +0.009 C 
ATOM     27  C   UNL     1      34.475 -17.464 -24.975  0.00  0.00    +0.059 C 
ATOM     28  C   UNL     1      33.902 -15.497 -24.043  0.00  0.00    +0.051 C 
ATOM     29  C   UNL     1      34.679 -15.723 -21.769  0.00  0.00    +0.001 C 
ATOM     30  C   UNL     1      33.417 -14.207 -23.798  0.00  0.00    +0.015 C 
ATOM     31  C   UNL     1      33.323 -15.834 -26.463  0.00  0.00    +0.117 C 
ATOM     32  C   UNL     1      34.199 -14.433 -21.508  0.00  0.00    +0.000 C 
ATOM     33  C   UNL     1      33.577 -13.689 -22.510  0.00  0.00    +0.001 C 
ENDBRANCH  23  25
ENDBRANCH  20  23
ENDBRANCH  19  20
ENDBRANCH   4  19
TORSDOF 6
ENDMDL
MODEL 2
REMARK VINA RESULT:     -12.1      1.301      2.367
REMARK  Name = 11538455
REMARK  6 active torsions:
REMARK  status: ('A' for Active; 'I' for Inactive)
REMARK    1  A    between atoms: C_4  and  C_19
REMARK    2  A    between atoms: C_12  and  C_15
REMARK    3  A    between atoms: N_14  and  O_17
REMARK    4  A    between atoms: C_19  and  N_20
REMARK    5  A    between atoms: N_20  and  C_23
REMARK    6  A    between atoms: C_23  and  C_25
REMARK                            x       y       z     vdW  Elec       q    Type
REMARK                         _______ _______ _______ _____ _____    ______ ____
ROOT
ATOM      1  N   UNL     1      35.020 -22.396 -17.321  0.00  0.00    -0.253 N 
ATOM      2  N   UNL     1      36.440 -23.188 -15.609  0.00  0.00    -0.203 NA
ATOM      3  N   UNL     1      34.045 -23.321 -15.380  0.00  0.00    -0.180 NA
ATOM      4  C   UNL     1      34.686 -21.304 -19.981  0.00  0.00    -0.018 C 
ATOM      5  C   UNL     1      35.873 -20.917 -19.095  0.00  0.00    +0.020 C 
ATOM      6  C   UNL     1      33.484 -21.657 -19.099  0.00  0.00    +0.020 C 
ATOM      7  C   UNL     1      36.210 -22.019 -18.090  0.00  0.00    +0.101 C 
ATOM      8  C   UNL     1      33.828 -22.760 -18.100  0.00  0.00    +0.101 C 
ATOM      9  C   UNL     1      35.173 -22.989 -16.061  0.00  0.00    +0.090 C 
ATOM     10  C   UNL     1      36.551 -23.758 -14.392  0.00  0.00    +0.170 C 
ATOM     11  C   UNL     1      34.229 -23.887 -14.170  0.00  0.00    +0.113 C 
ATOM     12  C   UNL     1      35.471 -24.133 -13.620  0.00  0.00    +0.078 C 
ENDROOT
BRANCH  12  15
ATOM     13  O   UNL     1      36.206 -25.843 -12.188  0.00  0.00    -0.268 OA
ATOM     14  N   UNL     1      35.102 -24.065 -11.224  0.00  0.00    -0.194 N 
ATOM     15  C   UNL     1      35.629 -24.745 -12.315  0.00  0.00    +0.267 C 
ATOM     16  H   UNL     1      34.648 -23.197 -11.328  0.00  0.00    +0.183 HD
BRANCH  14  17
ATOM     17  O   UNL     1      35.248 -24.669  -9.966  0.00  0.00    -0.295 OA
ATOM     18  H   UNL     1      36.185 -24.671  -9.715  0.00  0.00    +0.241 HD
ENDBRANCH  14  17
ENDBRANCH  12  15
BRANCH   4  19
ATOM     19  C   UNL     1      34.337 -20.176 -20.949  0.00  0.00    -0.081 C 
BRANCH  19  20
ATOM     20  N   UNL     1      35.154 -19.000 -20.690  0.00  0.00    +0.386 N 
ATOM     21  H   UNL     1      35.809 -19.208 -19.936  0.00  0.00    -0.084 HD
ATOM     22  H   UNL     1      34.540 -18.229 -20.427  0.00  0.00    -0.084 HD
BRANCH  20  23
ATOM     23  C   UNL     1      35.903 -18.612 -21.878  0.00  0.00    -0.053 C 
BRANCH  23  25
ATOM     24  N   UNL     1      34.267 -15.687 -23.328  0.00  0.00    -0.284 N 
ATOM     25  C   UNL     1      35.138 -17.593 -22.676  0.00  0.00    -0.028 C 
ATOM     26  C   UNL     1      34.412 -17.850 -23.853  0.00  0.00    +0.009 C 
ATOM     27  C   UNL     1      35.044 -16.271 -22.364  0.00  0.00    +0.059 C 
ATOM     28  C   UNL     1      33.867 -16.627 -24.250  0.00  0.00    +0.051 C 
ATOM     29  C   UNL     1      34.154 -18.994 -24.634  0.00  0.00    +0.001 C 
ATOM     30  C   UNL     1      33.073 -16.490 -25.395  0.00  0.00    +0.015 C 
ATOM     31  C   UNL     1      33.927 -14.281 -23.359  0.00  0.00    +0.117 C 
ATOM     32  C   UNL     1      33.360 -18.873 -25.782  0.00  0.00    +0.000 C 
ATOM     33  C   UNL     1      32.829 -17.638 -26.154  0.00  0.00    +0.001 C 
ENDBRANCH  23  25
ENDBRANCH  20  23
ENDBRANCH  19  20
ENDBRANCH   4  19
TORSDOF 6
ENDMDL
MODEL 3
REMARK VINA RESULT:     -11.5      5.155     11.618
REMARK  Name = 11538455
REMARK  6 active torsions:
REMARK  status: ('A' for Active; 'I' for Inactive)
REMARK    1  A    between atoms: C_4  and  C_19
REMARK    2  A    between atoms: C_12  and  C_15
REMARK    3  A    between atoms: N_14  and  O_17
REMARK    4  A    between atoms: C_19  and  N_20
REMARK    5  A    between atoms: N_20  and  C_23
REMARK    6  A    between atoms: C_23  and  C_25
REMARK                            x       y       z     vdW  Elec       q    Type
REMARK                         _______ _______ _______ _____ _____    ______ ____
ROOT
ATOM      1  N   UNL     1      34.692 -19.077 -22.158  0.00  0.00    -0.253 N 
ATOM      2  N   UNL     1      34.916 -17.304 -23.700  0.00  0.00    -0.203 NA
ATOM      3  N   UNL     1      33.086 -18.862 -23.875  0.00  0.00    -0.180 NA
ATOM      4  C   UNL     1      35.582 -20.421 -19.753  0.00  0.00    -0.018 C 
ATOM      5  C   UNL     1      36.568 -19.744 -20.710  0.00  0.00    +0.020 C 
ATOM      6  C   UNL     1      34.358 -20.903 -20.538  0.00  0.00    +0.020 C 
ATOM      7  C   UNL     1      35.908 -18.606 -21.487  0.00  0.00    +0.101 C 
ATOM      8  C   UNL     1      33.703 -19.759 -21.312  0.00  0.00    +0.101 C 
ATOM      9  C   UNL     1      34.214 -18.392 -23.282  0.00  0.00    +0.090 C 
ATOM     10  C   UNL     1      34.430 -16.669 -24.787  0.00  0.00    +0.170 C 
ATOM     11  C   UNL     1      32.656 -18.180 -24.956  0.00  0.00    +0.113 C 
ATOM     12  C   UNL     1      33.293 -17.065 -25.462  0.00  0.00    +0.078 C 
ENDROOT
BRANCH  12  15
ATOM     13  O   UNL     1      33.574 -15.699 -27.352  0.00  0.00    -0.268 OA
ATOM     14  N   UNL     1      31.437 -16.431 -26.888  0.00  0.00    -0.194 N 
ATOM     15  C   UNL     1      32.800 -16.357 -26.626  0.00  0.00    +0.267 C 
ATOM     16  H   UNL     1      30.831 -16.952 -26.313  0.00  0.00    +0.183 HD
BRANCH  14  17
ATOM     17  O   UNL     1      30.966 -15.733 -28.009  0.00  0.00    -0.295 OA
ATOM     18  H   UNL     1      30.791 -14.810 -27.766  0.00  0.00    +0.241 HD
ENDBRANCH  14  17
ENDBRANCH  12  15
BRANCH   4  19
ATOM     19  C   UNL     1      36.247 -21.581 -19.017  0.00  0.00    -0.081 C 
BRANCH  19  20
ATOM     20  N   UNL     1      35.889 -21.574 -17.607  0.00  0.00    +0.386 N 
ATOM     21  H   UNL     1      35.061 -22.154 -17.470  0.00  0.00    -0.084 HD
ATOM     22  H   UNL     1      35.703 -20.612 -17.323  0.00  0.00    -0.084 HD
BRANCH  20  23
ATOM     23  C   UNL     1      36.977 -22.097 -16.789  0.00  0.00    -0.053 C 
BRANCH  23  25
ATOM     24  N   UNL     1      35.072 -23.878 -14.234  0.00  0.00    -0.284 N 
ATOM     25  C   UNL     1      36.439 -22.971 -15.691  0.00  0.00    -0.028 C 
ATOM     26  C   UNL     1      37.169 -23.948 -14.989  0.00  0.00    +0.009 C 
ATOM     27  C   UNL     1      35.161 -22.937 -15.224  0.00  0.00    +0.059 C 
ATOM     28  C   UNL     1      36.282 -24.511 -14.069  0.00  0.00    +0.051 C 
ATOM     29  C   UNL     1      38.495 -24.422 -15.031  0.00  0.00    +0.001 C 
ATOM     30  C   UNL     1      36.657 -25.530 -13.184  0.00  0.00    +0.015 C 
ATOM     31  C   UNL     1      33.867 -24.156 -13.480  0.00  0.00    +0.117 C 
ATOM     32  C   UNL     1      38.885 -25.441 -14.152  0.00  0.00    +0.000 C 
ATOM     33  C   UNL     1      37.978 -25.985 -13.244  0.00  0.00    +0.001 C 
ENDBRANCH  23  25
ENDBRANCH  20  23
ENDBRANCH  19  20
ENDBRANCH   4  19
TORSDOF 6
ENDMDL
MODEL 4
REMARK VINA RESULT:     -11.1      5.141     11.215
REMARK  Name = 11538455
REMARK  6 active torsions:
REMARK  status: ('A' for Active; 'I' for Inactive)
REMARK    1  A    between atoms: C_4  and  C_19
REMARK    2  A    between atoms: C_12  and  C_15
REMARK    3  A    between atoms: N_14  and  O_17
REMARK    4  A    between atoms: C_19  and  N_20
REMARK    5  A    between atoms: N_20  and  C_23
REMARK    6  A    between atoms: C_23  and  C_25
REMARK                            x       y       z     vdW  Elec       q    Type
REMARK                         _______ _______ _______ _____ _____    ______ ____
ROOT
ATOM      1  N   UNL     1      34.582 -18.803 -22.258  0.00  0.00    -0.253 N 
ATOM      2  N   UNL     1      34.845 -16.807 -23.491  0.00  0.00    -0.203 NA
ATOM      3  N   UNL     1      33.185 -18.435 -24.125  0.00  0.00    -0.180 NA
ATOM      4  C   UNL     1      35.280 -20.433 -19.969  0.00  0.00    -0.018 C 
ATOM      5  C   UNL     1      36.317 -19.559 -20.682  0.00  0.00    +0.020 C 
ATOM      6  C   UNL     1      34.205 -20.869 -20.970  0.00  0.00    +0.020 C 
ATOM      7  C   UNL     1      35.664 -18.361 -21.372  0.00  0.00    +0.101 C 
ATOM      8  C   UNL     1      33.558 -19.666 -21.654  0.00  0.00    +0.101 C 
ATOM      9  C   UNL     1      34.190 -17.988 -23.327  0.00  0.00    +0.090 C 
ATOM     10  C   UNL     1      34.445 -16.049 -24.532  0.00  0.00    +0.170 C 
ATOM     11  C   UNL     1      32.835 -17.627 -25.146  0.00  0.00    +0.113 C 
ATOM     12  C   UNL     1      33.435 -16.410 -25.401  0.00  0.00    +0.078 C 
ENDROOT
BRANCH  12  15
ATOM     13  O   UNL     1      33.009 -16.009 -27.675  0.00  0.00    -0.268 OA
ATOM     14  N   UNL     1      32.683 -14.254 -26.217  0.00  0.00    -0.194 N 
ATOM     15  C   UNL     1      33.030 -15.568 -26.509  0.00  0.00    +0.267 C 
ATOM     16  H   UNL     1      32.700 -13.910 -25.294  0.00  0.00    +0.183 HD
BRANCH  14  17
ATOM     17  O   UNL     1      32.305 -13.441 -27.295  0.00  0.00    -0.295 OA
ATOM     18  H   UNL     1      31.358 -13.557 -27.471  0.00  0.00    +0.241 HD
ENDBRANCH  14  17
ENDBRANCH  12  15
BRANCH   4  19
ATOM     19  C   UNL     1      35.945 -21.646 -19.322  0.00  0.00    -0.081 C 
BRANCH  19  20
ATOM     20  N   UNL     1      35.420 -21.873 -17.984  0.00  0.00    +0.386 N 
ATOM     21  H   UNL     1      35.180 -20.974 -17.564  0.00  0.00    -0.084 HD
ATOM     22  H   UNL     1      36.134 -22.346 -17.431  0.00  0.00    -0.084 HD
BRANCH  20  23
ATOM     23  C   UNL     1      34.231 -22.713 -18.024  0.00  0.00    -0.053 C 
BRANCH  23  25
ATOM     24  N   UNL     1      33.936 -23.779 -14.544  0.00  0.00    -0.284 N 
ATOM     25  C   UNL     1      33.827 -23.123 -16.635  0.00  0.00    -0.028 C 
ATOM     26  C   UNL     1      32.506 -23.201 -16.155  0.00  0.00    +0.009 C 
ATOM     27  C   UNL     1      34.691 -23.477 -15.646  0.00  0.00    +0.059 C 
ATOM     28  C   UNL     1      32.599 -23.619 -14.826  0.00  0.00    +0.051 C 
ATOM     29  C   UNL     1      31.231 -22.961 -16.703  0.00  0.00    +0.001 C 
ATOM     30  C   UNL     1      31.475 -23.810 -14.014  0.00  0.00    +0.015 C 
ATOM     31  C   UNL     1      34.483 -24.202 -13.273  0.00  0.00    +0.117 C 
ATOM     32  C   UNL     1      30.097 -23.148 -15.904  0.00  0.00    +0.000 C 
ATOM     33  C   UNL     1      30.220 -23.566 -14.579  0.00  0.00    +0.001 C 
ENDBRANCH  23  25
ENDBRANCH  20  23
ENDBRANCH  19  20
ENDBRANCH   4  19
TORSDOF 6
ENDMDL
MODEL 5
REMARK VINA RESULT:     -11.0      2.465      3.464
REMARK  Name = 11538455
REMARK  6 active torsions:
REMARK  status: ('A' for Active; 'I' for Inactive)
REMARK    1  A    between atoms: C_4  and  C_19
REMARK    2  A    between atoms: C_12  and  C_15
REMARK    3  A    between atoms: N_14  and  O_17
REMARK    4  A    between atoms: C_19  and  N_20
REMARK    5  A    between atoms: N_20  and  C_23
REMARK    6  A    between atoms: C_23  and  C_25
REMARK                            x       y       z     vdW  Elec       q    Type
REMARK                         _______ _______ _______ _____ _____    ______ ____
ROOT
ATOM      1  N   UNL     1      33.521 -21.660 -18.992  0.00  0.00    -0.253 N 
ATOM      2  N   UNL     1      33.511 -23.320 -17.314  0.00  0.00    -0.203 NA
ATOM      3  N   UNL     1      31.508 -22.086 -17.836  0.00  0.00    -0.180 NA
ATOM      4  C   UNL     1      34.911 -20.264 -21.113  0.00  0.00    -0.018 C 
ATOM      5  C   UNL     1      35.636 -20.734 -19.849  0.00  0.00    +0.020 C 
ATOM      6  C   UNL     1      33.445 -19.969 -20.782  0.00  0.00    +0.020 C 
ATOM      7  C   UNL     1      34.942 -21.942 -19.218  0.00  0.00    +0.101 C 
ATOM      8  C   UNL     1      32.759 -21.181 -20.153  0.00  0.00    +0.101 C 
ATOM      9  C   UNL     1      32.822 -22.379 -18.015  0.00  0.00    +0.090 C 
ATOM     10  C   UNL     1      32.809 -23.992 -16.378  0.00  0.00    +0.170 C 
ATOM     11  C   UNL     1      30.867 -22.796 -16.885  0.00  0.00    +0.113 C 
ATOM     12  C   UNL     1      31.472 -23.771 -16.118  0.00  0.00    +0.078 C 
ENDROOT
BRANCH  12  15
ATOM     13  O   UNL     1      29.796 -25.259 -15.414  0.00  0.00    -0.268 OA
ATOM     14  N   UNL     1      31.154 -24.354 -13.785  0.00  0.00    -0.194 N 
ATOM     15  C   UNL     1      30.749 -24.515 -15.105  0.00  0.00    +0.267 C 
ATOM     16  H   UNL     1      31.908 -23.767 -13.547  0.00  0.00    +0.183 HD
BRANCH  14  17
ATOM     17  O   UNL     1      30.442 -25.067 -12.810  0.00  0.00    -0.295 OA
ATOM     18  H   UNL     1      29.493 -24.890 -12.908  0.00  0.00    +0.241 HD
ENDBRANCH  14  17
ENDBRANCH  12  15
BRANCH   4  19
ATOM     19  C   UNL     1      35.593 -19.032 -21.705  0.00  0.00    -0.081 C 
BRANCH  19  20
ATOM     20  N   UNL     1      34.609 -18.051 -22.135  0.00  0.00    +0.386 N 
ATOM     21  H   UNL     1      34.838 -17.146 -21.723  0.00  0.00    -0.084 HD
ATOM     22  H   UNL     1      33.686 -18.359 -21.830  0.00  0.00    -0.084 HD
BRANCH  20  23
ATOM     23  C   UNL     1      34.599 -17.924 -23.587  0.00  0.00    -0.053 C 
BRANCH  23  25
ATOM     24  N   UNL     1      33.862 -14.367 -23.965  0.00  0.00    -0.284 N 
ATOM     25  C   UNL     1      34.177 -16.538 -23.993  0.00  0.00    -0.028 C 
ATOM     26  C   UNL     1      33.509 -16.201 -25.184  0.00  0.00    +0.009 C 
ATOM     27  C   UNL     1      34.389 -15.414 -23.257  0.00  0.00    +0.059 C 
ATOM     28  C   UNL     1      33.318 -14.818 -25.146  0.00  0.00    +0.051 C 
ATOM     29  C   UNL     1      33.040 -16.919 -26.301  0.00  0.00    +0.001 C 
ATOM     30  C   UNL     1      32.678 -14.115 -26.173  0.00  0.00    +0.015 C 
ATOM     31  C   UNL     1      33.884 -12.989 -23.521  0.00  0.00    +0.117 C 
ATOM     32  C   UNL     1      32.397 -16.230 -27.337  0.00  0.00    +0.000 C 
ATOM     33  C   UNL     1      32.221 -14.848 -27.272  0.00  0.00    +0.001 C 
ENDBRANCH  23  25
ENDBRANCH  20  23
ENDBRANCH  19  20
ENDBRANCH   4  19
TORSDOF 6
ENDMDL
MODEL 6
REMARK VINA RESULT:     -10.8      5.727     11.717
REMARK  Name = 11538455
REMARK  6 active torsions:
REMARK  status: ('A' for Active; 'I' for Inactive)
REMARK    1  A    between atoms: C_4  and  C_19
REMARK    2  A    between atoms: C_12  and  C_15
REMARK    3  A    between atoms: N_14  and  O_17
REMARK    4  A    between atoms: C_19  and  N_20
REMARK    5  A    between atoms: N_20  and  C_23
REMARK    6  A    between atoms: C_23  and  C_25
REMARK                            x       y       z     vdW  Elec       q    Type
REMARK                         _______ _______ _______ _____ _____    ______ ____
ROOT
ATOM      1  N   UNL     1      34.051 -16.676 -23.563  0.00  0.00    -0.253 N 
ATOM      2  N   UNL     1      33.437 -15.747 -25.644  0.00  0.00    -0.203 NA
ATOM      3  N   UNL     1      33.721 -14.343 -23.707  0.00  0.00    -0.180 NA
ATOM      4  C   UNL     1      34.864 -18.970 -21.996  0.00  0.00    -0.018 C 
ATOM      5  C   UNL     1      33.862 -19.096 -23.148  0.00  0.00    +0.020 C 
ATOM      6  C   UNL     1      34.762 -17.571 -21.381  0.00  0.00    +0.020 C 
ATOM      7  C   UNL     1      34.066 -18.000 -24.194  0.00  0.00    +0.101 C 
ATOM      8  C   UNL     1      34.969 -16.482 -22.432  0.00  0.00    +0.101 C 
ATOM      9  C   UNL     1      33.726 -15.550 -24.330  0.00  0.00    +0.090 C 
ATOM     10  C   UNL     1      33.125 -14.643 -26.353  0.00  0.00    +0.170 C 
ATOM     11  C   UNL     1      33.401 -13.281 -24.475  0.00  0.00    +0.113 C 
ATOM     12  C   UNL     1      33.092 -13.372 -25.817  0.00  0.00    +0.078 C 
ENDROOT
BRANCH  12  15
ATOM     13  O   UNL     1      32.574 -12.300 -27.841  0.00  0.00    -0.268 OA
ATOM     14  N   UNL     1      32.652 -10.990 -25.947  0.00  0.00    -0.194 N 
ATOM     15  C   UNL     1      32.754 -12.207 -26.611  0.00  0.00    +0.267 C 
ATOM     16  H   UNL     1      32.794 -10.921 -24.974  0.00  0.00    +0.183 HD
BRANCH  14  17
ATOM     17  O   UNL     1      32.337  -9.866 -26.723  0.00  0.00    -0.295 OA
ATOM     18  H   UNL     1      31.705 -10.117 -27.414  0.00  0.00    +0.241 HD
ENDBRANCH  14  17
ENDBRANCH  12  15
BRANCH   4  19
ATOM     19  C   UNL     1      34.618 -20.047 -20.941  0.00  0.00    -0.081 C 
BRANCH  19  20
ATOM     20  N   UNL     1      35.653 -20.018 -19.919  0.00  0.00    +0.386 N 
ATOM     21  H   UNL     1      35.241 -19.713 -19.036  0.00  0.00    -0.084 HD
ATOM     22  H   UNL     1      36.384 -19.371 -20.214  0.00  0.00    -0.084 HD
BRANCH  20  23
ATOM     23  C   UNL     1      36.245 -21.337 -19.738  0.00  0.00    -0.053 C 
BRANCH  23  25
ATOM     24  N   UNL     1      36.176 -22.512 -16.281  0.00  0.00    -0.284 N 
ATOM     25  C   UNL     1      35.938 -21.870 -18.366  0.00  0.00    -0.028 C 
ATOM     26  C   UNL     1      34.679 -22.317 -17.923  0.00  0.00    +0.009 C 
ATOM     27  C   UNL     1      36.844 -21.992 -17.357  0.00  0.00    +0.059 C 
ATOM     28  C   UNL     1      34.853 -22.720 -16.598  0.00  0.00    +0.051 C 
ATOM     29  C   UNL     1      33.401 -22.427 -18.503  0.00  0.00    +0.001 C 
ATOM     30  C   UNL     1      33.807 -23.230 -15.819  0.00  0.00    +0.015 C 
ATOM     31  C   UNL     1      36.789 -22.793 -15.000  0.00  0.00    +0.117 C 
ATOM     32  C   UNL     1      32.344 -22.935 -17.738  0.00  0.00    +0.000 C 
ATOM     33  C   UNL     1      32.547 -23.329 -16.416  0.00  0.00    +0.001 C 
ENDBRANCH  23  25
ENDBRANCH  20  23
ENDBRANCH  19  20
ENDBRANCH   4  19
TORSDOF 6
ENDMDL
MODEL 7
REMARK VINA RESULT:     -10.8      4.439     11.339
REMARK  Name = 11538455
REMARK  6 active torsions:
REMARK  status: ('A' for Active; 'I' for Inactive)
REMARK    1  A    between atoms: C_4  and  C_19
REMARK    2  A    between atoms: C_12  and  C_15
REMARK    3  A    between atoms: N_14  and  O_17
REMARK    4  A    between atoms: C_19  and  N_20
REMARK    5  A    between atoms: N_20  and  C_23
REMARK    6  A    between atoms: C_23  and  C_25
REMARK                            x       y       z     vdW  Elec       q    Type
REMARK                         _______ _______ _______ _____ _____    ______ ____
ROOT
ATOM      1  N   UNL     1      34.818 -20.738 -19.887  0.00  0.00    -0.253 N 
ATOM      2  N   UNL     1      33.668 -19.853 -21.749  0.00  0.00    -0.203 NA
ATOM      3  N   UNL     1      35.874 -19.068 -21.179  0.00  0.00    -0.180 NA
ATOM      4  C   UNL     1      34.959 -22.653 -17.720  0.00  0.00    -0.018 C 
ATOM      5  C   UNL     1      33.630 -22.030 -18.159  0.00  0.00    +0.020 C 
ATOM      6  C   UNL     1      36.101 -21.672 -18.003  0.00  0.00    +0.020 C 
ATOM      7  C   UNL     1      33.665 -21.606 -19.627  0.00  0.00    +0.101 C 
ATOM      8  C   UNL     1      36.129 -21.255 -19.473  0.00  0.00    +0.101 C 
ATOM      9  C   UNL     1      34.786 -19.857 -20.975  0.00  0.00    +0.090 C 
ATOM     10  C   UNL     1      33.670 -18.990 -22.786  0.00  0.00    +0.170 C 
ATOM     11  C   UNL     1      35.809 -18.230 -22.234  0.00  0.00    +0.113 C 
ATOM     12  C   UNL     1      34.722 -18.147 -23.080  0.00  0.00    +0.078 C 
ENDROOT
BRANCH  12  15
ATOM     13  O   UNL     1      35.003 -16.035 -24.068  0.00  0.00    -0.268 OA
ATOM     14  N   UNL     1      34.281 -17.747 -25.431  0.00  0.00    -0.194 N 
ATOM     15  C   UNL     1      34.689 -17.234 -24.206  0.00  0.00    +0.267 C 
ATOM     16  H   UNL     1      34.035 -18.695 -25.536  0.00  0.00    +0.183 HD
BRANCH  14  17
ATOM     17  O   UNL     1      34.239 -16.855 -26.513  0.00  0.00    -0.295 OA
ATOM     18  H   UNL     1      33.752 -16.057 -26.255  0.00  0.00    +0.241 HD
ENDBRANCH  14  17
ENDBRANCH  12  15
BRANCH   4  19
ATOM     19  C   UNL     1      34.921 -23.030 -16.241  0.00  0.00    -0.081 C 
BRANCH  19  20
ATOM     20  N   UNL     1      33.606 -23.528 -15.867  0.00  0.00    +0.386 N 
ATOM     21  H   UNL     1      33.046 -23.658 -16.710  0.00  0.00    -0.084 HD
ATOM     22  H   UNL     1      33.166 -22.849 -15.246  0.00  0.00    -0.084 HD
BRANCH  20  23
ATOM     23  C   UNL     1      33.710 -24.801 -15.164  0.00  0.00    -0.053 C 
BRANCH  23  25
ATOM     24  N   UNL     1      35.629 -24.272 -12.102  0.00  0.00    -0.284 N 
ATOM     25  C   UNL     1      34.714 -24.708 -14.049  0.00  0.00    -0.028 C 
ATOM     26  C   UNL     1      36.045 -25.163 -14.104  0.00  0.00    +0.009 C 
ATOM     27  C   UNL     1      34.471 -24.167 -12.824  0.00  0.00    +0.059 C 
ATOM     28  C   UNL     1      36.607 -24.877 -12.859  0.00  0.00    +0.051 C 
ATOM     29  C   UNL     1      36.842 -25.792 -15.080  0.00  0.00    +0.001 C 
ATOM     30  C   UNL     1      37.934 -25.189 -12.538  0.00  0.00    +0.015 C 
ATOM     31  C   UNL     1      35.785 -23.811 -10.739  0.00  0.00    +0.117 C 
ATOM     32  C   UNL     1      38.172 -26.111 -14.775  0.00  0.00    +0.000 C 
ATOM     33  C   UNL     1      38.706 -25.813 -13.522  0.00  0.00    +0.001 C 
ENDBRANCH  23  25
ENDBRANCH  20  23
ENDBRANCH  19  20
ENDBRANCH   4  19
TORSDOF 6
ENDMDL
MODEL 8
REMARK VINA RESULT:     -10.5      1.171      2.646
REMARK  Name = 11538455
REMARK  6 active torsions:
REMARK  status: ('A' for Active; 'I' for Inactive)
REMARK    1  A    between atoms: C_4  and  C_19
REMARK    2  A    between atoms: C_12  and  C_15
REMARK    3  A    between atoms: N_14  and  O_17
REMARK    4  A    between atoms: C_19  and  N_20
REMARK    5  A    between atoms: N_20  and  C_23
REMARK    6  A    between atoms: C_23  and  C_25
REMARK                            x       y       z     vdW  Elec       q    Type
REMARK                         _______ _______ _______ _____ _____    ______ ____
ROOT
ATOM      1  N   UNL     1      35.503 -22.110 -17.964  0.00  0.00    -0.253 N 
ATOM      2  N   UNL     1      34.926 -23.426 -16.091  0.00  0.00    -0.203 NA
ATOM      3  N   UNL     1      37.224 -22.843 -16.524  0.00  0.00    -0.180 NA
ATOM      4  C   UNL     1      34.691 -20.526 -20.247  0.00  0.00    -0.018 C 
ATOM      5  C   UNL     1      33.917 -21.776 -19.818  0.00  0.00    +0.020 C 
ATOM      6  C   UNL     1      36.164 -20.678 -19.856  0.00  0.00    +0.020 C 
ATOM      7  C   UNL     1      34.082 -22.055 -18.324  0.00  0.00    +0.101 C 
ATOM      8  C   UNL     1      36.321 -20.955 -18.362  0.00  0.00    +0.101 C 
ATOM      9  C   UNL     1      35.899 -22.816 -16.821  0.00  0.00    +0.090 C 
ATOM     10  C   UNL     1      35.342 -24.100 -14.999  0.00  0.00    +0.170 C 
ATOM     11  C   UNL     1      37.570 -23.534 -15.419  0.00  0.00    +0.113 C 
ATOM     12  C   UNL     1      36.663 -24.189 -14.610  0.00  0.00    +0.078 C 
ENDROOT
BRANCH  12  15
ATOM     13  O   UNL     1      38.249 -24.869 -13.017  0.00  0.00    -0.268 OA
ATOM     14  N   UNL     1      36.107 -25.688 -12.787  0.00  0.00    -0.194 N 
ATOM     15  C   UNL     1      37.072 -24.921 -13.428  0.00  0.00    +0.267 C 
ATOM     16  H   UNL     1      35.178 -25.725 -13.114  0.00  0.00    +0.183 HD
BRANCH  14  17
ATOM     17  O   UNL     1      36.513 -26.404 -11.651  0.00  0.00    -0.295 OA
ATOM     18  H   UNL     1      37.315 -26.000 -11.284  0.00  0.00    +0.241 HD
ENDBRANCH  14  17
ENDBRANCH  12  15
BRANCH   4  19
ATOM     19  C   UNL     1      34.548 -20.287 -21.748  0.00  0.00    -0.081 C 
BRANCH  19  20
ATOM     20  N   UNL     1      34.359 -18.873 -22.033  0.00  0.00    +0.386 N 
ATOM     21  H   UNL     1      34.979 -18.326 -21.435  0.00  0.00    -0.084 HD
ATOM     22  H   UNL     1      33.384 -18.632 -21.851  0.00  0.00    -0.084 HD
BRANCH  20  23
ATOM     23  C   UNL     1      34.658 -18.576 -23.428  0.00  0.00    -0.053 C 
BRANCH  23  25
ATOM     24  N   UNL     1      34.087 -14.973 -23.592  0.00  0.00    -0.284 N 
ATOM     25  C   UNL     1      34.305 -17.150 -23.752  0.00  0.00    -0.028 C 
ATOM     26  C   UNL     1      33.671 -16.709 -24.928  0.00  0.00    +0.009 C 
ATOM     27  C   UNL     1      34.556 -16.084 -22.944  0.00  0.00    +0.059 C 
ATOM     28  C   UNL     1      33.542 -15.325 -24.806  0.00  0.00    +0.051 C 
ATOM     29  C   UNL     1      33.187 -17.336 -26.093  0.00  0.00    +0.001 C 
ATOM     30  C   UNL     1      32.950 -14.531 -25.795  0.00  0.00    +0.015 C 
ATOM     31  C   UNL     1      34.165 -13.628 -23.063  0.00  0.00    +0.117 C 
ATOM     32  C   UNL     1      32.592 -16.555 -27.092  0.00  0.00    +0.000 C 
ATOM     33  C   UNL     1      32.477 -15.173 -26.943  0.00  0.00    +0.001 C 
ENDBRANCH  23  25
ENDBRANCH  20  23
ENDBRANCH  19  20
ENDBRANCH   4  19
TORSDOF 6
ENDMDL
MODEL 9
REMARK VINA RESULT:     -10.5      4.454     11.169
REMARK  Name = 11538455
REMARK  6 active torsions:
REMARK  status: ('A' for Active; 'I' for Inactive)
REMARK    1  A    between atoms: C_4  and  C_19
REMARK    2  A    between atoms: C_12  and  C_15
REMARK    3  A    between atoms: N_14  and  O_17
REMARK    4  A    between atoms: C_19  and  N_20
REMARK    5  A    between atoms: N_20  and  C_23
REMARK    6  A    between atoms: C_23  and  C_25
REMARK                            x       y       z     vdW  Elec       q    Type
REMARK                         _______ _______ _______ _____ _____    ______ ____
ROOT
ATOM      1  N   UNL     1      34.761 -20.536 -20.193  0.00  0.00    -0.253 N 
ATOM      2  N   UNL     1      33.606 -19.632 -22.042  0.00  0.00    -0.203 NA
ATOM      3  N   UNL     1      35.758 -18.763 -21.391  0.00  0.00    -0.180 NA
ATOM      4  C   UNL     1      34.956 -22.532 -18.104  0.00  0.00    -0.018 C 
ATOM      5  C   UNL     1      33.607 -21.958 -18.547  0.00  0.00    +0.020 C 
ATOM      6  C   UNL     1      36.053 -21.484 -18.321  0.00  0.00    +0.020 C 
ATOM      7  C   UNL     1      33.649 -21.471 -19.996  0.00  0.00    +0.101 C 
ATOM      8  C   UNL     1      36.089 -21.004 -19.771  0.00  0.00    +0.101 C 
ATOM      9  C   UNL     1      34.707 -19.612 -21.244  0.00  0.00    +0.090 C 
ATOM     10  C   UNL     1      33.585 -18.727 -23.043  0.00  0.00    +0.170 C 
ATOM     11  C   UNL     1      35.671 -17.885 -22.412  0.00  0.00    +0.113 C 
ATOM     12  C   UNL     1      34.599 -17.821 -23.279  0.00  0.00    +0.078 C 
ENDROOT
BRANCH  12  15
ATOM     13  O   UNL     1      34.729 -15.648 -24.159  0.00  0.00    -0.268 OA
ATOM     14  N   UNL     1      34.260 -17.356 -25.634  0.00  0.00    -0.194 N 
ATOM     15  C   UNL     1      34.542 -16.864 -24.366  0.00  0.00    +0.267 C 
ATOM     16  H   UNL     1      34.114 -18.317 -25.793  0.00  0.00    +0.183 HD
BRANCH  14  17
ATOM     17  O   UNL     1      34.194 -16.423 -26.679  0.00  0.00    -0.295 OA
ATOM     18  H   UNL     1      35.051 -15.977 -26.769  0.00  0.00    +0.241 HD
ENDBRANCH  14  17
ENDBRANCH  12  15
BRANCH   4  19
ATOM     19  C   UNL     1      34.907 -22.973 -16.644  0.00  0.00    -0.081 C 
BRANCH  19  20
ATOM     20  N   UNL     1      33.620 -23.571 -16.325  0.00  0.00    +0.386 N 
ATOM     21  H   UNL     1      33.438 -24.336 -16.975  0.00  0.00    -0.084 HD
ATOM     22  H   UNL     1      32.899 -22.854 -16.407  0.00  0.00    -0.084 HD
BRANCH  20  23
ATOM     23  C   UNL     1      33.607 -24.089 -14.963  0.00  0.00    -0.053 C 
BRANCH  23  25
ATOM     24  N   UNL     1      36.711 -25.987 -14.655  0.00  0.00    -0.284 N 
ATOM     25  C   UNL     1      34.939 -24.695 -14.616  0.00  0.00    -0.028 C 
ATOM     26  C   UNL     1      35.782 -24.275 -13.570  0.00  0.00    +0.009 C 
ATOM     27  C   UNL     1      35.514 -25.739 -15.272  0.00  0.00    +0.059 C 
ATOM     28  C   UNL     1      36.901 -25.109 -13.614  0.00  0.00    +0.051 C 
ATOM     29  C   UNL     1      35.721 -23.271 -12.583  0.00  0.00    +0.001 C 
ATOM     30  C   UNL     1      37.967 -24.989 -12.714  0.00  0.00    +0.015 C 
ATOM     31  C   UNL     1      37.634 -27.028 -15.057  0.00  0.00    +0.117 C 
ATOM     32  C   UNL     1      36.781 -23.140 -11.676  0.00  0.00    +0.000 C 
ATOM     33  C   UNL     1      37.886 -23.987 -11.743  0.00  0.00    +0.001 C 
ENDBRANCH  23  25
ENDBRANCH  20  23
ENDBRANCH  19  20
ENDBRANCH   4  19
TORSDOF 6
ENDMDL
