MODEL 1
REMARK VINA RESULT:     -12.9      0.000      0.000
REMARK  Name = 216239
REMARK  6 active torsions:
REMARK  status: ('A' for Active; 'I' for Inactive)
REMARK    1  A    between atoms: C_1  and  N_9
REMARK    2  A    between atoms: C_2  and  O_24
REMARK    3  A    between atoms: N_8  and  C_14
REMARK    4  A    between atoms: C_15  and  C_23
REMARK    5  A    between atoms: O_24  and  C_26
REMARK    6  A    between atoms: C_28  and  C_33
REMARK                            x       y       z     vdW  Elec       q    Type
REMARK                         _______ _______ _______ _____ _____    ______ ____
ROOT
ATOM      1  C   UNL     1      35.935 -20.018 -20.275  0.00  0.00    +0.052 C 
ATOM      2  C   UNL     1      35.009 -19.141 -22.733  0.00  0.00    +0.145 C 
ATOM      3  C   UNL     1      36.814 -19.405 -21.150  0.00  0.00    +0.018 C 
ATOM      4  C   UNL     1      34.602 -20.203 -20.602  0.00  0.00    +0.018 C 
ATOM      5  C   UNL     1      36.348 -18.963 -22.388  0.00  0.00    +0.039 C 
ATOM      6  C   UNL     1      34.135 -19.763 -21.841  0.00  0.00    +0.039 C 
ENDROOT
BRANCH   1   9
ATOM      7  O   UNL     1      35.138 -22.395 -18.652  0.00  0.00    -0.252 OA
ATOM      8  N   UNL     1      36.725 -21.686 -17.082  0.00  0.00    -0.268 N 
ATOM      9  N   UNL     1      36.408 -20.466 -19.019  0.00  0.00    -0.268 N 
ATOM     10  C   UNL     1      35.998 -21.598 -18.295  0.00  0.00    +0.308 C 
ATOM     11  H   UNL     1      37.385 -20.971 -16.927  0.00  0.00    +0.156 HD
ATOM     12  H   UNL     1      37.111 -19.919 -18.601  0.00  0.00    +0.156 HD
BRANCH   8  14
ATOM     13 CL   UNL     1      36.283 -25.749 -12.813  0.00  0.00    -0.082 Cl
ATOM     14  C   UNL     1      36.630 -22.648 -16.077  0.00  0.00    +0.052 C 
ATOM     15  C   UNL     1      37.629 -24.422 -14.777  0.00  0.00    +0.083 C 
ATOM     16  C   UNL     1      37.725 -23.461 -15.783  0.00  0.00    +0.019 C 
ATOM     17  C   UNL     1      35.439 -22.797 -15.366  0.00  0.00    +0.016 C 
ATOM     18  C   UNL     1      36.438 -24.572 -14.066  0.00  0.00    +0.062 C 
ATOM     19  C   UNL     1      35.344 -23.759 -14.360  0.00  0.00    +0.013 C 
BRANCH  15  23
ATOM     20  F   UNL     1      38.576 -26.610 -14.578  0.00  0.00    -0.166 F 
ATOM     21  F   UNL     1      39.870 -25.043 -15.338  0.00  0.00    -0.166 F 
ATOM     22  F   UNL     1      39.319 -25.071 -13.234  0.00  0.00    -0.166 F 
ATOM     23  C   UNL     1      38.826 -25.271 -14.490  0.00  0.00    +0.419 C 
ENDBRANCH  15  23
ENDBRANCH   8  14
ENDBRANCH   1   9
BRANCH   2  24
ATOM     24  O   UNL     1      34.554 -18.712 -23.942  0.00  0.00    -0.453 OA
BRANCH  24  26
ATOM     25  N   UNL     1      33.743 -14.658 -24.369  0.00  0.00    -0.239 NA
ATOM     26  C   UNL     1      34.285 -17.361 -24.085  0.00  0.00    +0.149 C 
ATOM     27  C   UNL     1      33.743 -16.903 -25.267  0.00  0.00    +0.061 C 
ATOM     28  C   UNL     1      33.490 -15.544 -25.359  0.00  0.00    +0.137 C 
ATOM     29  C   UNL     1      34.563 -16.505 -23.041  0.00  0.00    +0.058 C 
ATOM     30  C   UNL     1      34.275 -15.163 -23.234  0.00  0.00    +0.102 C 
BRANCH  28  33
ATOM     31  O   UNL     1      32.992 -15.606 -27.650  0.00  0.00    -0.268 OA
ATOM     32  N   UNL     1      32.276 -13.747 -26.463  0.00  0.00    -0.298 N 
ATOM     33  C   UNL     1      32.920 -14.986 -26.574  0.00  0.00    +0.264 C 
ATOM     34  C   UNL     1      31.641 -13.075 -27.574  0.00  0.00    +0.111 C 
ATOM     35  H   UNL     1      32.256 -13.309 -25.582  0.00  0.00    +0.150 HD
ENDBRANCH  28  33
ENDBRANCH  24  26
ENDBRANCH   2  24
TORSDOF 6
ENDMDL
MODEL 2
REMARK VINA RESULT:     -12.7      1.397      1.832
REMARK  Name = 216239
REMARK  6 active torsions:
REMARK  status: ('A' for Active; 'I' for Inactive)
REMARK    1  A    between atoms: C_1  and  N_9
REMARK    2  A    between atoms: C_2  and  O_24
REMARK    3  A    between atoms: N_8  and  C_14
REMARK    4  A    between atoms: C_15  and  C_23
REMARK    5  A    between atoms: O_24  and  C_26
REMARK    6  A    between atoms: C_28  and  C_33
REMARK                            x       y       z     vdW  Elec       q    Type
REMARK                         _______ _______ _______ _____ _____    ______ ____
ROOT
ATOM      1  C   UNL     1      35.313 -20.670 -19.849  0.00  0.00    +0.052 C 
ATOM      2  C   UNL     1      35.443 -18.700 -21.792  0.00  0.00    +0.145 C 
ATOM      3  C   UNL     1      36.550 -20.203 -20.258  0.00  0.00    +0.018 C 
ATOM      4  C   UNL     1      34.138 -20.174 -20.390  0.00  0.00    +0.018 C 
ATOM      5  C   UNL     1      36.616 -19.211 -21.236  0.00  0.00    +0.039 C 
ATOM      6  C   UNL     1      34.204 -19.183 -21.370  0.00  0.00    +0.039 C 
ENDROOT
BRANCH   1   9
ATOM      7  O   UNL     1      36.753 -20.902 -17.243  0.00  0.00    -0.252 OA
ATOM      8  N   UNL     1      35.593 -22.913 -16.936  0.00  0.00    -0.268 N 
ATOM      9  N   UNL     1      35.247 -21.676 -18.856  0.00  0.00    -0.268 N 
ATOM     10  C   UNL     1      35.949 -21.738 -17.641  0.00  0.00    +0.308 C 
ATOM     11  H   UNL     1      34.933 -23.494 -17.380  0.00  0.00    +0.156 HD
ATOM     12  H   UNL     1      34.634 -22.424 -19.038  0.00  0.00    +0.156 HD
BRANCH   8  14
ATOM     13 CL   UNL     1      37.507 -24.784 -11.667  0.00  0.00    -0.082 Cl
ATOM     14  C   UNL     1      36.053 -23.360 -15.697  0.00  0.00    +0.052 C 
ATOM     15  C   UNL     1      37.722 -24.493 -14.368  0.00  0.00    +0.083 C 
ATOM     16  C   UNL     1      37.262 -24.047 -15.607  0.00  0.00    +0.019 C 
ATOM     17  C   UNL     1      35.301 -23.118 -14.547  0.00  0.00    +0.016 C 
ATOM     18  C   UNL     1      36.971 -24.251 -13.217  0.00  0.00    +0.062 C 
ATOM     19  C   UNL     1      35.760 -23.563 -13.308  0.00  0.00    +0.013 C 
BRANCH  15  23
ATOM     20  F   UNL     1      39.940 -24.644 -13.484  0.00  0.00    -0.166 F 
ATOM     21  F   UNL     1      38.908 -26.511 -13.878  0.00  0.00    -0.166 F 
ATOM     22  F   UNL     1      39.630 -25.300 -15.534  0.00  0.00    -0.166 F 
ATOM     23  C   UNL     1      39.025 -25.223 -14.314  0.00  0.00    +0.419 C 
ENDBRANCH  15  23
ENDBRANCH   8  14
ENDBRANCH   1   9
BRANCH   2  24
ATOM     24  O   UNL     1      35.507 -17.734 -22.748  0.00  0.00    -0.453 OA
BRANCH  24  26
ATOM     25  N   UNL     1      33.366 -18.346 -26.257  0.00  0.00    -0.239 NA
ATOM     26  C   UNL     1      34.793 -17.937 -23.917  0.00  0.00    +0.149 C 
ATOM     27  C   UNL     1      34.313 -16.848 -24.612  0.00  0.00    +0.061 C 
ATOM     28  C   UNL     1      33.606 -17.105 -25.776  0.00  0.00    +0.137 C 
ATOM     29  C   UNL     1      34.578 -19.226 -24.360  0.00  0.00    +0.058 C 
ATOM     30  C   UNL     1      33.859 -19.376 -25.535  0.00  0.00    +0.102 C 
BRANCH  28  33
ATOM     31  O   UNL     1      32.712 -16.192 -27.742  0.00  0.00    -0.268 OA
ATOM     32  N   UNL     1      32.956 -14.765 -25.930  0.00  0.00    -0.298 N 
ATOM     33  C   UNL     1      33.069 -16.009 -26.564  0.00  0.00    +0.264 C 
ATOM     34  C   UNL     1      32.421 -13.586 -26.573  0.00  0.00    +0.111 C 
ATOM     35  H   UNL     1      33.259 -14.689 -24.996  0.00  0.00    +0.150 HD
ENDBRANCH  28  33
ENDBRANCH  24  26
ENDBRANCH   2  24
TORSDOF 6
ENDMDL
MODEL 3
REMARK VINA RESULT:     -12.6      1.597      2.011
REMARK  Name = 216239
REMARK  6 active torsions:
REMARK  status: ('A' for Active; 'I' for Inactive)
REMARK    1  A    between atoms: C_1  and  N_9
REMARK    2  A    between atoms: C_2  and  O_24
REMARK    3  A    between atoms: N_8  and  C_14
REMARK    4  A    between atoms: C_15  and  C_23
REMARK    5  A    between atoms: O_24  and  C_26
REMARK    6  A    between atoms: C_28  and  C_33
REMARK                            x       y       z     vdW  Elec       q    Type
REMARK                         _______ _______ _______ _____ _____    ______ ____
ROOT
ATOM      1  C   UNL     1      34.951 -20.924 -19.698  0.00  0.00    +0.052 C 
ATOM      2  C   UNL     1      35.071 -19.043 -21.727  0.00  0.00    +0.145 C 
ATOM      3  C   UNL     1      33.778 -20.505 -20.303  0.00  0.00    +0.018 C 
ATOM      4  C   UNL     1      36.183 -20.424 -20.085  0.00  0.00    +0.018 C 
ATOM      5  C   UNL     1      33.839 -19.558 -21.325  0.00  0.00    +0.039 C 
ATOM      6  C   UNL     1      36.243 -19.475 -21.107  0.00  0.00    +0.039 C 
ENDROOT
BRANCH   1   9
ATOM      7  O   UNL     1      36.561 -21.164 -17.194  0.00  0.00    -0.252 OA
ATOM      8  N   UNL     1      35.289 -23.073 -16.720  0.00  0.00    -0.268 N 
ATOM      9  N   UNL     1      34.889 -21.885 -18.661  0.00  0.00    -0.268 N 
ATOM     10  C   UNL     1      35.673 -21.953 -17.498  0.00  0.00    +0.308 C 
ATOM     11  H   UNL     1      34.559 -23.620 -17.091  0.00  0.00    +0.156 HD
ATOM     12  H   UNL     1      34.214 -22.593 -18.767  0.00  0.00    +0.156 HD
BRANCH   8  14
ATOM     13 CL   UNL     1      37.451 -24.886 -11.527  0.00  0.00    -0.082 Cl
ATOM     14  C   UNL     1      35.808 -23.505 -15.499  0.00  0.00    +0.052 C 
ATOM     15  C   UNL     1      37.583 -24.537 -14.227  0.00  0.00    +0.083 C 
ATOM     16  C   UNL     1      37.065 -24.106 -15.448  0.00  0.00    +0.019 C 
ATOM     17  C   UNL     1      35.067 -23.335 -14.329  0.00  0.00    +0.016 C 
ATOM     18  C   UNL     1      36.843 -24.368 -13.056  0.00  0.00    +0.062 C 
ATOM     19  C   UNL     1      35.585 -23.766 -13.108  0.00  0.00    +0.013 C 
BRANCH  15  23
ATOM     20  F   UNL     1      38.908 -26.499 -13.885  0.00  0.00    -0.166 F 
ATOM     21  F   UNL     1      39.575 -25.116 -15.417  0.00  0.00    -0.166 F 
ATOM     22  F   UNL     1      39.779 -24.589 -13.317  0.00  0.00    -0.166 F 
ATOM     23  C   UNL     1      38.935 -25.175 -14.214  0.00  0.00    +0.419 C 
ENDBRANCH  15  23
ENDBRANCH   8  14
ENDBRANCH   1   9
BRANCH   2  24
ATOM     24  O   UNL     1      35.130 -18.117 -22.723  0.00  0.00    -0.453 OA
BRANCH  24  26
ATOM     25  N   UNL     1      34.108 -14.201 -21.779  0.00  0.00    -0.239 NA
ATOM     26  C   UNL     1      34.790 -16.812 -22.409  0.00  0.00    +0.149 C 
ATOM     27  C   UNL     1      34.426 -15.949 -23.420  0.00  0.00    +0.061 C 
ATOM     28  C   UNL     1      34.094 -14.655 -23.053  0.00  0.00    +0.137 C 
ATOM     29  C   UNL     1      34.823 -16.406 -21.092  0.00  0.00    +0.058 C 
ATOM     30  C   UNL     1      34.474 -15.091 -20.829  0.00  0.00    +0.102 C 
BRANCH  28  33
ATOM     31  O   UNL     1      33.945 -12.476 -23.907  0.00  0.00    -0.268 OA
ATOM     32  N   UNL     1      33.061 -14.182 -25.205  0.00  0.00    -0.298 N 
ATOM     33  C   UNL     1      33.699 -13.686 -24.062  0.00  0.00    +0.264 C 
ATOM     34  C   UNL     1      32.629 -13.348 -26.304  0.00  0.00    +0.111 C 
ATOM     35  H   UNL     1      32.896 -15.151 -25.263  0.00  0.00    +0.150 HD
ENDBRANCH  28  33
ENDBRANCH  24  26
ENDBRANCH   2  24
TORSDOF 6
ENDMDL
MODEL 4
REMARK VINA RESULT:     -12.6      6.178     12.202
REMARK  Name = 216239
REMARK  6 active torsions:
REMARK  status: ('A' for Active; 'I' for Inactive)
REMARK    1  A    between atoms: C_1  and  N_9
REMARK    2  A    between atoms: C_2  and  O_24
REMARK    3  A    between atoms: N_8  and  C_14
REMARK    4  A    between atoms: C_15  and  C_23
REMARK    5  A    between atoms: O_24  and  C_26
REMARK    6  A    between atoms: C_28  and  C_33
REMARK                            x       y       z     vdW  Elec       q    Type
REMARK                         _______ _______ _______ _____ _____    ______ ____
ROOT
ATOM      1  C   UNL     1      34.555 -21.821 -18.907  0.00  0.00    +0.052 C 
ATOM      2  C   UNL     1      33.777 -23.308 -16.704  0.00  0.00    +0.145 C 
ATOM      3  C   UNL     1      35.421 -21.947 -17.835  0.00  0.00    +0.018 C 
ATOM      4  C   UNL     1      33.308 -22.422 -18.903  0.00  0.00    +0.018 C 
ATOM      5  C   UNL     1      35.030 -22.696 -16.725  0.00  0.00    +0.039 C 
ATOM      6  C   UNL     1      32.915 -23.171 -17.792  0.00  0.00    +0.039 C 
ENDROOT
BRANCH   1   9
ATOM      7  O   UNL     1      33.058 -19.760 -20.466  0.00  0.00    -0.252 OA
ATOM      8  N   UNL     1      34.976 -19.571 -21.798  0.00  0.00    -0.268 N 
ATOM      9  N   UNL     1      34.953 -21.061 -20.032  0.00  0.00    -0.268 N 
ATOM     10  C   UNL     1      34.207 -20.098 -20.732  0.00  0.00    +0.308 C 
ATOM     11  H   UNL     1      35.885 -19.939 -21.892  0.00  0.00    +0.156 HD
ATOM     12  H   UNL     1      35.864 -21.226 -20.365  0.00  0.00    +0.156 HD
BRANCH   8  14
ATOM     13 CL   UNL     1      33.485 -15.428 -25.740  0.00  0.00    -0.082 Cl
ATOM     14  C   UNL     1      34.619 -18.600 -22.734  0.00  0.00    +0.052 C 
ATOM     15  C   UNL     1      33.392 -17.950 -24.711  0.00  0.00    +0.083 C 
ATOM     16  C   UNL     1      33.750 -18.921 -23.776  0.00  0.00    +0.019 C 
ATOM     17  C   UNL     1      35.133 -17.307 -22.627  0.00  0.00    +0.016 C 
ATOM     18  C   UNL     1      33.906 -16.656 -24.604  0.00  0.00    +0.062 C 
ATOM     19  C   UNL     1      34.776 -16.336 -23.561  0.00  0.00    +0.013 C 
BRANCH  15  23
ATOM     20  F   UNL     1      32.163 -19.665 -25.836  0.00  0.00    -0.166 F 
ATOM     21  F   UNL     1      31.250 -17.699 -25.744  0.00  0.00    -0.166 F 
ATOM     22  F   UNL     1      32.957 -18.042 -27.046  0.00  0.00    -0.166 F 
ATOM     23  C   UNL     1      32.456 -18.333 -25.811  0.00  0.00    +0.419 C 
ENDBRANCH  15  23
ENDBRANCH   8  14
ENDBRANCH   1   9
BRANCH   2  24
ATOM     24  O   UNL     1      33.394 -24.038 -15.621  0.00  0.00    -0.453 OA
BRANCH  24  26
ATOM     25  N   UNL     1      36.307 -25.009 -12.820  0.00  0.00    -0.239 NA
ATOM     26  C   UNL     1      34.364 -24.362 -14.688  0.00  0.00    +0.149 C 
ATOM     27  C   UNL     1      35.491 -25.043 -15.096  0.00  0.00    +0.061 C 
ATOM     28  C   UNL     1      36.432 -25.343 -14.125  0.00  0.00    +0.137 C 
ATOM     29  C   UNL     1      34.182 -23.995 -13.371  0.00  0.00    +0.058 C 
ATOM     30  C   UNL     1      35.182 -24.343 -12.477  0.00  0.00    +0.102 C 
BRANCH  28  33
ATOM     31  O   UNL     1      37.590 -27.219 -14.924  0.00  0.00    -0.268 OA
ATOM     32  N   UNL     1      38.858 -25.377 -14.313  0.00  0.00    -0.298 N 
ATOM     33  C   UNL     1      37.647 -26.059 -14.478  0.00  0.00    +0.264 C 
ATOM     34  C   UNL     1      40.147 -25.945 -14.641  0.00  0.00    +0.111 C 
ATOM     35  H   UNL     1      38.832 -24.460 -13.954  0.00  0.00    +0.150 HD
ENDBRANCH  28  33
ENDBRANCH  24  26
ENDBRANCH   2  24
TORSDOF 6
ENDMDL
MODEL 5
REMARK VINA RESULT:     -12.5      7.091     11.921
REMARK  Name = 216239
REMARK  6 active torsions:
REMARK  status: ('A' for Active; 'I' for Inactive)
REMARK    1  A    between atoms: C_1  and  N_9
REMARK    2  A    between atoms: C_2  and  O_24
REMARK    3  A    between atoms: N_8  and  C_14
REMARK    4  A    between atoms: C_15  and  C_23
REMARK    5  A    between atoms: O_24  and  C_26
REMARK    6  A    between atoms: C_28  and  C_33
REMARK                            x       y       z     vdW  Elec       q    Type
REMARK                         _______ _______ _______ _____ _____    ______ ____
ROOT
ATOM      1  C   UNL     1      34.465 -20.040 -20.581  0.00  0.00    +0.052 C 
ATOM      2  C   UNL     1      34.033 -22.351 -19.115  0.00  0.00    +0.145 C 
ATOM      3  C   UNL     1      33.167 -20.437 -20.308  0.00  0.00    +0.018 C 
ATOM      4  C   UNL     1      35.552 -20.774 -20.137  0.00  0.00    +0.018 C 
ATOM      5  C   UNL     1      32.949 -21.600 -19.569  0.00  0.00    +0.039 C 
ATOM      6  C   UNL     1      35.335 -21.938 -19.400  0.00  0.00    +0.039 C 
ENDROOT
BRANCH   1   9
ATOM      7  O   UNL     1      33.129 -19.059 -23.065  0.00  0.00    -0.252 OA
ATOM      8  N   UNL     1      34.547 -17.200 -22.930  0.00  0.00    -0.268 N 
ATOM      9  N   UNL     1      34.684 -18.861 -21.330  0.00  0.00    -0.268 N 
ATOM     10  C   UNL     1      34.025 -18.443 -22.498  0.00  0.00    +0.308 C 
ATOM     11  H   UNL     1      35.268 -16.822 -22.374  0.00  0.00    +0.156 HD
ATOM     12  H   UNL     1      35.385 -18.258 -20.992  0.00  0.00    +0.156 HD
BRANCH   8  14
ATOM     13 CL   UNL     1      32.998 -14.006 -27.656  0.00  0.00    -0.082 Cl
ATOM     14  C   UNL     1      34.179 -16.438 -24.039  0.00  0.00    +0.052 C 
ATOM     15  C   UNL     1      33.451 -14.339 -24.989  0.00  0.00    +0.083 C 
ATOM     16  C   UNL     1      33.818 -15.101 -23.879  0.00  0.00    +0.019 C 
ATOM     17  C   UNL     1      34.173 -17.015 -25.309  0.00  0.00    +0.016 C 
ATOM     18  C   UNL     1      33.444 -14.916 -26.259  0.00  0.00    +0.062 C 
ATOM     19  C   UNL     1      33.806 -16.254 -26.419  0.00  0.00    +0.013 C 
BRANCH  15  23
ATOM     20  F   UNL     1      32.007 -12.511 -25.529  0.00  0.00    -0.166 F 
ATOM     21  F   UNL     1      32.729 -12.624 -23.486  0.00  0.00    -0.166 F 
ATOM     22  F   UNL     1      34.085 -12.050 -25.087  0.00  0.00    -0.166 F 
ATOM     23  C   UNL     1      33.073 -12.909 -24.776  0.00  0.00    +0.419 C 
ENDBRANCH  15  23
ENDBRANCH   8  14
ENDBRANCH   1   9
BRANCH   2  24
ATOM     24  O   UNL     1      33.821 -23.487 -18.396  0.00  0.00    -0.453 OA
BRANCH  24  26
ATOM     25  N   UNL     1      31.848 -23.132 -14.756  0.00  0.00    -0.239 NA
ATOM     26  C   UNL     1      33.164 -23.368 -17.184  0.00  0.00    +0.149 C 
ATOM     27  C   UNL     1      31.797 -23.189 -17.173  0.00  0.00    +0.061 C 
ATOM     28  C   UNL     1      31.186 -23.077 -15.934  0.00  0.00    +0.137 C 
ATOM     29  C   UNL     1      33.891 -23.432 -16.014  0.00  0.00    +0.058 C 
ATOM     30  C   UNL     1      33.186 -23.308 -14.827  0.00  0.00    +0.102 C 
BRANCH  28  33
ATOM     31  O   UNL     1      29.219 -22.595 -14.753  0.00  0.00    -0.268 OA
ATOM     32  N   UNL     1      29.010 -23.024 -17.022  0.00  0.00    -0.298 N 
ATOM     33  C   UNL     1      29.749 -22.887 -15.840  0.00  0.00    +0.264 C 
ATOM     34  C   UNL     1      27.578 -22.843 -17.095  0.00  0.00    +0.111 C 
ATOM     35  H   UNL     1      29.492 -23.257 -17.848  0.00  0.00    +0.150 HD
ENDBRANCH  28  33
ENDBRANCH  24  26
ENDBRANCH   2  24
TORSDOF 6
ENDMDL
MODEL 6
REMARK VINA RESULT:     -12.4      6.728     12.375
REMARK  Name = 216239
REMARK  6 active torsions:
REMARK  status: ('A' for Active; 'I' for Inactive)
REMARK    1  A    between atoms: C_1  and  N_9
REMARK    2  A    between atoms: C_2  and  O_24
REMARK    3  A    between atoms: N_8  and  C_14
REMARK    4  A    between atoms: C_15  and  C_23
REMARK    5  A    between atoms: O_24  and  C_26
REMARK    6  A    between atoms: C_28  and  C_33
REMARK                            x       y       z     vdW  Elec       q    Type
REMARK                         _______ _______ _______ _____ _____    ______ ____
ROOT
ATOM      1  C   UNL     1      34.394 -20.129 -20.490  0.00  0.00    +0.052 C 
ATOM      2  C   UNL     1      33.917 -22.449 -19.053  0.00  0.00    +0.145 C 
ATOM      3  C   UNL     1      33.089 -20.542 -20.283  0.00  0.00    +0.018 C 
ATOM      4  C   UNL     1      35.467 -20.851 -19.993  0.00  0.00    +0.018 C 
ATOM      5  C   UNL     1      32.849 -21.710 -19.560  0.00  0.00    +0.039 C 
ATOM      6  C   UNL     1      35.227 -22.021 -19.271  0.00  0.00    +0.039 C 
ENDROOT
BRANCH   1   9
ATOM      7  O   UNL     1      33.115 -19.116 -22.991  0.00  0.00    -0.252 OA
ATOM      8  N   UNL     1      34.544 -17.269 -22.811  0.00  0.00    -0.268 N 
ATOM      9  N   UNL     1      34.637 -18.945 -21.223  0.00  0.00    -0.268 N 
ATOM     10  C   UNL     1      34.004 -18.512 -22.400  0.00  0.00    +0.308 C 
ATOM     11  H   UNL     1      35.256 -16.902 -22.237  0.00  0.00    +0.156 HD
ATOM     12  H   UNL     1      35.335 -18.350 -20.866  0.00  0.00    +0.156 HD
BRANCH   8  14
ATOM     13 CL   UNL     1      33.113 -14.022 -27.537  0.00  0.00    -0.082 Cl
ATOM     14  C   UNL     1      34.203 -16.494 -23.920  0.00  0.00    +0.052 C 
ATOM     15  C   UNL     1      33.480 -14.391 -24.862  0.00  0.00    +0.083 C 
ATOM     16  C   UNL     1      33.819 -15.165 -23.752  0.00  0.00    +0.019 C 
ATOM     17  C   UNL     1      34.247 -17.052 -25.198  0.00  0.00    +0.016 C 
ATOM     18  C   UNL     1      33.523 -14.948 -26.141  0.00  0.00    +0.062 C 
ATOM     19  C   UNL     1      33.908 -16.278 -26.308  0.00  0.00    +0.013 C 
BRANCH  15  23
ATOM     20  F   UNL     1      32.333 -12.449 -25.660  0.00  0.00    -0.166 F 
ATOM     21  F   UNL     1      32.322 -12.787 -23.517  0.00  0.00    -0.166 F 
ATOM     22  F   UNL     1      34.148 -12.137 -24.504  0.00  0.00    -0.166 F 
ATOM     23  C   UNL     1      33.075 -12.969 -24.640  0.00  0.00    +0.419 C 
ENDBRANCH  15  23
ENDBRANCH   8  14
ENDBRANCH   1   9
BRANCH   2  24
ATOM     24  O   UNL     1      33.683 -23.590 -18.349  0.00  0.00    -0.453 OA
BRANCH  24  26
ATOM     25  N   UNL     1      32.051 -23.208 -14.546  0.00  0.00    -0.239 NA
ATOM     26  C   UNL     1      33.140 -23.464 -17.082  0.00  0.00    +0.149 C 
ATOM     27  C   UNL     1      33.939 -23.684 -15.981  0.00  0.00    +0.061 C 
ATOM     28  C   UNL     1      33.348 -23.543 -14.735  0.00  0.00    +0.137 C 
ATOM     29  C   UNL     1      31.811 -23.119 -16.950  0.00  0.00    +0.058 C 
ATOM     30  C   UNL     1      31.315 -23.005 -15.661  0.00  0.00    +0.102 C 
BRANCH  28  33
ATOM     31  O   UNL     1      33.638 -24.376 -12.563  0.00  0.00    -0.268 OA
ATOM     32  N   UNL     1      35.435 -23.265 -13.516  0.00  0.00    -0.298 N 
ATOM     33  C   UNL     1      34.125 -23.759 -13.527  0.00  0.00    +0.264 C 
ATOM     34  C   UNL     1      36.339 -23.420 -12.399  0.00  0.00    +0.111 C 
ATOM     35  H   UNL     1      35.759 -22.785 -14.313  0.00  0.00    +0.150 HD
ENDBRANCH  28  33
ENDBRANCH  24  26
ENDBRANCH   2  24
TORSDOF 6
ENDMDL
MODEL 7
REMARK VINA RESULT:     -12.4      6.724     11.382
REMARK  Name = 216239
REMARK  6 active torsions:
REMARK  status: ('A' for Active; 'I' for Inactive)
REMARK    1  A    between atoms: C_1  and  N_9
REMARK    2  A    between atoms: C_2  and  O_24
REMARK    3  A    between atoms: N_8  and  C_14
REMARK    4  A    between atoms: C_15  and  C_23
REMARK    5  A    between atoms: O_24  and  C_26
REMARK    6  A    between atoms: C_28  and  C_33
REMARK                            x       y       z     vdW  Elec       q    Type
REMARK                         _______ _______ _______ _____ _____    ______ ____
ROOT
ATOM      1  C   UNL     1      34.774 -21.575 -19.378  0.00  0.00    +0.052 C 
ATOM      2  C   UNL     1      34.187 -23.114 -17.151  0.00  0.00    +0.145 C 
ATOM      3  C   UNL     1      33.563 -22.243 -19.316  0.00  0.00    +0.018 C 
ATOM      4  C   UNL     1      35.698 -21.659 -18.350  0.00  0.00    +0.018 C 
ATOM      5  C   UNL     1      33.267 -23.018 -18.195  0.00  0.00    +0.039 C 
ATOM      6  C   UNL     1      35.403 -22.435 -17.229  0.00  0.00    +0.039 C 
ENDROOT
BRANCH   1   9
ATOM      7  O   UNL     1      33.114 -19.545 -20.808  0.00  0.00    -0.252 OA
ATOM      8  N   UNL     1      34.934 -19.278 -22.258  0.00  0.00    -0.268 N 
ATOM      9  N   UNL     1      35.073 -20.789 -20.515  0.00  0.00    -0.268 N 
ATOM     10  C   UNL     1      34.252 -19.843 -21.152  0.00  0.00    +0.308 C 
ATOM     11  H   UNL     1      35.846 -19.615 -22.416  0.00  0.00    +0.156 HD
ATOM     12  H   UNL     1      35.965 -20.920 -20.909  0.00  0.00    +0.156 HD
BRANCH   8  14
ATOM     13 CL   UNL     1      33.057 -15.139 -26.037  0.00  0.00    -0.082 Cl
ATOM     14  C   UNL     1      34.485 -18.309 -23.156  0.00  0.00    +0.052 C 
ATOM     15  C   UNL     1      33.115 -17.676 -25.041  0.00  0.00    +0.083 C 
ATOM     16  C   UNL     1      33.563 -18.646 -24.145  0.00  0.00    +0.019 C 
ATOM     17  C   UNL     1      34.961 -17.000 -23.062  0.00  0.00    +0.016 C 
ATOM     18  C   UNL     1      33.590 -16.367 -24.948  0.00  0.00    +0.062 C 
ATOM     19  C   UNL     1      34.513 -16.030 -23.958  0.00  0.00    +0.013 C 
BRANCH  15  23
ATOM     20  F   UNL     1      31.938 -19.426 -26.170  0.00  0.00    -0.166 F 
ATOM     21  F   UNL     1      30.880 -17.553 -25.886  0.00  0.00    -0.166 F 
ATOM     22  F   UNL     1      32.495 -17.678 -27.337  0.00  0.00    -0.166 F 
ATOM     23  C   UNL     1      32.124 -18.077 -26.086  0.00  0.00    +0.419 C 
ENDBRANCH  15  23
ENDBRANCH   8  14
ENDBRANCH   1   9
BRANCH   2  24
ATOM     24  O   UNL     1      33.899 -23.872 -16.058  0.00  0.00    -0.453 OA
BRANCH  24  26
ATOM     25  N   UNL     1      30.311 -23.145 -14.091  0.00  0.00    -0.239 NA
ATOM     26  C   UNL     1      32.704 -23.628 -15.403  0.00  0.00    +0.149 C 
ATOM     27  C   UNL     1      31.583 -23.314 -16.140  0.00  0.00    +0.061 C 
ATOM     28  C   UNL     1      30.411 -23.081 -15.438  0.00  0.00    +0.137 C 
ATOM     29  C   UNL     1      32.662 -23.708 -14.027  0.00  0.00    +0.058 C 
ATOM     30  C   UNL     1      31.442 -23.456 -13.419  0.00  0.00    +0.102 C 
BRANCH  28  33
ATOM     31  O   UNL     1      29.195 -22.581 -17.379  0.00  0.00    -0.268 OA
ATOM     32  N   UNL     1      28.019 -22.640 -15.381  0.00  0.00    -0.298 N 
ATOM     33  C   UNL     1      29.188 -22.744 -16.145  0.00  0.00    +0.264 C 
ATOM     34  C   UNL     1      26.722 -22.335 -15.942  0.00  0.00    +0.111 C 
ATOM     35  H   UNL     1      28.084 -22.781 -14.409  0.00  0.00    +0.150 HD
ENDBRANCH  28  33
ENDBRANCH  24  26
ENDBRANCH   2  24
TORSDOF 6
ENDMDL
MODEL 8
REMARK VINA RESULT:     -12.3      5.989     12.141
REMARK  Name = 216239
REMARK  6 active torsions:
REMARK  status: ('A' for Active; 'I' for Inactive)
REMARK    1  A    between atoms: C_1  and  N_9
REMARK    2  A    between atoms: C_2  and  O_24
REMARK    3  A    between atoms: N_8  and  C_14
REMARK    4  A    between atoms: C_15  and  C_23
REMARK    5  A    between atoms: O_24  and  C_26
REMARK    6  A    between atoms: C_28  and  C_33
REMARK                            x       y       z     vdW  Elec       q    Type
REMARK                         _______ _______ _______ _____ _____    ______ ____
ROOT
ATOM      1  C   UNL     1      34.628 -21.864 -18.841  0.00  0.00    +0.052 C 
ATOM      2  C   UNL     1      33.822 -23.343 -16.642  0.00  0.00    +0.145 C 
ATOM      3  C   UNL     1      33.393 -22.489 -18.861  0.00  0.00    +0.018 C 
ATOM      4  C   UNL     1      35.470 -21.962 -17.746  0.00  0.00    +0.018 C 
ATOM      5  C   UNL     1      32.987 -23.233 -17.753  0.00  0.00    +0.039 C 
ATOM      6  C   UNL     1      35.064 -22.708 -16.638  0.00  0.00    +0.039 C 
ENDROOT
BRANCH   1   9
ATOM      7  O   UNL     1      33.114 -19.890 -20.494  0.00  0.00    -0.252 OA
ATOM      8  N   UNL     1      35.073 -19.650 -21.756  0.00  0.00    -0.268 N 
ATOM      9  N   UNL     1      35.039 -21.109 -19.964  0.00  0.00    -0.268 N 
ATOM     10  C   UNL     1      34.284 -20.188 -20.710  0.00  0.00    +0.308 C 
ATOM     11  H   UNL     1      35.998 -19.984 -21.809  0.00  0.00    +0.156 HD
ATOM     12  H   UNL     1      35.968 -21.244 -20.260  0.00  0.00    +0.156 HD
BRANCH   8  14
ATOM     13 CL   UNL     1      33.557 -15.701 -25.884  0.00  0.00    -0.082 Cl
ATOM     14  C   UNL     1      34.715 -18.710 -22.723  0.00  0.00    +0.052 C 
ATOM     15  C   UNL     1      34.265 -16.422 -23.353  0.00  0.00    +0.083 C 
ATOM     16  C   UNL     1      34.622 -17.361 -22.385  0.00  0.00    +0.019 C 
ATOM     17  C   UNL     1      34.450 -19.122 -24.030  0.00  0.00    +0.016 C 
ATOM     18  C   UNL     1      33.999 -16.833 -24.659  0.00  0.00    +0.062 C 
ATOM     19  C   UNL     1      34.093 -18.184 -24.997  0.00  0.00    +0.013 C 
BRANCH  15  23
ATOM     20  F   UNL     1      34.483 -14.768 -21.638  0.00  0.00    -0.166 F 
ATOM     21  F   UNL     1      35.018 -14.172 -23.654  0.00  0.00    -0.166 F 
ATOM     22  F   UNL     1      32.929 -14.468 -23.129  0.00  0.00    -0.166 F 
ATOM     23  C   UNL     1      34.178 -14.985 -22.950  0.00  0.00    +0.419 C 
ENDBRANCH  15  23
ENDBRANCH   8  14
ENDBRANCH   1   9
BRANCH   2  24
ATOM     24  O   UNL     1      33.427 -24.071 -15.563  0.00  0.00    -0.453 OA
BRANCH  24  26
ATOM     25  N   UNL     1      36.326 -25.118 -12.775  0.00  0.00    -0.239 NA
ATOM     26  C   UNL     1      34.393 -24.421 -14.634  0.00  0.00    +0.149 C 
ATOM     27  C   UNL     1      35.517 -25.099 -15.053  0.00  0.00    +0.061 C 
ATOM     28  C   UNL     1      36.454 -25.425 -14.086  0.00  0.00    +0.137 C 
ATOM     29  C   UNL     1      34.209 -24.081 -13.310  0.00  0.00    +0.058 C 
ATOM     30  C   UNL     1      35.204 -24.453 -12.421  0.00  0.00    +0.102 C 
BRANCH  28  33
ATOM     31  O   UNL     1      37.602 -27.277 -14.951  0.00  0.00    -0.268 OA
ATOM     32  N   UNL     1      38.882 -25.482 -14.233  0.00  0.00    -0.298 N 
ATOM     33  C   UNL     1      37.665 -26.140 -14.450  0.00  0.00    +0.264 C 
ATOM     34  C   UNL     1      40.169 -26.052 -14.564  0.00  0.00    +0.111 C 
ATOM     35  H   UNL     1      38.861 -24.583 -13.832  0.00  0.00    +0.150 HD
ENDBRANCH  28  33
ENDBRANCH  24  26
ENDBRANCH   2  24
TORSDOF 6
ENDMDL
MODEL 9
REMARK VINA RESULT:     -12.1      6.458     11.282
REMARK  Name = 216239
REMARK  6 active torsions:
REMARK  status: ('A' for Active; 'I' for Inactive)
REMARK    1  A    between atoms: C_1  and  N_9
REMARK    2  A    between atoms: C_2  and  O_24
REMARK    3  A    between atoms: N_8  and  C_14
REMARK    4  A    between atoms: C_15  and  C_23
REMARK    5  A    between atoms: O_24  and  C_26
REMARK    6  A    between atoms: C_28  and  C_33
REMARK                            x       y       z     vdW  Elec       q    Type
REMARK                         _______ _______ _______ _____ _____    ______ ____
ROOT
ATOM      1  C   UNL     1      35.259 -21.259 -19.303  0.00  0.00    +0.052 C 
ATOM      2  C   UNL     1      34.689 -23.048 -17.267  0.00  0.00    +0.145 C 
ATOM      3  C   UNL     1      34.101 -22.013 -19.370  0.00  0.00    +0.018 C 
ATOM      4  C   UNL     1      36.139 -21.379 -18.241  0.00  0.00    +0.018 C 
ATOM      5  C   UNL     1      33.813 -22.914 -18.344  0.00  0.00    +0.039 C 
ATOM      6  C   UNL     1      35.853 -22.281 -17.216  0.00  0.00    +0.039 C 
ENDROOT
BRANCH   1   9
ATOM      7  O   UNL     1      33.439 -19.497 -20.886  0.00  0.00    -0.252 OA
ATOM      8  N   UNL     1      35.354 -18.765 -22.018  0.00  0.00    -0.268 N 
ATOM      9  N   UNL     1      35.550 -20.345 -20.344  0.00  0.00    -0.268 N 
ATOM     10  C   UNL     1      34.652 -19.536 -21.059  0.00  0.00    +0.308 C 
ATOM     11  H   UNL     1      36.329 -18.901 -22.045  0.00  0.00    +0.156 HD
ATOM     12  H   UNL     1      36.497 -20.266 -20.598  0.00  0.00    +0.156 HD
BRANCH   8  14
ATOM     13 CL   UNL     1      33.215 -14.872 -25.917  0.00  0.00    -0.082 Cl
ATOM     14  C   UNL     1      34.849 -17.839 -22.931  0.00  0.00    +0.052 C 
ATOM     15  C   UNL     1      34.170 -15.583 -23.465  0.00  0.00    +0.083 C 
ATOM     16  C   UNL     1      34.674 -16.508 -22.552  0.00  0.00    +0.019 C 
ATOM     17  C   UNL     1      34.519 -18.245 -24.224  0.00  0.00    +0.016 C 
ATOM     18  C   UNL     1      33.839 -15.988 -24.759  0.00  0.00    +0.062 C 
ATOM     19  C   UNL     1      34.015 -17.319 -25.138  0.00  0.00    +0.013 C 
BRANCH  15  23
ATOM     20  F   UNL     1      32.694 -13.785 -22.907  0.00  0.00    -0.166 F 
ATOM     21  F   UNL     1      34.557 -13.907 -21.802  0.00  0.00    -0.166 F 
ATOM     22  F   UNL     1      34.569 -13.277 -23.884  0.00  0.00    -0.166 F 
ATOM     23  C   UNL     1      33.999 -14.166 -23.020  0.00  0.00    +0.419 C 
ENDBRANCH  15  23
ENDBRANCH   8  14
ENDBRANCH   1   9
BRANCH   2  24
ATOM     24  O   UNL     1      34.409 -23.928 -16.268  0.00  0.00    -0.453 OA
BRANCH  24  26
ATOM     25  N   UNL     1      30.896 -23.363 -14.119  0.00  0.00    -0.239 NA
ATOM     26  C   UNL     1      33.239 -23.739 -15.553  0.00  0.00    +0.149 C 
ATOM     27  C   UNL     1      32.086 -23.392 -16.224  0.00  0.00    +0.061 C 
ATOM     28  C   UNL     1      30.942 -23.216 -15.463  0.00  0.00    +0.137 C 
ATOM     29  C   UNL     1      33.252 -23.903 -14.183  0.00  0.00    +0.058 C 
ATOM     30  C   UNL     1      32.056 -23.703 -13.513  0.00  0.00    +0.102 C 
BRANCH  28  33
ATOM     31  O   UNL     1      29.677 -22.377 -17.251  0.00  0.00    -0.268 OA
ATOM     32  N   UNL     1      28.514 -23.076 -15.370  0.00  0.00    -0.298 N 
ATOM     33  C   UNL     1      29.688 -22.850 -16.100  0.00  0.00    +0.264 C 
ATOM     34  C   UNL     1      27.191 -22.785 -15.875  0.00  0.00    +0.111 C 
ATOM     35  H   UNL     1      28.594 -23.452 -14.464  0.00  0.00    +0.150 HD
ENDBRANCH  28  33
ENDBRANCH  24  26
ENDBRANCH   2  24
TORSDOF 6
ENDMDL
