MODEL 1
REMARK VINA RESULT:     -12.2      0.000      0.000
REMARK  Name = 9799284
REMARK  5 active torsions:
REMARK  status: ('A' for Active; 'I' for Inactive)
REMARK    1  A    between atoms: N_1  and  C_19
REMARK    2  A    between atoms: C_2  and  C_8
REMARK    3  A    between atoms: C_8  and  N_10
REMARK    4  A    between atoms: C_19  and  C_21
REMARK    5  A    between atoms: C_21  and  C_23
REMARK                            x       y       z     vdW  Elec       q    Type
REMARK                         _______ _______ _______ _____ _____    ______ ____
ROOT
ATOM      1  N   UNL     1      34.463 -23.848 -13.820  0.00  0.00    +0.392 N 
ATOM      2  C   UNL     1      33.692 -23.010 -16.521  0.00  0.00    +0.016 C 
ATOM      3  C   UNL     1      35.155 -23.178 -16.099  0.00  0.00    -0.021 C 
ATOM      4  C   UNL     1      32.795 -23.892 -15.647  0.00  0.00    -0.021 C 
ATOM      5  C   UNL     1      35.330 -22.951 -14.596  0.00  0.00    -0.077 C 
ATOM      6  C   UNL     1      33.048 -23.641 -14.159  0.00  0.00    -0.077 C 
ATOM      7  H   UNL     1      34.707 -24.809 -14.061  0.00  0.00    -0.079 HD
ENDROOT
BRANCH   2   8
ATOM      8  C   UNL     1      33.506 -23.335 -18.001  0.00  0.00    +0.094 C 
BRANCH   8  10
ATOM      9  O   UNL     1      31.955 -21.423 -19.749  0.00  0.00    -0.270 OA
ATOM     10  N   UNL     1      33.968 -22.259 -18.825  0.00  0.00    -0.272 N 
ATOM     11  C   UNL     1      35.389 -21.917 -18.931  0.00  0.00    +0.121 C 
ATOM     12  C   UNL     1      33.164 -21.420 -19.606  0.00  0.00    +0.249 C 
ATOM     13  C   UNL     1      35.374 -20.763 -19.873  0.00  0.00    +0.002 C 
ATOM     14  C   UNL     1      34.068 -20.473 -20.268  0.00  0.00    +0.051 C 
ATOM     15  C   UNL     1      36.431 -20.014 -20.355  0.00  0.00    -0.002 C 
ATOM     16  C   UNL     1      33.763 -19.447 -21.141  0.00  0.00    +0.004 C 
ATOM     17  C   UNL     1      36.150 -18.969 -21.241  0.00  0.00    -0.000 C 
ATOM     18  C   UNL     1      34.827 -18.688 -21.630  0.00  0.00    +0.000 C 
ENDBRANCH   8  10
ENDBRANCH   2   8
BRANCH   1  19
ATOM     19  C   UNL     1      34.679 -23.655 -12.387  0.00  0.00    -0.006 C 
BRANCH  19  21
ATOM     20  O   UNL     1      35.259 -25.396 -10.819  0.00  0.00    -0.294 OA
ATOM     21  C   UNL     1      35.530 -24.795 -11.856  0.00  0.00    +0.152 C 
BRANCH  21  23
ATOM     22  F   UNL     1      40.061 -26.295 -14.751  0.00  0.00    -0.204 F 
ATOM     23  C   UNL     1      36.742 -25.197 -12.629  0.00  0.00    +0.033 C 
ATOM     24  C   UNL     1      36.659 -26.287 -13.465  0.00  0.00    +0.005 C 
ATOM     25  C   UNL     1      37.894 -24.461 -12.478  0.00  0.00    +0.005 C 
ATOM     26  C   UNL     1      37.790 -26.662 -14.189  0.00  0.00    +0.030 C 
ATOM     27  C   UNL     1      39.026 -24.834 -13.201  0.00  0.00    +0.030 C 
ATOM     28  C   UNL     1      38.974 -25.935 -14.057  0.00  0.00    +0.140 C 
ENDBRANCH  21  23
ENDBRANCH  19  21
ENDBRANCH   1  19
TORSDOF 5
ENDMDL
MODEL 2
REMARK VINA RESULT:     -12.2      7.254     13.547
REMARK  Name = 9799284
REMARK  5 active torsions:
REMARK  status: ('A' for Active; 'I' for Inactive)
REMARK    1  A    between atoms: N_1  and  C_19
REMARK    2  A    between atoms: C_2  and  C_8
REMARK    3  A    between atoms: C_8  and  N_10
REMARK    4  A    between atoms: C_19  and  C_21
REMARK    5  A    between atoms: C_21  and  C_23
REMARK                            x       y       z     vdW  Elec       q    Type
REMARK                         _______ _______ _______ _____ _____    ______ ____
ROOT
ATOM      1  N   UNL     1      33.551 -14.571 -25.169  0.00  0.00    +0.392 N 
ATOM      2  C   UNL     1      34.547 -16.730 -23.454  0.00  0.00    +0.016 C 
ATOM      3  C   UNL     1      34.550 -16.827 -24.983  0.00  0.00    -0.021 C 
ATOM      4  C   UNL     1      34.582 -15.258 -23.028  0.00  0.00    -0.021 C 
ATOM      5  C   UNL     1      33.440 -15.973 -25.597  0.00  0.00    -0.077 C 
ATOM      6  C   UNL     1      33.471 -14.456 -23.707  0.00  0.00    -0.077 C 
ATOM      7  H   UNL     1      34.465 -14.224 -25.463  0.00  0.00    -0.079 HD
ENDROOT
BRANCH   2   8
ATOM      8  C   UNL     1      35.717 -17.504 -22.851  0.00  0.00    +0.094 C 
BRANCH   8  10
ATOM      9  O   UNL     1      37.248 -19.249 -20.921  0.00  0.00    -0.270 OA
ATOM     10  N   UNL     1      35.253 -18.540 -21.979  0.00  0.00    -0.272 N 
ATOM     11  C   UNL     1      33.838 -18.916 -21.906  0.00  0.00    +0.121 C 
ATOM     12  C   UNL     1      36.047 -19.300 -21.112  0.00  0.00    +0.249 C 
ATOM     13  C   UNL     1      33.846 -20.005 -20.889  0.00  0.00    +0.002 C 
ATOM     14  C   UNL     1      35.143 -20.228 -20.425  0.00  0.00    +0.051 C 
ATOM     15  C   UNL     1      32.791 -20.752 -20.399  0.00  0.00    -0.002 C 
ATOM     16  C   UNL     1      35.440 -21.184 -19.473  0.00  0.00    +0.004 C 
ATOM     17  C   UNL     1      33.065 -21.727 -19.435  0.00  0.00    -0.000 C 
ATOM     18  C   UNL     1      34.378 -21.941 -18.976  0.00  0.00    +0.000 C 
ENDBRANCH   8  10
ENDBRANCH   2   8
BRANCH   1  19
ATOM     19  C   UNL     1      32.516 -13.758 -25.805  0.00  0.00    -0.006 C 
BRANCH  19  21
ATOM     20  O   UNL     1      33.233 -12.614 -27.805  0.00  0.00    -0.294 OA
ATOM     21  C   UNL     1      33.175 -12.630 -26.578  0.00  0.00    +0.152 C 
BRANCH  21  23
ATOM     22  F   UNL     1      35.418  -8.401 -23.704  0.00  0.00    -0.204 F 
ATOM     23  C   UNL     1      33.775 -11.498 -25.810  0.00  0.00    +0.033 C 
ATOM     24  C   UNL     1      33.174 -11.109 -24.634  0.00  0.00    +0.005 C 
ATOM     25  C   UNL     1      34.904 -10.890 -26.306  0.00  0.00    +0.005 C 
ATOM     26  C   UNL     1      33.734 -10.053 -23.915  0.00  0.00    +0.030 C 
ATOM     27  C   UNL     1      35.465  -9.835 -25.588  0.00  0.00    +0.030 C 
ATOM     28  C   UNL     1      34.880  -9.416 -24.393  0.00  0.00    +0.140 C 
ENDBRANCH  21  23
ENDBRANCH  19  21
ENDBRANCH   1  19
TORSDOF 5
ENDMDL
MODEL 3
REMARK VINA RESULT:     -11.9      3.848      6.546
REMARK  Name = 9799284
REMARK  5 active torsions:
REMARK  status: ('A' for Active; 'I' for Inactive)
REMARK    1  A    between atoms: N_1  and  C_19
REMARK    2  A    between atoms: C_2  and  C_8
REMARK    3  A    between atoms: C_8  and  N_10
REMARK    4  A    between atoms: C_19  and  C_21
REMARK    5  A    between atoms: C_21  and  C_23
REMARK                            x       y       z     vdW  Elec       q    Type
REMARK                         _______ _______ _______ _____ _____    ______ ____
ROOT
ATOM      1  N   UNL     1      33.928 -21.654 -19.114  0.00  0.00    +0.392 N 
ATOM      2  C   UNL     1      34.831 -19.905 -21.287  0.00  0.00    +0.016 C 
ATOM      3  C   UNL     1      33.454 -19.756 -20.629  0.00  0.00    -0.021 C 
ATOM      4  C   UNL     1      35.804 -20.568 -20.307  0.00  0.00    -0.021 C 
ATOM      5  C   UNL     1      32.961 -21.090 -20.065  0.00  0.00    -0.077 C 
ATOM      6  C   UNL     1      35.233 -21.874 -19.753  0.00  0.00    -0.077 C 
ATOM      7  H   UNL     1      34.058 -20.979 -18.359  0.00  0.00    -0.079 HD
ENDROOT
BRANCH   2   8
ATOM      8  C   UNL     1      35.362 -18.554 -21.759  0.00  0.00    +0.094 C 
BRANCH   8  10
ATOM      9  O   UNL     1      35.143 -15.791 -22.956  0.00  0.00    -0.270 OA
ATOM     10  N   UNL     1      34.667 -18.109 -22.929  0.00  0.00    -0.272 N 
ATOM     11  C   UNL     1      33.904 -19.032 -23.775  0.00  0.00    +0.121 C 
ATOM     12  C   UNL     1      34.624 -16.795 -23.409  0.00  0.00    +0.249 C 
ATOM     13  C   UNL     1      33.378 -18.132 -24.840  0.00  0.00    +0.002 C 
ATOM     14  C   UNL     1      33.802 -16.820 -24.623  0.00  0.00    +0.051 C 
ATOM     15  C   UNL     1      32.583 -18.437 -25.928  0.00  0.00    -0.002 C 
ATOM     16  C   UNL     1      33.460 -15.777 -25.462  0.00  0.00    +0.004 C 
ATOM     17  C   UNL     1      32.221 -17.399 -26.793  0.00  0.00    -0.000 C 
ATOM     18  C   UNL     1      32.657 -16.081 -26.562  0.00  0.00    +0.000 C 
ENDBRANCH   8  10
ENDBRANCH   2   8
BRANCH   1  19
ATOM     19  C   UNL     1      33.420 -22.901 -18.544  0.00  0.00    -0.006 C 
BRANCH  19  21
ATOM     20  O   UNL     1      35.076 -22.854 -16.790  0.00  0.00    -0.294 OA
ATOM     21  C   UNL     1      33.903 -23.025 -17.110  0.00  0.00    +0.152 C 
BRANCH  21  23
ATOM     22  F   UNL     1      30.177 -24.303 -13.153  0.00  0.00    -0.204 F 
ATOM     23  C   UNL     1      32.906 -23.367 -16.052  0.00  0.00    +0.033 C 
ATOM     24  C   UNL     1      33.365 -23.828 -14.840  0.00  0.00    +0.005 C 
ATOM     25  C   UNL     1      31.568 -23.208 -16.330  0.00  0.00    +0.005 C 
ATOM     26  C   UNL     1      32.435 -24.147 -13.850  0.00  0.00    +0.030 C 
ATOM     27  C   UNL     1      30.638 -23.526 -15.342  0.00  0.00    +0.030 C 
ATOM     28  C   UNL     1      31.071 -23.996 -14.102  0.00  0.00    +0.140 C 
ENDBRANCH  21  23
ENDBRANCH  19  21
ENDBRANCH   1  19
TORSDOF 5
ENDMDL
MODEL 4
REMARK VINA RESULT:     -11.6      4.784     10.426
REMARK  Name = 9799284
REMARK  5 active torsions:
REMARK  status: ('A' for Active; 'I' for Inactive)
REMARK    1  A    between atoms: N_1  and  C_19
REMARK    2  A    between atoms: C_2  and  C_8
REMARK    3  A    between atoms: C_8  and  N_10
REMARK    4  A    between atoms: C_19  and  C_21
REMARK    5  A    between atoms: C_21  and  C_23
REMARK                            x       y       z     vdW  Elec       q    Type
REMARK                         _______ _______ _______ _____ _____    ______ ____
ROOT
ATOM      1  N   UNL     1      35.080 -19.579 -21.217  0.00  0.00    +0.392 N 
ATOM      2  C   UNL     1      34.146 -21.604 -19.313  0.00  0.00    +0.016 C 
ATOM      3  C   UNL     1      33.219 -20.959 -20.349  0.00  0.00    -0.021 C 
ATOM      4  C   UNL     1      35.595 -21.548 -19.809  0.00  0.00    -0.021 C 
ATOM      5  C   UNL     1      33.697 -19.555 -20.724  0.00  0.00    -0.077 C 
ATOM      6  C   UNL     1      35.994 -20.125 -20.203  0.00  0.00    -0.077 C 
ATOM      7  H   UNL     1      35.114 -20.192 -22.032  0.00  0.00    -0.079 HD
ENDROOT
BRANCH   2   8
ATOM      8  C   UNL     1      33.723 -23.041 -19.017  0.00  0.00    +0.094 C 
BRANCH   8  10
ATOM      9  O   UNL     1      34.894 -23.807 -16.341  0.00  0.00    -0.270 OA
ATOM     10  N   UNL     1      33.099 -23.137 -17.732  0.00  0.00    -0.272 N 
ATOM     11  C   UNL     1      31.676 -22.845 -17.537  0.00  0.00    +0.121 C 
ATOM     12  C   UNL     1      33.731 -23.504 -16.538  0.00  0.00    +0.249 C 
ATOM     13  C   UNL     1      31.497 -23.074 -16.075  0.00  0.00    +0.002 C 
ATOM     14  C   UNL     1      32.704 -23.461 -15.491  0.00  0.00    +0.051 C 
ATOM     15  C   UNL     1      30.357 -22.953 -15.304  0.00  0.00    -0.002 C 
ATOM     16  C   UNL     1      32.826 -23.738 -14.144  0.00  0.00    +0.004 C 
ATOM     17  C   UNL     1      30.452 -23.229 -13.936  0.00  0.00    -0.000 C 
ATOM     18  C   UNL     1      31.677 -23.617 -13.361  0.00  0.00    +0.000 C 
ENDBRANCH   8  10
ENDBRANCH   2   8
BRANCH   1  19
ATOM     19  C   UNL     1      35.505 -18.240 -21.620  0.00  0.00    -0.006 C 
BRANCH  19  21
ATOM     20  O   UNL     1      35.130 -18.840 -23.927  0.00  0.00    -0.294 OA
ATOM     21  C   UNL     1      35.055 -17.985 -23.048  0.00  0.00    +0.152 C 
BRANCH  21  23
ATOM     22  F   UNL     1      32.984 -12.960 -24.325  0.00  0.00    -0.204 F 
ATOM     23  C   UNL     1      34.500 -16.641 -23.389  0.00  0.00    +0.033 C 
ATOM     24  C   UNL     1      34.619 -15.627 -22.467  0.00  0.00    +0.005 C 
ATOM     25  C   UNL     1      33.894 -16.470 -24.611  0.00  0.00    +0.005 C 
ATOM     26  C   UNL     1      34.102 -14.371 -22.786  0.00  0.00    +0.030 C 
ATOM     27  C   UNL     1      33.378 -15.215 -24.931  0.00  0.00    +0.030 C 
ATOM     28  C   UNL     1      33.481 -14.165 -24.018  0.00  0.00    +0.140 C 
ENDBRANCH  21  23
ENDBRANCH  19  21
ENDBRANCH   1  19
TORSDOF 5
ENDMDL
MODEL 5
REMARK VINA RESULT:     -11.5      3.312      6.137
REMARK  Name = 9799284
REMARK  5 active torsions:
REMARK  status: ('A' for Active; 'I' for Inactive)
REMARK    1  A    between atoms: N_1  and  C_19
REMARK    2  A    between atoms: C_2  and  C_8
REMARK    3  A    between atoms: C_8  and  N_10
REMARK    4  A    between atoms: C_19  and  C_21
REMARK    5  A    between atoms: C_21  and  C_23
REMARK                            x       y       z     vdW  Elec       q    Type
REMARK                         _______ _______ _______ _____ _____    ______ ____
ROOT
ATOM      1  N   UNL     1      33.877 -21.788 -19.139  0.00  0.00    +0.392 N 
ATOM      2  C   UNL     1      34.769 -19.878 -21.177  0.00  0.00    +0.016 C 
ATOM      3  C   UNL     1      33.345 -19.870 -20.609  0.00  0.00    -0.021 C 
ATOM      4  C   UNL     1      35.729 -20.503 -20.160  0.00  0.00    -0.021 C 
ATOM      5  C   UNL     1      32.929 -21.262 -20.131  0.00  0.00    -0.077 C 
ATOM      6  C   UNL     1      35.234 -21.875 -19.697  0.00  0.00    -0.077 C 
ATOM      7  H   UNL     1      33.901 -21.140 -18.352  0.00  0.00    -0.079 HD
ENDROOT
BRANCH   2   8
ATOM      8  C   UNL     1      35.216 -18.469 -21.559  0.00  0.00    +0.094 C 
BRANCH   8  10
ATOM      9  O   UNL     1      35.082 -15.727 -22.816  0.00  0.00    -0.270 OA
ATOM     10  N   UNL     1      34.582 -18.040 -22.770  0.00  0.00    -0.272 N 
ATOM     11  C   UNL     1      33.851 -18.971 -23.634  0.00  0.00    +0.121 C 
ATOM     12  C   UNL     1      34.575 -16.735 -23.275  0.00  0.00    +0.249 C 
ATOM     13  C   UNL     1      33.387 -18.087 -24.740  0.00  0.00    +0.002 C 
ATOM     14  C   UNL     1      33.813 -16.776 -24.527  0.00  0.00    +0.051 C 
ATOM     15  C   UNL     1      32.641 -18.405 -25.859  0.00  0.00    -0.002 C 
ATOM     16  C   UNL     1      33.522 -15.746 -25.400  0.00  0.00    +0.004 C 
ATOM     17  C   UNL     1      32.332 -17.381 -26.760  0.00  0.00    -0.000 C 
ATOM     18  C   UNL     1      32.769 -16.062 -26.532  0.00  0.00    +0.000 C 
ENDBRANCH   8  10
ENDBRANCH   2   8
BRANCH   1  19
ATOM     19  C   UNL     1      33.438 -23.096 -18.655  0.00  0.00    -0.006 C 
BRANCH  19  21
ATOM     20  O   UNL     1      31.409 -22.405 -17.546  0.00  0.00    -0.294 OA
ATOM     21  C   UNL     1      32.530 -22.901 -17.454  0.00  0.00    +0.152 C 
BRANCH  21  23
ATOM     22  F   UNL     1      34.374 -24.510 -12.436  0.00  0.00    -0.204 F 
ATOM     23  C   UNL     1      33.023 -23.333 -16.112  0.00  0.00    +0.033 C 
ATOM     24  C   UNL     1      34.378 -23.323 -15.875  0.00  0.00    +0.005 C 
ATOM     25  C   UNL     1      32.103 -23.721 -15.166  0.00  0.00    +0.005 C 
ATOM     26  C   UNL     1      34.839 -23.724 -14.621  0.00  0.00    +0.030 C 
ATOM     27  C   UNL     1      32.563 -24.122 -13.913  0.00  0.00    +0.030 C 
ATOM     28  C   UNL     1      33.931 -24.124 -13.640  0.00  0.00    +0.140 C 
ENDBRANCH  21  23
ENDBRANCH  19  21
ENDBRANCH   1  19
TORSDOF 5
ENDMDL
MODEL 6
REMARK VINA RESULT:     -11.3      7.219     11.343
REMARK  Name = 9799284
REMARK  5 active torsions:
REMARK  status: ('A' for Active; 'I' for Inactive)
REMARK    1  A    between atoms: N_1  and  C_19
REMARK    2  A    between atoms: C_2  and  C_8
REMARK    3  A    between atoms: C_8  and  N_10
REMARK    4  A    between atoms: C_19  and  C_21
REMARK    5  A    between atoms: C_21  and  C_23
REMARK                            x       y       z     vdW  Elec       q    Type
REMARK                         _______ _______ _______ _____ _____    ______ ____
ROOT
ATOM      1  N   UNL     1      34.575 -16.481 -22.318  0.00  0.00    +0.392 N 
ATOM      2  C   UNL     1      33.683 -13.777 -23.016  0.00  0.00    +0.016 C 
ATOM      3  C   UNL     1      33.505 -14.971 -23.960  0.00  0.00    -0.021 C 
ATOM      4  C   UNL     1      33.761 -14.269 -21.567  0.00  0.00    -0.021 C 
ATOM      5  C   UNL     1      34.576 -16.036 -23.718  0.00  0.00    -0.077 C 
ATOM      6  C   UNL     1      34.823 -15.358 -21.405  0.00  0.00    -0.077 C 
ATOM      7  H   UNL     1      33.650 -16.859 -22.109  0.00  0.00    -0.079 HD
ENDROOT
BRANCH   2   8
ATOM      8  C   UNL     1      32.555 -12.763 -23.192  0.00  0.00    +0.094 C 
BRANCH   8  10
ATOM      9  O   UNL     1      31.941  -9.866 -22.609  0.00  0.00    -0.270 OA
ATOM     10  N   UNL     1      33.029 -11.574 -23.833  0.00  0.00    -0.272 N 
ATOM     11  C   UNL     1      33.965 -11.621 -24.961  0.00  0.00    +0.121 C 
ATOM     12  C   UNL     1      32.684 -10.262 -23.487  0.00  0.00    +0.249 C 
ATOM     13  C   UNL     1      34.161 -10.178 -25.276  0.00  0.00    +0.002 C 
ATOM     14  C   UNL     1      33.409  -9.383 -24.411  0.00  0.00    +0.051 C 
ATOM     15  C   UNL     1      34.944  -9.596 -26.255  0.00  0.00    -0.002 C 
ATOM     16  C   UNL     1      33.403  -8.003 -24.480  0.00  0.00    +0.004 C 
ATOM     17  C   UNL     1      34.957  -8.200 -26.347  0.00  0.00    -0.000 C 
ATOM     18  C   UNL     1      34.194  -7.411 -25.466  0.00  0.00    +0.000 C 
ENDBRANCH   8  10
ENDBRANCH   2   8
BRANCH   1  19
ATOM     19  C   UNL     1      35.567 -17.535 -22.115  0.00  0.00    -0.006 C 
BRANCH  19  21
ATOM     20  O   UNL     1      34.911 -19.258 -23.673  0.00  0.00    -0.294 OA
ATOM     21  C   UNL     1      34.961 -18.871 -22.508  0.00  0.00    +0.152 C 
BRANCH  21  23
ATOM     22  F   UNL     1      32.883 -22.134 -18.482  0.00  0.00    -0.204 F 
ATOM     23  C   UNL     1      34.405 -19.743 -21.430  0.00  0.00    +0.033 C 
ATOM     24  C   UNL     1      33.041 -19.785 -21.256  0.00  0.00    +0.005 C 
ATOM     25  C   UNL     1      35.278 -20.470 -20.655  0.00  0.00    +0.005 C 
ATOM     26  C   UNL     1      32.521 -20.601 -20.251  0.00  0.00    +0.030 C 
ATOM     27  C   UNL     1      34.760 -21.286 -19.651  0.00  0.00    +0.030 C 
ATOM     28  C   UNL     1      33.381 -21.351 -19.448  0.00  0.00    +0.140 C 
ENDBRANCH  21  23
ENDBRANCH  19  21
ENDBRANCH   1  19
TORSDOF 5
ENDMDL
MODEL 7
REMARK VINA RESULT:     -11.2      6.585     10.924
REMARK  Name = 9799284
REMARK  5 active torsions:
REMARK  status: ('A' for Active; 'I' for Inactive)
REMARK    1  A    between atoms: N_1  and  C_19
REMARK    2  A    between atoms: C_2  and  C_8
REMARK    3  A    between atoms: C_8  and  N_10
REMARK    4  A    between atoms: C_19  and  C_21
REMARK    5  A    between atoms: C_21  and  C_23
REMARK                            x       y       z     vdW  Elec       q    Type
REMARK                         _______ _______ _______ _____ _____    ______ ____
ROOT
ATOM      1  N   UNL     1      34.617 -17.382 -24.099  0.00  0.00    +0.392 N 
ATOM      2  C   UNL     1      33.403 -14.713 -24.137  0.00  0.00    +0.016 C 
ATOM      3  C   UNL     1      34.547 -15.083 -23.187  0.00  0.00    -0.021 C 
ATOM      4  C   UNL     1      33.447 -15.615 -25.376  0.00  0.00    -0.021 C 
ATOM      5  C   UNL     1      34.546 -16.580 -22.870  0.00  0.00    -0.077 C 
ATOM      6  C   UNL     1      33.483 -17.094 -24.987  0.00  0.00    -0.077 C 
ATOM      7  H   UNL     1      35.474 -17.127 -24.591  0.00  0.00    -0.079 HD
ENDROOT
BRANCH   2   8
ATOM      8  C   UNL     1      33.469 -13.239 -24.529  0.00  0.00    +0.094 C 
BRANCH   8  10
ATOM      9  O   UNL     1      33.114 -10.243 -24.433  0.00  0.00    -0.270 OA
ATOM     10  N   UNL     1      32.859 -12.415 -23.529  0.00  0.00    -0.272 N 
ATOM     11  C   UNL     1      32.272 -12.980 -22.311  0.00  0.00    +0.121 C 
ATOM     12  C   UNL     1      32.741 -11.021 -23.575  0.00  0.00    +0.249 C 
ATOM     13  C   UNL     1      31.773 -11.768 -21.602  0.00  0.00    +0.002 C 
ATOM     14  C   UNL     1      32.049 -10.620 -22.345  0.00  0.00    +0.051 C 
ATOM     15  C   UNL     1      31.121 -11.672 -20.387  0.00  0.00    -0.002 C 
ATOM     16  C   UNL     1      31.696  -9.354 -21.922  0.00  0.00    +0.004 C 
ATOM     17  C   UNL     1      30.752 -10.401 -19.935  0.00  0.00    -0.000 C 
ATOM     18  C   UNL     1      31.037  -9.252 -20.696  0.00  0.00    +0.000 C 
ENDBRANCH   8  10
ENDBRANCH   2   8
BRANCH   1  19
ATOM     19  C   UNL     1      34.668 -18.807 -23.778  0.00  0.00    -0.006 C 
BRANCH  19  21
ATOM     20  O   UNL     1      36.412 -18.499 -22.139  0.00  0.00    -0.294 OA
ATOM     21  C   UNL     1      35.320 -18.988 -22.419  0.00  0.00    +0.152 C 
BRANCH  21  23
ATOM     22  F   UNL     1      32.632 -21.992 -18.557  0.00  0.00    -0.204 F 
ATOM     23  C   UNL     1      34.601 -19.792 -21.387  0.00  0.00    +0.033 C 
ATOM     24  C   UNL     1      35.338 -20.593 -20.546  0.00  0.00    +0.005 C 
ATOM     25  C   UNL     1      33.230 -19.699 -21.316  0.00  0.00    +0.005 C 
ATOM     26  C   UNL     1      34.667 -21.344 -19.580  0.00  0.00    +0.030 C 
ATOM     27  C   UNL     1      32.559 -20.448 -20.352  0.00  0.00    +0.030 C 
ATOM     28  C   UNL     1      33.276 -21.271 -19.483  0.00  0.00    +0.140 C 
ENDBRANCH  21  23
ENDBRANCH  19  21
ENDBRANCH   1  19
TORSDOF 5
ENDMDL
MODEL 8
REMARK VINA RESULT:     -11.2      4.227     10.256
REMARK  Name = 9799284
REMARK  5 active torsions:
REMARK  status: ('A' for Active; 'I' for Inactive)
REMARK    1  A    between atoms: N_1  and  C_19
REMARK    2  A    between atoms: C_2  and  C_8
REMARK    3  A    between atoms: C_8  and  N_10
REMARK    4  A    between atoms: C_19  and  C_21
REMARK    5  A    between atoms: C_21  and  C_23
REMARK                            x       y       z     vdW  Elec       q    Type
REMARK                         _______ _______ _______ _____ _____    ______ ____
ROOT
ATOM      1  N   UNL     1      34.981 -19.920 -21.343  0.00  0.00    +0.392 N 
ATOM      2  C   UNL     1      33.887 -21.492 -19.124  0.00  0.00    +0.016 C 
ATOM      3  C   UNL     1      32.995 -20.792 -20.155  0.00  0.00    -0.021 C 
ATOM      4  C   UNL     1      35.260 -21.784 -19.740  0.00  0.00    -0.021 C 
ATOM      5  C   UNL     1      33.687 -19.564 -20.747  0.00  0.00    -0.077 C 
ATOM      6  C   UNL     1      35.877 -20.522 -20.346  0.00  0.00    -0.077 C 
ATOM      7  H   UNL     1      34.812 -20.613 -22.073  0.00  0.00    -0.079 HD
ENDROOT
BRANCH   2   8
ATOM      8  C   UNL     1      33.233 -22.773 -18.610  0.00  0.00    +0.094 C 
BRANCH   8  10
ATOM      9  O   UNL     1      31.586 -23.736 -16.271  0.00  0.00    -0.270 OA
ATOM     10  N   UNL     1      33.621 -23.040 -17.258  0.00  0.00    -0.272 N 
ATOM     11  C   UNL     1      35.002 -22.864 -16.798  0.00  0.00    +0.121 C 
ATOM     12  C   UNL     1      32.777 -23.488 -16.235  0.00  0.00    +0.249 C 
ATOM     13  C   UNL     1      34.916 -23.257 -15.363  0.00  0.00    +0.002 C 
ATOM     14  C   UNL     1      33.610 -23.623 -15.036  0.00  0.00    +0.051 C 
ATOM     15  C   UNL     1      35.912 -23.294 -14.406  0.00  0.00    -0.002 C 
ATOM     16  C   UNL     1      33.246 -24.032 -13.768  0.00  0.00    +0.004 C 
ATOM     17  C   UNL     1      35.570 -23.704 -13.113  0.00  0.00    -0.000 C 
ATOM     18  C   UNL     1      34.249 -24.070 -12.797  0.00  0.00    +0.000 C 
ENDBRANCH   8  10
ENDBRANCH   2   8
BRANCH   1  19
ATOM     19  C   UNL     1      35.607 -18.746 -21.951  0.00  0.00    -0.006 C 
BRANCH  19  21
ATOM     20  O   UNL     1      34.851 -19.376 -24.154  0.00  0.00    -0.294 OA
ATOM     21  C   UNL     1      34.976 -18.494 -23.308  0.00  0.00    +0.152 C 
BRANCH  21  23
ATOM     22  F   UNL     1      33.162 -13.345 -24.478  0.00  0.00    -0.204 F 
ATOM     23  C   UNL     1      34.490 -17.117 -23.621  0.00  0.00    +0.033 C 
ATOM     24  C   UNL     1      34.801 -16.096 -22.752  0.00  0.00    +0.005 C 
ATOM     25  C   UNL     1      33.752 -16.922 -24.765  0.00  0.00    +0.005 C 
ATOM     26  C   UNL     1      34.348 -14.809 -23.044  0.00  0.00    +0.030 C 
ATOM     27  C   UNL     1      33.299 -15.637 -25.058  0.00  0.00    +0.030 C 
ATOM     28  C   UNL     1      33.597 -14.580 -24.197  0.00  0.00    +0.140 C 
ENDBRANCH  21  23
ENDBRANCH  19  21
ENDBRANCH   1  19
TORSDOF 5
ENDMDL
MODEL 9
REMARK VINA RESULT:     -11.2      3.699      9.529
REMARK  Name = 9799284
REMARK  5 active torsions:
REMARK  status: ('A' for Active; 'I' for Inactive)
REMARK    1  A    between atoms: N_1  and  C_19
REMARK    2  A    between atoms: C_2  and  C_8
REMARK    3  A    between atoms: C_8  and  N_10
REMARK    4  A    between atoms: C_19  and  C_21
REMARK    5  A    between atoms: C_21  and  C_23
REMARK                            x       y       z     vdW  Elec       q    Type
REMARK                         _______ _______ _______ _____ _____    ______ ____
ROOT
ATOM      1  N   UNL     1      35.125 -20.934 -19.688  0.00  0.00    +0.392 N 
ATOM      2  C   UNL     1      34.343 -22.911 -17.670  0.00  0.00    +0.016 C 
ATOM      3  C   UNL     1      35.554 -21.988 -17.491  0.00  0.00    -0.021 C 
ATOM      4  C   UNL     1      33.332 -22.261 -18.620  0.00  0.00    -0.021 C 
ATOM      5  C   UNL     1      36.141 -21.574 -18.842  0.00  0.00    -0.077 C 
ATOM      6  C   UNL     1      33.993 -21.838 -19.933  0.00  0.00    -0.077 C 
ATOM      7  H   UNL     1      34.773 -20.115 -19.193  0.00  0.00    -0.079 HD
ENDROOT
BRANCH   2   8
ATOM      8  C   UNL     1      33.700 -23.240 -16.325  0.00  0.00    +0.094 C 
BRANCH   8  10
ATOM      9  O   UNL     1      34.977 -25.953 -15.967  0.00  0.00    -0.270 OA
ATOM     10  N   UNL     1      34.683 -23.679 -15.380  0.00  0.00    -0.272 N 
ATOM     11  C   UNL     1      35.247 -22.776 -14.372  0.00  0.00    +0.121 C 
ATOM     12  C   UNL     1      35.218 -24.969 -15.292  0.00  0.00    +0.249 C 
ATOM     13  C   UNL     1      36.200 -23.661 -13.645  0.00  0.00    +0.002 C 
ATOM     14  C   UNL     1      36.181 -24.947 -14.186  0.00  0.00    +0.051 C 
ATOM     15  C   UNL     1      37.029 -23.364 -12.580  0.00  0.00    -0.002 C 
ATOM     16  C   UNL     1      36.970 -25.972 -13.702  0.00  0.00    +0.004 C 
ATOM     17  C   UNL     1      37.839 -24.384 -12.070  0.00  0.00    -0.000 C 
ATOM     18  C   UNL     1      37.810 -25.677 -12.626  0.00  0.00    +0.000 C 
ENDBRANCH   8  10
ENDBRANCH   2   8
BRANCH   1  19
ATOM     19  C   UNL     1      35.714 -20.497 -20.954  0.00  0.00    -0.006 C 
BRANCH  19  21
ATOM     20  O   UNL     1      35.687 -18.205 -20.199  0.00  0.00    -0.294 OA
ATOM     21  C   UNL     1      35.496 -19.004 -21.113  0.00  0.00    +0.152 C 
BRANCH  21  23
ATOM     22  F   UNL     1      33.768 -17.086 -26.064  0.00  0.00    -0.204 F 
ATOM     23  C   UNL     1      35.033 -18.491 -22.437  0.00  0.00    +0.033 C 
ATOM     24  C   UNL     1      35.061 -17.134 -22.664  0.00  0.00    +0.005 C 
ATOM     25  C   UNL     1      34.598 -19.394 -23.378  0.00  0.00    +0.005 C 
ATOM     26  C   UNL     1      34.630 -16.654 -23.901  0.00  0.00    +0.030 C 
ATOM     27  C   UNL     1      34.167 -18.916 -24.615  0.00  0.00    +0.030 C 
ATOM     28  C   UNL     1      34.182 -17.546 -24.876  0.00  0.00    +0.140 C 
ENDBRANCH  21  23
ENDBRANCH  19  21
ENDBRANCH   1  19
TORSDOF 5
ENDMDL
