MODEL 1
REMARK VINA RESULT:     -12.7      0.000      0.000
REMARK  Name = 25023705
REMARK  6 active torsions:
REMARK  status: ('A' for Active; 'I' for Inactive)
REMARK    1  A    between atoms: C_1  and  C_8
REMARK    2  A    between atoms: C_1  and  C_20
REMARK    3  A    between atoms: C_20  and  N_22
REMARK    4  A    between atoms: C_23  and  C_25
REMARK    5  A    between atoms: C_30  and  O_31
REMARK    6  A    between atoms: O_31  and  C_32
REMARK                            x       y       z     vdW  Elec       q    Type
REMARK                         _______ _______ _______ _____ _____    ______ ____
ROOT
ATOM      1  C   UNL     1      32.329 -23.905 -15.115  0.00  0.00    +0.066 C 
ATOM      2  C   UNL     1      31.798 -22.460 -14.961  0.00  0.00    +0.009 C 
ATOM      3  C   UNL     1      31.245 -24.837 -14.521  0.00  0.00    +0.009 C 
ENDROOT
BRANCH   1   8
ATOM      4  N   UNL     1      34.747 -24.374 -15.179  0.00  0.00    -0.347 NA
ATOM      5  N   UNL     1      37.007 -24.838 -15.370  0.00  0.00    -0.266 NA
ATOM      6  N   UNL     1      38.484 -24.703 -13.472  0.00  0.00    -0.316 NA
ATOM      7  N   UNL     1      39.296 -25.314 -15.582  0.00  0.00    -0.283 N 
ATOM      8  C   UNL     1      33.695 -24.007 -14.408  0.00  0.00    +0.122 C 
ATOM      9  C   UNL     1      33.781 -23.730 -13.061  0.00  0.00    +0.026 C 
ATOM     10  C   UNL     1      35.030 -23.836 -12.474  0.00  0.00    +0.001 C 
ATOM     11  C   UNL     1      35.960 -24.478 -14.619  0.00  0.00    +0.137 C 
ATOM     12  C   UNL     1      36.131 -24.214 -13.255  0.00  0.00    +0.199 C 
ATOM     13  C   UNL     1      37.418 -24.343 -12.738  0.00  0.00    +0.187 C 
ATOM     14  C   UNL     1      38.210 -24.932 -14.765  0.00  0.00    +0.207 C 
ATOM     15  H   UNL     1      39.152 -25.496 -16.539  0.00  0.00    +0.156 HD
ATOM     16  H   UNL     1      40.198 -25.399 -15.194  0.00  0.00    +0.156 HD
ATOM     17  N   UNL     1      37.645 -24.086 -11.363  0.00  0.00    -0.334 N 
ATOM     18  H   UNL     1      38.551 -24.175 -10.989  0.00  0.00    +0.144 HD
ATOM     19  H   UNL     1      36.896 -23.819 -10.782  0.00  0.00    +0.144 HD
ENDBRANCH   1   8
BRANCH   1  20
ATOM     20  C   UNL     1      32.466 -24.212 -16.633  0.00  0.00    +0.096 C 
BRANCH  20  22
ATOM     21  O   UNL     1      33.417 -24.301 -19.340  0.00  0.00    -0.270 OA
ATOM     22  N   UNL     1      32.951 -23.101 -17.410  0.00  0.00    -0.300 N 
ATOM     23  C   UNL     1      33.393 -23.241 -18.720  0.00  0.00    +0.246 C 
ATOM     24  H   UNL     1      32.971 -22.207 -16.998  0.00  0.00    +0.150 HD
BRANCH  23  25
ATOM     25  C   UNL     1      33.888 -22.003 -19.376  0.00  0.00    +0.054 C 
ATOM     26  C   UNL     1      32.982 -21.081 -19.898  0.00  0.00    +0.008 C 
ATOM     27  C   UNL     1      35.260 -21.766 -19.470  0.00  0.00    +0.008 C 
ATOM     28  C   UNL     1      33.448 -19.919 -20.515  0.00  0.00    +0.038 C 
ATOM     29  C   UNL     1      35.725 -20.604 -20.087  0.00  0.00    +0.038 C 
ATOM     30  C   UNL     1      34.819 -19.682 -20.610  0.00  0.00    +0.145 C 
BRANCH  30  31
ATOM     31  O   UNL     1      35.273 -18.550 -21.213  0.00  0.00    -0.453 OA
BRANCH  31  32
ATOM     32  C   UNL     1      34.876 -18.313 -22.519  0.00  0.00    +0.145 C 
ATOM     33  C   UNL     1      34.669 -17.005 -22.958  0.00  0.00    +0.037 C 
ATOM     34  C   UNL     1      34.682 -19.382 -23.394  0.00  0.00    +0.037 C 
ATOM     35  C   UNL     1      34.269 -16.766 -24.273  0.00  0.00    +0.003 C 
ATOM     36  C   UNL     1      34.281 -19.142 -24.709  0.00  0.00    +0.003 C 
ATOM     37  C   UNL     1      34.074 -17.835 -25.148  0.00  0.00    +0.000 C 
ENDBRANCH  31  32
ENDBRANCH  30  31
ENDBRANCH  23  25
ENDBRANCH  20  22
ENDBRANCH   1  20
TORSDOF 6
ENDMDL
MODEL 2
REMARK VINA RESULT:     -12.6      4.695      8.643
REMARK  Name = 25023705
REMARK  6 active torsions:
REMARK  status: ('A' for Active; 'I' for Inactive)
REMARK    1  A    between atoms: C_1  and  C_8
REMARK    2  A    between atoms: C_1  and  C_20
REMARK    3  A    between atoms: C_20  and  N_22
REMARK    4  A    between atoms: C_23  and  C_25
REMARK    5  A    between atoms: C_30  and  O_31
REMARK    6  A    between atoms: O_31  and  C_32
REMARK                            x       y       z     vdW  Elec       q    Type
REMARK                         _______ _______ _______ _____ _____    ______ ____
ROOT
ATOM      1  C   UNL     1      34.892 -18.380 -22.385  0.00  0.00    +0.066 C 
ATOM      2  C   UNL     1      36.293 -18.735 -22.940  0.00  0.00    +0.009 C 
ATOM      3  C   UNL     1      34.995 -16.942 -21.821  0.00  0.00    +0.009 C 
ENDROOT
BRANCH   1   8
ATOM      4  N   UNL     1      35.475 -19.854 -20.500  0.00  0.00    -0.347 NA
ATOM      5  N   UNL     1      36.148 -21.192 -18.734  0.00  0.00    -0.266 NA
ATOM      6  N   UNL     1      34.611 -22.676 -17.623  0.00  0.00    -0.316 NA
ATOM      7  N   UNL     1      36.848 -22.541 -16.945  0.00  0.00    -0.283 N 
ATOM      8  C   UNL     1      34.494 -19.436 -21.336  0.00  0.00    +0.122 C 
ATOM      9  C   UNL     1      33.195 -19.896 -21.297  0.00  0.00    +0.026 C 
ATOM     10  C   UNL     1      32.891 -20.844 -20.336  0.00  0.00    +0.001 C 
ATOM     11  C   UNL     1      35.188 -20.771 -19.566  0.00  0.00    +0.137 C 
ATOM     12  C   UNL     1      33.892 -21.289 -19.461  0.00  0.00    +0.199 C 
ATOM     13  C   UNL     1      33.663 -22.240 -18.469  0.00  0.00    +0.187 C 
ATOM     14  C   UNL     1      35.815 -22.117 -17.809  0.00  0.00    +0.207 C 
ATOM     15  H   UNL     1      37.753 -22.164 -17.038  0.00  0.00    +0.156 HD
ATOM     16  H   UNL     1      36.664 -23.215 -16.251  0.00  0.00    +0.156 HD
ATOM     17  N   UNL     1      32.368 -22.794 -18.322  0.00  0.00    -0.334 N 
ATOM     18  H   UNL     1      32.197 -23.467 -17.624  0.00  0.00    +0.144 HD
ATOM     19  H   UNL     1      31.638 -22.507 -18.918  0.00  0.00    +0.144 HD
ENDBRANCH   1   8
BRANCH   1  20
ATOM     20  C   UNL     1      33.888 -18.373 -23.573  0.00  0.00    +0.096 C 
BRANCH  20  22
ATOM     21  O   UNL     1      34.223 -17.422 -26.260  0.00  0.00    -0.270 OA
ATOM     22  N   UNL     1      33.575 -17.056 -24.063  0.00  0.00    -0.300 N 
ATOM     23  C   UNL     1      33.772 -16.685 -25.387  0.00  0.00    +0.246 C 
ATOM     24  H   UNL     1      33.208 -16.392 -23.436  0.00  0.00    +0.150 HD
BRANCH  23  25
ATOM     25  C   UNL     1      33.426 -15.281 -25.729  0.00  0.00    +0.054 C 
ATOM     26  C   UNL     1      33.250 -14.910 -27.062  0.00  0.00    +0.008 C 
ATOM     27  C   UNL     1      33.277 -14.334 -24.715  0.00  0.00    +0.008 C 
ATOM     28  C   UNL     1      32.926 -13.592 -27.381  0.00  0.00    +0.038 C 
ATOM     29  C   UNL     1      32.952 -13.016 -25.035  0.00  0.00    +0.038 C 
ATOM     30  C   UNL     1      32.777 -12.645 -26.368  0.00  0.00    +0.145 C 
BRANCH  30  31
ATOM     31  O   UNL     1      32.462 -11.358 -26.680  0.00  0.00    -0.453 OA
BRANCH  31  32
ATOM     32  C   UNL     1      33.250 -10.354 -26.141  0.00  0.00    +0.145 C 
ATOM     33  C   UNL     1      34.636 -10.402 -26.286  0.00  0.00    +0.037 C 
ATOM     34  C   UNL     1      32.656  -9.296 -25.452  0.00  0.00    +0.037 C 
ATOM     35  C   UNL     1      35.430  -9.392 -25.743  0.00  0.00    +0.003 C 
ATOM     36  C   UNL     1      33.450  -8.286 -24.909  0.00  0.00    +0.003 C 
ATOM     37  C   UNL     1      34.836  -8.334 -25.054  0.00  0.00    +0.000 C 
ENDBRANCH  31  32
ENDBRANCH  30  31
ENDBRANCH  23  25
ENDBRANCH  20  22
ENDBRANCH   1  20
TORSDOF 6
ENDMDL
MODEL 3
REMARK VINA RESULT:     -12.4      5.814     12.215
REMARK  Name = 25023705
REMARK  6 active torsions:
REMARK  status: ('A' for Active; 'I' for Inactive)
REMARK    1  A    between atoms: C_1  and  C_8
REMARK    2  A    between atoms: C_1  and  C_20
REMARK    3  A    between atoms: C_20  and  N_22
REMARK    4  A    between atoms: C_23  and  C_25
REMARK    5  A    between atoms: C_30  and  O_31
REMARK    6  A    between atoms: O_31  and  C_32
REMARK                            x       y       z     vdW  Elec       q    Type
REMARK                         _______ _______ _______ _____ _____    ______ ____
ROOT
ATOM      1  C   UNL     1      33.556 -17.666 -24.924  0.00  0.00    +0.066 C 
ATOM      2  C   UNL     1      34.491 -18.387 -25.926  0.00  0.00    +0.009 C 
ATOM      3  C   UNL     1      32.310 -18.570 -24.758  0.00  0.00    +0.009 C 
ENDROOT
BRANCH   1   8
ATOM      4  N   UNL     1      33.551 -15.217 -24.662  0.00  0.00    -0.347 NA
ATOM      5  N   UNL     1      33.602 -12.931 -24.296  0.00  0.00    -0.266 NA
ATOM      6  N   UNL     1      32.778 -11.375 -25.939  0.00  0.00    -0.316 NA
ATOM      7  N   UNL     1      33.661 -10.617 -23.907  0.00  0.00    -0.283 N 
ATOM      8  C   UNL     1      33.240 -16.260 -25.469  0.00  0.00    +0.122 C 
ATOM      9  C   UNL     1      32.668 -16.130 -26.716  0.00  0.00    +0.026 C 
ATOM     10  C   UNL     1      32.403 -14.846 -27.159  0.00  0.00    +0.001 C 
ATOM     11  C   UNL     1      33.298 -13.970 -25.083  0.00  0.00    +0.137 C 
ATOM     12  C   UNL     1      32.719 -13.753 -26.338  0.00  0.00    +0.199 C 
ATOM     13  C   UNL     1      32.482 -12.432 -26.713  0.00  0.00    +0.187 C 
ATOM     14  C   UNL     1      33.329 -11.693 -24.759  0.00  0.00    +0.207 C 
ATOM     15  H   UNL     1      34.067 -10.793 -23.027  0.00  0.00    +0.156 HD
ATOM     16  H   UNL     1      33.484  -9.691 -24.192  0.00  0.00    +0.156 HD
ATOM     17  N   UNL     1      31.898 -12.160 -27.974  0.00  0.00    -0.334 N 
ATOM     18  H   UNL     1      31.727 -11.230 -28.247  0.00  0.00    +0.144 HD
ATOM     19  H   UNL     1      31.662 -12.901 -28.578  0.00  0.00    +0.144 HD
ENDBRANCH   1   8
BRANCH   1  20
ATOM     20  C   UNL     1      34.289 -17.579 -23.555  0.00  0.00    +0.096 C 
BRANCH  20  22
ATOM     21  O   UNL     1      35.167 -17.879 -20.839  0.00  0.00    -0.270 OA
ATOM     22  N   UNL     1      34.052 -18.709 -22.695  0.00  0.00    -0.300 N 
ATOM     23  C   UNL     1      34.519 -18.765 -21.388  0.00  0.00    +0.246 C 
ATOM     24  H   UNL     1      33.540 -19.473 -23.048  0.00  0.00    +0.150 HD
BRANCH  23  25
ATOM     25  C   UNL     1      34.214 -20.013 -20.641  0.00  0.00    +0.054 C 
ATOM     26  C   UNL     1      35.252 -20.841 -20.214  0.00  0.00    +0.008 C 
ATOM     27  C   UNL     1      32.889 -20.355 -20.367  0.00  0.00    +0.008 C 
ATOM     28  C   UNL     1      34.965 -22.012 -19.513  0.00  0.00    +0.038 C 
ATOM     29  C   UNL     1      32.603 -21.526 -19.666  0.00  0.00    +0.038 C 
ATOM     30  C   UNL     1      33.641 -22.355 -19.240  0.00  0.00    +0.145 C 
BRANCH  30  31
ATOM     31  O   UNL     1      33.361 -23.499 -18.558  0.00  0.00    -0.453 OA
BRANCH  31  32
ATOM     32  C   UNL     1      32.943 -23.379 -17.243  0.00  0.00    +0.145 C 
ATOM     33  C   UNL     1      33.878 -23.421 -16.209  0.00  0.00    +0.037 C 
ATOM     34  C   UNL     1      31.588 -23.218 -16.953  0.00  0.00    +0.037 C 
ATOM     35  C   UNL     1      33.459 -23.302 -14.884  0.00  0.00    +0.003 C 
ATOM     36  C   UNL     1      31.169 -23.099 -15.627  0.00  0.00    +0.003 C 
ATOM     37  C   UNL     1      32.103 -23.141 -14.593  0.00  0.00    +0.000 C 
ENDBRANCH  31  32
ENDBRANCH  30  31
ENDBRANCH  23  25
ENDBRANCH  20  22
ENDBRANCH   1  20
TORSDOF 6
ENDMDL
MODEL 4
REMARK VINA RESULT:     -12.2      2.439      4.778
REMARK  Name = 25023705
REMARK  6 active torsions:
REMARK  status: ('A' for Active; 'I' for Inactive)
REMARK    1  A    between atoms: C_1  and  C_8
REMARK    2  A    between atoms: C_1  and  C_20
REMARK    3  A    between atoms: C_20  and  N_22
REMARK    4  A    between atoms: C_23  and  C_25
REMARK    5  A    between atoms: C_30  and  O_31
REMARK    6  A    between atoms: O_31  and  C_32
REMARK                            x       y       z     vdW  Elec       q    Type
REMARK                         _______ _______ _______ _____ _____    ______ ____
ROOT
ATOM      1  C   UNL     1      33.818 -22.366 -18.980  0.00  0.00    +0.066 C 
ATOM      2  C   UNL     1      32.542 -21.546 -19.292  0.00  0.00    +0.009 C 
ATOM      3  C   UNL     1      33.826 -23.558 -19.968  0.00  0.00    +0.009 C 
ENDROOT
BRANCH   1   8
ATOM      4  N   UNL     1      32.609 -23.270 -17.033  0.00  0.00    -0.347 NA
ATOM      5  N   UNL     1      31.365 -24.133 -15.281  0.00  0.00    -0.266 NA
ATOM      6  N   UNL     1      32.320 -24.443 -13.092  0.00  0.00    -0.316 NA
ATOM      7  N   UNL     1      30.088 -25.009 -13.517  0.00  0.00    -0.283 N 
ATOM      8  C   UNL     1      33.785 -22.784 -17.497  0.00  0.00    +0.122 C 
ATOM      9  C   UNL     1      34.923 -22.647 -16.731  0.00  0.00    +0.026 C 
ATOM     10  C   UNL     1      34.841 -23.037 -15.405  0.00  0.00    +0.001 C 
ATOM     11  C   UNL     1      32.521 -23.650 -15.751  0.00  0.00    +0.137 C 
ATOM     12  C   UNL     1      33.632 -23.543 -14.907  0.00  0.00    +0.199 C 
ATOM     13  C   UNL     1      33.471 -23.956 -13.586  0.00  0.00    +0.187 C 
ATOM     14  C   UNL     1      31.321 -24.503 -13.984  0.00  0.00    +0.207 C 
ATOM     15  H   UNL     1      29.320 -25.074 -14.129  0.00  0.00    +0.156 HD
ATOM     16  H   UNL     1      29.997 -25.294 -12.578  0.00  0.00    +0.156 HD
ATOM     17  N   UNL     1      34.566 -23.868 -12.691  0.00  0.00    -0.334 N 
ATOM     18  H   UNL     1      34.461 -24.157 -11.755  0.00  0.00    +0.144 HD
ATOM     19  H   UNL     1      35.431 -23.517 -13.004  0.00  0.00    +0.144 HD
ENDBRANCH   1   8
BRANCH   1  20
ATOM     20  C   UNL     1      35.054 -21.470 -19.276  0.00  0.00    +0.096 C 
BRANCH  20  22
ATOM     21  O   UNL     1      36.866 -19.402 -20.099  0.00  0.00    -0.270 OA
ATOM     22  N   UNL     1      34.829 -20.490 -20.307  0.00  0.00    -0.300 N 
ATOM     23  C   UNL     1      35.769 -19.523 -20.637  0.00  0.00    +0.246 C 
ATOM     24  H   UNL     1      33.975 -20.506 -20.797  0.00  0.00    +0.150 HD
BRANCH  23  25
ATOM     25  C   UNL     1      35.374 -18.567 -21.705  0.00  0.00    +0.054 C 
ATOM     26  C   UNL     1      35.368 -18.975 -23.038  0.00  0.00    +0.008 C 
ATOM     27  C   UNL     1      35.010 -17.262 -21.371  0.00  0.00    +0.008 C 
ATOM     28  C   UNL     1      34.999 -18.078 -24.039  0.00  0.00    +0.038 C 
ATOM     29  C   UNL     1      34.640 -16.365 -22.373  0.00  0.00    +0.038 C 
ATOM     30  C   UNL     1      34.635 -16.773 -23.707  0.00  0.00    +0.145 C 
BRANCH  30  31
ATOM     31  O   UNL     1      34.276 -15.896 -24.685  0.00  0.00    -0.453 OA
BRANCH  31  32
ATOM     32  C   UNL     1      33.287 -16.289 -25.570  0.00  0.00    +0.145 C 
ATOM     33  C   UNL     1      32.635 -17.509 -25.390  0.00  0.00    +0.037 C 
ATOM     34  C   UNL     1      32.944 -15.466 -26.643  0.00  0.00    +0.037 C 
ATOM     35  C   UNL     1      31.639 -17.906 -26.283  0.00  0.00    +0.003 C 
ATOM     36  C   UNL     1      31.948 -15.864 -27.536  0.00  0.00    +0.003 C 
ATOM     37  C   UNL     1      31.296 -17.083 -27.356  0.00  0.00    +0.000 C 
ENDBRANCH  31  32
ENDBRANCH  30  31
ENDBRANCH  23  25
ENDBRANCH  20  22
ENDBRANCH   1  20
TORSDOF 6
ENDMDL
MODEL 5
REMARK VINA RESULT:     -12.0      2.631      5.215
REMARK  Name = 25023705
REMARK  6 active torsions:
REMARK  status: ('A' for Active; 'I' for Inactive)
REMARK    1  A    between atoms: C_1  and  C_8
REMARK    2  A    between atoms: C_1  and  C_20
REMARK    3  A    between atoms: C_20  and  N_22
REMARK    4  A    between atoms: C_23  and  C_25
REMARK    5  A    between atoms: C_30  and  O_31
REMARK    6  A    between atoms: O_31  and  C_32
REMARK                            x       y       z     vdW  Elec       q    Type
REMARK                         _______ _______ _______ _____ _____    ______ ____
ROOT
ATOM      1  C   UNL     1      34.731 -21.582 -19.560  0.00  0.00    +0.066 C 
ATOM      2  C   UNL     1      33.218 -21.267 -19.648  0.00  0.00    +0.009 C 
ATOM      3  C   UNL     1      35.027 -22.628 -20.662  0.00  0.00    +0.009 C 
ENDROOT
BRANCH   1   8
ATOM      4  N   UNL     1      34.065 -22.737 -17.489  0.00  0.00    -0.347 NA
ATOM      5  N   UNL     1      33.320 -23.847 -15.598  0.00  0.00    -0.266 NA
ATOM      6  N   UNL     1      34.729 -24.123 -13.664  0.00  0.00    -0.316 NA
ATOM      7  N   UNL     1      32.548 -24.975 -13.690  0.00  0.00    -0.283 N 
ATOM      8  C   UNL     1      35.052 -22.070 -18.134  0.00  0.00    +0.122 C 
ATOM      9  C   UNL     1      36.294 -21.812 -17.594  0.00  0.00    +0.026 C 
ATOM     10  C   UNL     1      36.531 -22.271 -16.310  0.00  0.00    +0.001 C 
ATOM     11  C   UNL     1      34.287 -23.186 -16.246  0.00  0.00    +0.137 C 
ATOM     12  C   UNL     1      35.522 -22.964 -15.626  0.00  0.00    +0.199 C 
ATOM     13  C   UNL     1      35.685 -23.457 -14.333  0.00  0.00    +0.187 C 
ATOM     14  C   UNL     1      33.587 -24.280 -14.348  0.00  0.00    +0.207 C 
ATOM     15  H   UNL     1      31.687 -25.118 -14.144  0.00  0.00    +0.156 HD
ATOM     16  H   UNL     1      32.686 -25.314 -12.775  0.00  0.00    +0.156 HD
ATOM     17  N   UNL     1      36.918 -23.259 -13.663  0.00  0.00    -0.334 N 
ATOM     18  H   UNL     1      37.041 -23.604 -12.749  0.00  0.00    +0.144 HD
ATOM     19  H   UNL     1      37.650 -22.777 -14.111  0.00  0.00    +0.144 HD
ENDBRANCH   1   8
BRANCH   1  20
ATOM     20  C   UNL     1      35.517 -20.281 -19.891  0.00  0.00    +0.096 C 
BRANCH  20  22
ATOM     21  O   UNL     1      34.934 -17.557 -20.584  0.00  0.00    -0.270 OA
ATOM     22  N   UNL     1      35.261 -19.766 -21.211  0.00  0.00    -0.300 N 
ATOM     23  C   UNL     1      34.986 -18.426 -21.450  0.00  0.00    +0.246 C 
ATOM     24  H   UNL     1      35.280 -20.388 -21.974  0.00  0.00    +0.150 HD
BRANCH  23  25
ATOM     25  C   UNL     1      34.717 -18.058 -22.865  0.00  0.00    +0.054 C 
ATOM     26  C   UNL     1      34.827 -16.730 -23.273  0.00  0.00    +0.008 C 
ATOM     27  C   UNL     1      34.353 -19.044 -23.783  0.00  0.00    +0.008 C 
ATOM     28  C   UNL     1      34.573 -16.386 -24.601  0.00  0.00    +0.038 C 
ATOM     29  C   UNL     1      34.100 -18.700 -25.111  0.00  0.00    +0.038 C 
ATOM     30  C   UNL     1      34.209 -17.371 -25.519  0.00  0.00    +0.145 C 
BRANCH  30  31
ATOM     31  O   UNL     1      33.960 -17.035 -26.814  0.00  0.00    -0.453 OA
BRANCH  31  32
ATOM     32  C   UNL     1      32.833 -16.273 -27.076  0.00  0.00    +0.145 C 
ATOM     33  C   UNL     1      31.581 -16.883 -27.149  0.00  0.00    +0.037 C 
ATOM     34  C   UNL     1      32.951 -14.896 -27.269  0.00  0.00    +0.037 C 
ATOM     35  C   UNL     1      30.446 -16.117 -27.414  0.00  0.00    +0.003 C 
ATOM     36  C   UNL     1      31.816 -14.130 -27.534  0.00  0.00    +0.003 C 
ATOM     37  C   UNL     1      30.564 -14.740 -27.607  0.00  0.00    +0.000 C 
ENDBRANCH  31  32
ENDBRANCH  30  31
ENDBRANCH  23  25
ENDBRANCH  20  22
ENDBRANCH   1  20
TORSDOF 6
ENDMDL
MODEL 6
REMARK VINA RESULT:     -11.9      5.004     11.350
REMARK  Name = 25023705
REMARK  6 active torsions:
REMARK  status: ('A' for Active; 'I' for Inactive)
REMARK    1  A    between atoms: C_1  and  C_8
REMARK    2  A    between atoms: C_1  and  C_20
REMARK    3  A    between atoms: C_20  and  N_22
REMARK    4  A    between atoms: C_23  and  C_25
REMARK    5  A    between atoms: C_30  and  O_31
REMARK    6  A    between atoms: O_31  and  C_32
REMARK                            x       y       z     vdW  Elec       q    Type
REMARK                         _______ _______ _______ _____ _____    ______ ____
ROOT
ATOM      1  C   UNL     1      35.221 -18.397 -21.825  0.00  0.00    +0.066 C 
ATOM      2  C   UNL     1      35.093 -17.591 -20.510  0.00  0.00    +0.009 C 
ATOM      3  C   UNL     1      36.724 -18.732 -21.990  0.00  0.00    +0.009 C 
ENDROOT
BRANCH   1   8
ATOM      4  N   UNL     1      34.571 -16.218 -22.774  0.00  0.00    -0.347 NA
ATOM      5  N   UNL     1      34.002 -14.113 -23.553  0.00  0.00    -0.266 NA
ATOM      6  N   UNL     1      33.043 -13.797 -25.739  0.00  0.00    -0.316 NA
ATOM      7  N   UNL     1      33.432 -11.971 -24.325  0.00  0.00    -0.283 N 
ATOM      8  C   UNL     1      34.639 -17.556 -22.978  0.00  0.00    +0.122 C 
ATOM      9  C   UNL     1      34.225 -18.185 -24.132  0.00  0.00    +0.026 C 
ATOM     10  C   UNL     1      33.709 -17.385 -25.137  0.00  0.00    +0.001 C 
ATOM     11  C   UNL     1      34.074 -15.436 -23.742  0.00  0.00    +0.137 C 
ATOM     12  C   UNL     1      33.631 -15.998 -24.944  0.00  0.00    +0.199 C 
ATOM     13  C   UNL     1      33.125 -15.128 -25.907  0.00  0.00    +0.187 C 
ATOM     14  C   UNL     1      33.495 -13.363 -24.553  0.00  0.00    +0.207 C 
ATOM     15  H   UNL     1      33.749 -11.598 -23.471  0.00  0.00    +0.156 HD
ATOM     16  H   UNL     1      33.070 -11.374 -25.021  0.00  0.00    +0.156 HD
ATOM     17  N   UNL     1      32.664 -15.647 -27.142  0.00  0.00    -0.334 N 
ATOM     18  H   UNL     1      32.305 -15.039 -27.828  0.00  0.00    +0.144 HD
ATOM     19  H   UNL     1      32.702 -16.616 -27.314  0.00  0.00    +0.144 HD
ENDBRANCH   1   8
BRANCH   1  20
ATOM     20  C   UNL     1      34.434 -19.727 -21.657  0.00  0.00    +0.096 C 
BRANCH  20  22
ATOM     21  O   UNL     1      36.229 -21.798 -20.802  0.00  0.00    -0.270 OA
ATOM     22  N   UNL     1      34.525 -20.294 -20.337  0.00  0.00    -0.300 N 
ATOM     23  C   UNL     1      35.429 -21.298 -20.015  0.00  0.00    +0.246 C 
ATOM     24  H   UNL     1      33.922 -19.958 -19.635  0.00  0.00    +0.150 HD
BRANCH  23  25
ATOM     25  C   UNL     1      35.379 -21.796 -18.616  0.00  0.00    +0.054 C 
ATOM     26  C   UNL     1      36.464 -21.594 -17.764  0.00  0.00    +0.008 C 
ATOM     27  C   UNL     1      34.245 -22.467 -18.155  0.00  0.00    +0.008 C 
ATOM     28  C   UNL     1      36.417 -22.062 -16.451  0.00  0.00    +0.038 C 
ATOM     29  C   UNL     1      34.198 -22.935 -16.842  0.00  0.00    +0.038 C 
ATOM     30  C   UNL     1      35.284 -22.733 -15.991  0.00  0.00    +0.145 C 
BRANCH  30  31
ATOM     31  O   UNL     1      35.239 -23.192 -14.710  0.00  0.00    -0.453 OA
BRANCH  31  32
ATOM     32  C   UNL     1      36.228 -24.073 -14.307  0.00  0.00    +0.145 C 
ATOM     33  C   UNL     1      36.403 -25.281 -14.982  0.00  0.00    +0.037 C 
ATOM     34  C   UNL     1      37.047 -23.754 -13.224  0.00  0.00    +0.037 C 
ATOM     35  C   UNL     1      37.398 -26.170 -14.576  0.00  0.00    +0.003 C 
ATOM     36  C   UNL     1      38.043 -24.643 -12.817  0.00  0.00    +0.003 C 
ATOM     37  C   UNL     1      38.218 -25.850 -13.493  0.00  0.00    +0.000 C 
ENDBRANCH  31  32
ENDBRANCH  30  31
ENDBRANCH  23  25
ENDBRANCH  20  22
ENDBRANCH   1  20
TORSDOF 6
ENDMDL
MODEL 7
REMARK VINA RESULT:     -11.9      2.080      4.251
REMARK  Name = 25023705
REMARK  6 active torsions:
REMARK  status: ('A' for Active; 'I' for Inactive)
REMARK    1  A    between atoms: C_1  and  C_8
REMARK    2  A    between atoms: C_1  and  C_20
REMARK    3  A    between atoms: C_20  and  N_22
REMARK    4  A    between atoms: C_23  and  C_25
REMARK    5  A    between atoms: C_30  and  O_31
REMARK    6  A    between atoms: O_31  and  C_32
REMARK                            x       y       z     vdW  Elec       q    Type
REMARK                         _______ _______ _______ _____ _____    ______ ____
ROOT
ATOM      1  C   UNL     1      33.813 -22.279 -19.070  0.00  0.00    +0.066 C 
ATOM      2  C   UNL     1      32.506 -21.498 -19.349  0.00  0.00    +0.009 C 
ATOM      3  C   UNL     1      33.893 -23.396 -20.139  0.00  0.00    +0.009 C 
ENDROOT
BRANCH   1   8
ATOM      4  N   UNL     1      34.954 -22.822 -16.955  0.00  0.00    -0.347 NA
ATOM      5  N   UNL     1      36.141 -23.291 -15.023  0.00  0.00    -0.266 NA
ATOM      6  N   UNL     1      35.059 -24.191 -13.069  0.00  0.00    -0.316 NA
ATOM      7  N   UNL     1      37.360 -23.760 -13.073  0.00  0.00    -0.283 N 
ATOM      8  C   UNL     1      33.774 -22.803 -17.621  0.00  0.00    +0.122 C 
ATOM      9  C   UNL     1      32.575 -23.218 -17.084  0.00  0.00    +0.026 C 
ATOM     10  C   UNL     1      32.595 -23.680 -15.779  0.00  0.00    +0.001 C 
ATOM     11  C   UNL     1      34.982 -23.268 -15.692  0.00  0.00    +0.137 C 
ATOM     12  C   UNL     1      33.806 -23.707 -15.074  0.00  0.00    +0.199 C 
ATOM     13  C   UNL     1      33.906 -24.158 -13.759  0.00  0.00    +0.187 C 
ATOM     14  C   UNL     1      36.123 -23.748 -13.753  0.00  0.00    +0.207 C 
ATOM     15  H   UNL     1      38.175 -23.447 -13.528  0.00  0.00    +0.156 HD
ATOM     16  H   UNL     1      37.408 -24.084 -12.144  0.00  0.00    +0.156 HD
ATOM     17  N   UNL     1      32.744 -24.614 -13.089  0.00  0.00    -0.334 N 
ATOM     18  H   UNL     1      32.806 -24.934 -12.160  0.00  0.00    +0.144 HD
ATOM     19  H   UNL     1      31.876 -24.610 -13.551  0.00  0.00    +0.144 HD
ENDBRANCH   1   8
BRANCH   1  20
ATOM     20  C   UNL     1      35.011 -21.310 -19.277  0.00  0.00    +0.096 C 
BRANCH  20  22
ATOM     21  O   UNL     1      36.900 -19.361 -20.212  0.00  0.00    -0.270 OA
ATOM     22  N   UNL     1      34.795 -20.329 -20.310  0.00  0.00    -0.300 N 
ATOM     23  C   UNL     1      35.773 -19.423 -20.697  0.00  0.00    +0.246 C 
ATOM     24  H   UNL     1      33.919 -20.301 -20.759  0.00  0.00    +0.150 HD
BRANCH  23  25
ATOM     25  C   UNL     1      35.384 -18.458 -21.758  0.00  0.00    +0.054 C 
ATOM     26  C   UNL     1      35.010 -17.159 -21.416  0.00  0.00    +0.008 C 
ATOM     27  C   UNL     1      35.394 -18.854 -23.096  0.00  0.00    +0.008 C 
ATOM     28  C   UNL     1      34.644 -16.255 -22.413  0.00  0.00    +0.038 C 
ATOM     29  C   UNL     1      35.028 -17.948 -24.092  0.00  0.00    +0.038 C 
ATOM     30  C   UNL     1      34.652 -16.649 -23.750  0.00  0.00    +0.145 C 
BRANCH  30  31
ATOM     31  O   UNL     1      34.293 -15.767 -24.723  0.00  0.00    -0.453 OA
BRANCH  31  32
ATOM     32  C   UNL     1      33.312 -16.160 -25.618  0.00  0.00    +0.145 C 
ATOM     33  C   UNL     1      32.621 -17.354 -25.414  0.00  0.00    +0.037 C 
ATOM     34  C   UNL     1      33.018 -15.364 -26.725  0.00  0.00    +0.037 C 
ATOM     35  C   UNL     1      31.633 -17.751 -26.316  0.00  0.00    +0.003 C 
ATOM     36  C   UNL     1      32.031 -15.761 -27.627  0.00  0.00    +0.003 C 
ATOM     37  C   UNL     1      31.339 -16.954 -27.423  0.00  0.00    +0.000 C 
ENDBRANCH  31  32
ENDBRANCH  30  31
ENDBRANCH  23  25
ENDBRANCH  20  22
ENDBRANCH   1  20
TORSDOF 6
ENDMDL
MODEL 8
REMARK VINA RESULT:     -11.6      7.808     13.167
REMARK  Name = 25023705
REMARK  6 active torsions:
REMARK  status: ('A' for Active; 'I' for Inactive)
REMARK    1  A    between atoms: C_1  and  C_8
REMARK    2  A    between atoms: C_1  and  C_20
REMARK    3  A    between atoms: C_20  and  N_22
REMARK    4  A    between atoms: C_23  and  C_25
REMARK    5  A    between atoms: C_30  and  O_31
REMARK    6  A    between atoms: O_31  and  C_32
REMARK                            x       y       z     vdW  Elec       q    Type
REMARK                         _______ _______ _______ _____ _____    ______ ____
ROOT
ATOM      1  C   UNL     1      33.080 -11.147 -24.920  0.00  0.00    +0.066 C 
ATOM      2  C   UNL     1      34.625 -11.231 -24.901  0.00  0.00    +0.009 C 
ATOM      3  C   UNL     1      32.709 -10.151 -26.045  0.00  0.00    +0.009 C 
ENDROOT
BRANCH   1   8
ATOM      4  N   UNL     1      32.782  -9.423 -23.187  0.00  0.00    -0.347 NA
ATOM      5  N   UNL     1      32.559  -7.714 -21.640  0.00  0.00    -0.266 NA
ATOM      6  N   UNL     1      31.543  -8.089 -19.489  0.00  0.00    -0.316 NA
ATOM      7  N   UNL     1      32.342  -5.970 -20.084  0.00  0.00    -0.283 N 
ATOM      8  C   UNL     1      32.590 -10.721 -23.523  0.00  0.00    +0.122 C 
ATOM      9  C   UNL     1      31.998 -11.655 -22.700  0.00  0.00    +0.026 C 
ATOM     10  C   UNL     1      31.576 -11.222 -21.455  0.00  0.00    +0.001 C 
ATOM     11  C   UNL     1      32.376  -8.995 -21.983  0.00  0.00    +0.137 C 
ATOM     12  C   UNL     1      31.765  -9.881 -21.089  0.00  0.00    +0.199 C 
ATOM     13  C   UNL     1      31.369  -9.370 -19.855  0.00  0.00    +0.187 C 
ATOM     14  C   UNL     1      32.136  -7.326 -20.418  0.00  0.00    +0.207 C 
ATOM     15  H   UNL     1      32.774  -5.365 -20.729  0.00  0.00    +0.156 HD
ATOM     16  H   UNL     1      32.054  -5.631 -19.206  0.00  0.00    +0.156 HD
ATOM     17  N   UNL     1      30.745 -10.227 -18.915  0.00  0.00    -0.334 N 
ATOM     18  H   UNL     1      30.462  -9.874 -18.040  0.00  0.00    +0.144 HD
ATOM     19  H   UNL     1      30.596 -11.175 -19.135  0.00  0.00    +0.144 HD
ENDBRANCH   1   8
BRANCH   1  20
ATOM     20  C   UNL     1      32.523 -12.549 -25.299  0.00  0.00    +0.096 C 
BRANCH  20  22
ATOM     21  O   UNL     1      33.138 -15.158 -26.327  0.00  0.00    -0.270 OA
ATOM     22  N   UNL     1      33.137 -13.634 -24.578  0.00  0.00    -0.300 N 
ATOM     23  C   UNL     1      33.397 -14.867 -25.162  0.00  0.00    +0.246 C 
ATOM     24  H   UNL     1      33.382 -13.496 -23.634  0.00  0.00    +0.150 HD
BRANCH  23  25
ATOM     25  C   UNL     1      34.010 -15.891 -24.277  0.00  0.00    +0.054 C 
ATOM     26  C   UNL     1      34.233 -17.182 -24.753  0.00  0.00    +0.008 C 
ATOM     27  C   UNL     1      34.362 -15.558 -22.967  0.00  0.00    +0.008 C 
ATOM     28  C   UNL     1      34.808 -18.142 -23.921  0.00  0.00    +0.038 C 
ATOM     29  C   UNL     1      34.936 -16.519 -22.135  0.00  0.00    +0.038 C 
ATOM     30  C   UNL     1      35.159 -17.811 -22.612  0.00  0.00    +0.145 C 
BRANCH  30  31
ATOM     31  O   UNL     1      35.717 -18.749 -21.799  0.00  0.00    -0.453 OA
BRANCH  31  32
ATOM     32  C   UNL     1      34.864 -19.599 -21.115  0.00  0.00    +0.145 C 
ATOM     33  C   UNL     1      33.483 -19.433 -21.221  0.00  0.00    +0.037 C 
ATOM     34  C   UNL     1      35.385 -20.619 -20.318  0.00  0.00    +0.037 C 
ATOM     35  C   UNL     1      32.623 -20.288 -20.532  0.00  0.00    +0.003 C 
ATOM     36  C   UNL     1      34.525 -21.473 -19.629  0.00  0.00    +0.003 C 
ATOM     37  C   UNL     1      33.144 -21.308 -19.735  0.00  0.00    +0.000 C 
ENDBRANCH  31  32
ENDBRANCH  30  31
ENDBRANCH  23  25
ENDBRANCH  20  22
ENDBRANCH   1  20
TORSDOF 6
ENDMDL
MODEL 9
REMARK VINA RESULT:     -11.6      4.757     11.194
REMARK  Name = 25023705
REMARK  6 active torsions:
REMARK  status: ('A' for Active; 'I' for Inactive)
REMARK    1  A    between atoms: C_1  and  C_8
REMARK    2  A    between atoms: C_1  and  C_20
REMARK    3  A    between atoms: C_20  and  N_22
REMARK    4  A    between atoms: C_23  and  C_25
REMARK    5  A    between atoms: C_30  and  O_31
REMARK    6  A    between atoms: O_31  and  C_32
REMARK                            x       y       z     vdW  Elec       q    Type
REMARK                         _______ _______ _______ _____ _____    ______ ____
ROOT
ATOM      1  C   UNL     1      35.206 -18.367 -21.808  0.00  0.00    +0.066 C 
ATOM      2  C   UNL     1      35.184 -17.604 -20.462  0.00  0.00    +0.009 C 
ATOM      3  C   UNL     1      36.678 -18.777 -22.056  0.00  0.00    +0.009 C 
ENDROOT
BRANCH   1   8
ATOM      4  N   UNL     1      33.895 -18.065 -23.872  0.00  0.00    -0.347 NA
ATOM      5  N   UNL     1      32.642 -17.912 -25.814  0.00  0.00    -0.266 NA
ATOM      6  N   UNL     1      32.243 -15.795 -26.890  0.00  0.00    -0.316 NA
ATOM      7  N   UNL     1      31.370 -17.776 -27.781  0.00  0.00    -0.283 N 
ATOM      8  C   UNL     1      34.619 -17.455 -22.903  0.00  0.00    +0.122 C 
ATOM      9  C   UNL     1      34.851 -16.097 -22.847  0.00  0.00    +0.026 C 
ATOM     10  C   UNL     1      34.302 -15.322 -23.854  0.00  0.00    +0.001 C 
ATOM     11  C   UNL     1      33.360 -17.321 -24.850  0.00  0.00    +0.137 C 
ATOM     12  C   UNL     1      33.550 -15.935 -24.866  0.00  0.00    +0.199 C 
ATOM     13  C   UNL     1      32.967 -15.223 -25.912  0.00  0.00    +0.187 C 
ATOM     14  C   UNL     1      32.122 -17.126 -26.779  0.00  0.00    +0.207 C 
ATOM     15  H   UNL     1      31.250 -18.753 -27.750  0.00  0.00    +0.156 HD
ATOM     16  H   UNL     1      30.967 -17.253 -28.512  0.00  0.00    +0.156 HD
ATOM     17  N   UNL     1      33.129 -13.817 -25.973  0.00  0.00    -0.334 N 
ATOM     18  H   UNL     1      32.720 -13.307 -26.709  0.00  0.00    +0.144 HD
ATOM     19  H   UNL     1      33.651 -13.351 -25.281  0.00  0.00    +0.144 HD
ENDBRANCH   1   8
BRANCH   1  20
ATOM     20  C   UNL     1      34.355 -19.659 -21.648  0.00  0.00    +0.096 C 
BRANCH  20  22
ATOM     21  O   UNL     1      36.085 -21.808 -20.856  0.00  0.00    -0.270 OA
ATOM     22  N   UNL     1      34.442 -20.255 -20.340  0.00  0.00    -0.300 N 
ATOM     23  C   UNL     1      35.314 -21.296 -20.049  0.00  0.00    +0.246 C 
ATOM     24  H   UNL     1      33.861 -19.911 -19.623  0.00  0.00    +0.150 HD
BRANCH  23  25
ATOM     25  C   UNL     1      35.264 -21.819 -18.659  0.00  0.00    +0.054 C 
ATOM     26  C   UNL     1      34.119 -22.468 -18.199  0.00  0.00    +0.008 C 
ATOM     27  C   UNL     1      36.363 -21.659 -17.815  0.00  0.00    +0.008 C 
ATOM     28  C   UNL     1      34.072 -22.957 -16.894  0.00  0.00    +0.038 C 
ATOM     29  C   UNL     1      36.316 -22.149 -16.509  0.00  0.00    +0.038 C 
ATOM     30  C   UNL     1      35.171 -22.797 -16.049  0.00  0.00    +0.145 C 
BRANCH  30  31
ATOM     31  O   UNL     1      35.124 -23.273 -14.775  0.00  0.00    -0.453 OA
BRANCH  31  32
ATOM     32  C   UNL     1      36.136 -24.127 -14.369  0.00  0.00    +0.145 C 
ATOM     33  C   UNL     1      36.955 -23.778 -13.296  0.00  0.00    +0.037 C 
ATOM     34  C   UNL     1      36.337 -25.337 -15.035  0.00  0.00    +0.037 C 
ATOM     35  C   UNL     1      37.975 -24.637 -12.888  0.00  0.00    +0.003 C 
ATOM     36  C   UNL     1      37.357 -26.196 -14.627  0.00  0.00    +0.003 C 
ATOM     37  C   UNL     1      38.176 -25.846 -13.554  0.00  0.00    +0.000 C 
ENDBRANCH  31  32
ENDBRANCH  30  31
ENDBRANCH  23  25
ENDBRANCH  20  22
ENDBRANCH   1  20
TORSDOF 6
ENDMDL
