MODEL 1
REMARK VINA RESULT:     -11.5      0.000      0.000
REMARK  Name = 11659487
REMARK  5 active torsions:
REMARK  status: ('A' for Active; 'I' for Inactive)
REMARK    1  A    between atoms: C_1  and  C_15
REMARK    2  A    between atoms: C_2  and  C_7
REMARK    3  A    between atoms: C_10  and  O_13
REMARK    4  A    between atoms: C_15  and  C_16
REMARK    5  A    between atoms: C_16  and  C_18
REMARK                            x       y       z     vdW  Elec       q    Type
REMARK                         _______ _______ _______ _____ _____    ______ ____
ROOT
ATOM      1  C   UNL     1      33.907 -21.342 -19.514  0.00  0.00    -0.022 C 
ATOM      2  C   UNL     1      34.840 -19.739 -21.063  0.00  0.00    -0.000 C 
ATOM      3  C   UNL     1      33.732 -20.384 -20.513  0.00  0.00    -0.004 C 
ATOM      4  C   UNL     1      35.191 -21.655 -19.066  0.00  0.00    -0.004 C 
ATOM      5  C   UNL     1      36.123 -20.051 -20.615  0.00  0.00    -0.000 C 
ATOM      6  C   UNL     1      36.299 -21.009 -19.616  0.00  0.00    -0.000 C 
ENDROOT
BRANCH   2   7
ATOM      7  C   UNL     1      34.657 -18.744 -22.098  0.00  0.00    +0.003 C 
ATOM      8  C   UNL     1      34.894 -17.398 -21.822  0.00  0.00    +0.037 C 
ATOM      9  C   UNL     1      34.246 -19.132 -23.373  0.00  0.00    +0.000 C 
ATOM     10  C   UNL     1      34.719 -16.440 -22.821  0.00  0.00    +0.139 C 
ATOM     11  C   UNL     1      34.071 -18.175 -24.371  0.00  0.00    +0.003 C 
ATOM     12  C   UNL     1      34.308 -16.828 -24.095  0.00  0.00    +0.037 C 
BRANCH  10  13
ATOM     13  O   UNL     1      34.950 -15.125 -22.551  0.00  0.00    -0.471 OA
ATOM     14  C   UNL     1      34.183 -14.532 -21.505  0.00  0.00    +0.252 C 
ENDBRANCH  10  13
ENDBRANCH   2   7
BRANCH   1  15
ATOM     15  C   UNL     1      32.724 -22.032 -18.926  0.00  0.00    +0.034 C 
BRANCH  15  16
ATOM     16  C   UNL     1      33.052 -22.903 -17.696  0.00  0.00    +0.064 C 
BRANCH  16  18
ATOM     17  N   UNL     1      30.677 -22.765 -17.242  0.00  0.00    -0.396 NA
ATOM     18  C   UNL     1      31.893 -23.038 -16.738  0.00  0.00    +0.110 C 
ATOM     19  C   UNL     1      32.150 -23.422 -15.440  0.00  0.00    +0.023 C 
ATOM     20  C   UNL     1      31.061 -23.537 -14.582  0.00  0.00    -0.015 C 
ATOM     21  C   UNL     1      29.644 -22.887 -16.380  0.00  0.00    +0.158 C 
ATOM     22  C   UNL     1      29.781 -23.266 -15.053  0.00  0.00    +0.100 C 
ATOM     23  N   UNL     1      28.333 -22.616 -16.844  0.00  0.00    -0.336 N 
ATOM     24  H   UNL     1      28.189 -22.343 -17.779  0.00  0.00    +0.144 HD
ATOM     25  H   UNL     1      27.566 -22.699 -16.232  0.00  0.00    +0.144 HD
ENDBRANCH  16  18
ENDBRANCH  15  16
ENDBRANCH   1  15
TORSDOF 5
ENDMDL
MODEL 2
REMARK VINA RESULT:     -11.5      1.093      1.901
REMARK  Name = 11659487
REMARK  5 active torsions:
REMARK  status: ('A' for Active; 'I' for Inactive)
REMARK    1  A    between atoms: C_1  and  C_15
REMARK    2  A    between atoms: C_2  and  C_7
REMARK    3  A    between atoms: C_10  and  O_13
REMARK    4  A    between atoms: C_15  and  C_16
REMARK    5  A    between atoms: C_16  and  C_18
REMARK                            x       y       z     vdW  Elec       q    Type
REMARK                         _______ _______ _______ _____ _____    ______ ____
ROOT
ATOM      1  C   UNL     1      33.909 -21.358 -19.484  0.00  0.00    -0.022 C 
ATOM      2  C   UNL     1      34.890 -19.765 -21.013  0.00  0.00    -0.000 C 
ATOM      3  C   UNL     1      33.763 -20.385 -20.472  0.00  0.00    -0.004 C 
ATOM      4  C   UNL     1      35.183 -21.713 -19.038  0.00  0.00    -0.004 C 
ATOM      5  C   UNL     1      36.163 -20.120 -20.568  0.00  0.00    -0.000 C 
ATOM      6  C   UNL     1      36.309 -21.094 -19.580  0.00  0.00    -0.000 C 
ENDROOT
BRANCH   2   7
ATOM      7  C   UNL     1      34.738 -18.754 -22.037  0.00  0.00    +0.003 C 
ATOM      8  C   UNL     1      34.376 -19.122 -23.333  0.00  0.00    +0.037 C 
ATOM      9  C   UNL     1      34.951 -17.411 -21.728  0.00  0.00    +0.000 C 
ATOM     10  C   UNL     1      34.229 -18.147 -24.319  0.00  0.00    +0.139 C 
ATOM     11  C   UNL     1      34.805 -16.436 -22.714  0.00  0.00    +0.003 C 
ATOM     12  C   UNL     1      34.442 -16.804 -24.010  0.00  0.00    +0.037 C 
BRANCH  10  13
ATOM     13  O   UNL     1      33.875 -18.506 -25.585  0.00  0.00    -0.471 OA
ATOM     14  C   UNL     1      32.486 -18.480 -25.903  0.00  0.00    +0.252 C 
ENDBRANCH  10  13
ENDBRANCH   2   7
BRANCH   1  15
ATOM     15  C   UNL     1      32.705 -22.021 -18.905  0.00  0.00    +0.034 C 
BRANCH  15  16
ATOM     16  C   UNL     1      33.005 -22.904 -17.677  0.00  0.00    +0.064 C 
BRANCH  16  18
ATOM     17  N   UNL     1      30.625 -22.754 -17.252  0.00  0.00    -0.396 NA
ATOM     18  C   UNL     1      31.835 -23.022 -16.730  0.00  0.00    +0.110 C 
ATOM     19  C   UNL     1      32.076 -23.385 -15.423  0.00  0.00    +0.023 C 
ATOM     20  C   UNL     1      30.977 -23.484 -14.576  0.00  0.00    -0.015 C 
ATOM     21  C   UNL     1      29.583 -22.860 -16.400  0.00  0.00    +0.158 C 
ATOM     22  C   UNL     1      29.704 -23.218 -15.066  0.00  0.00    +0.100 C 
ATOM     23  N   UNL     1      28.277 -22.594 -16.883  0.00  0.00    -0.336 N 
ATOM     24  H   UNL     1      28.145 -22.335 -17.823  0.00  0.00    +0.144 HD
ATOM     25  H   UNL     1      27.504 -22.665 -16.278  0.00  0.00    +0.144 HD
ENDBRANCH  16  18
ENDBRANCH  15  16
ENDBRANCH   1  15
TORSDOF 5
ENDMDL
MODEL 3
REMARK VINA RESULT:     -11.5      4.914      9.272
REMARK  Name = 11659487
REMARK  5 active torsions:
REMARK  status: ('A' for Active; 'I' for Inactive)
REMARK    1  A    between atoms: C_1  and  C_15
REMARK    2  A    between atoms: C_2  and  C_7
REMARK    3  A    between atoms: C_10  and  O_13
REMARK    4  A    between atoms: C_15  and  C_16
REMARK    5  A    between atoms: C_16  and  C_18
REMARK                            x       y       z     vdW  Elec       q    Type
REMARK                         _______ _______ _______ _____ _____    ______ ____
ROOT
ATOM      1  C   UNL     1      34.204 -17.813 -23.772  0.00  0.00    -0.022 C 
ATOM      2  C   UNL     1      34.592 -18.757 -21.582  0.00  0.00    -0.000 C 
ATOM      3  C   UNL     1      34.241 -18.919 -22.923  0.00  0.00    -0.004 C 
ATOM      4  C   UNL     1      34.517 -16.546 -23.281  0.00  0.00    -0.004 C 
ATOM      5  C   UNL     1      34.905 -17.490 -21.091  0.00  0.00    -0.000 C 
ATOM      6  C   UNL     1      34.867 -16.384 -21.940  0.00  0.00    -0.000 C 
ENDROOT
BRANCH   2   7
ATOM      7  C   UNL     1      34.632 -19.904 -20.702  0.00  0.00    +0.003 C 
ATOM      8  C   UNL     1      33.445 -20.481 -20.253  0.00  0.00    +0.037 C 
ATOM      9  C   UNL     1      35.859 -20.434 -20.302  0.00  0.00    +0.000 C 
ATOM     10  C   UNL     1      33.484 -21.587 -19.404  0.00  0.00    +0.139 C 
ATOM     11  C   UNL     1      35.898 -21.540 -19.454  0.00  0.00    +0.003 C 
ATOM     12  C   UNL     1      34.710 -22.118 -19.005  0.00  0.00    +0.037 C 
BRANCH  10  13
ATOM     13  O   UNL     1      32.324 -22.151 -18.966  0.00  0.00    -0.471 OA
ATOM     14  C   UNL     1      32.351 -22.782 -17.687  0.00  0.00    +0.252 C 
ENDBRANCH  10  13
ENDBRANCH   2   7
BRANCH   1  15
ATOM     15  C   UNL     1      33.830 -17.985 -25.206  0.00  0.00    +0.034 C 
BRANCH  15  16
ATOM     16  C   UNL     1      34.154 -16.764 -26.090  0.00  0.00    +0.064 C 
BRANCH  16  18
ATOM     17  N   UNL     1      33.023 -14.819 -26.986  0.00  0.00    -0.396 NA
ATOM     18  C   UNL     1      32.927 -16.129 -26.699  0.00  0.00    +0.110 C 
ATOM     19  C   UNL     1      31.814 -16.912 -26.915  0.00  0.00    +0.023 C 
ATOM     20  C   UNL     1      30.701 -16.296 -27.477  0.00  0.00    -0.015 C 
ATOM     21  C   UNL     1      31.922 -14.255 -27.529  0.00  0.00    +0.158 C 
ATOM     22  C   UNL     1      30.748 -14.943 -27.793  0.00  0.00    +0.100 C 
ATOM     23  N   UNL     1      31.954 -12.877 -27.859  0.00  0.00    -0.336 N 
ATOM     24  H   UNL     1      32.767 -12.350 -27.688  0.00  0.00    +0.144 HD
ATOM     25  H   UNL     1      31.162 -12.447 -28.256  0.00  0.00    +0.144 HD
ENDBRANCH  16  18
ENDBRANCH  15  16
ENDBRANCH   1  15
TORSDOF 5
ENDMDL
MODEL 4
REMARK VINA RESULT:     -11.5      4.669      9.131
REMARK  Name = 11659487
REMARK  5 active torsions:
REMARK  status: ('A' for Active; 'I' for Inactive)
REMARK    1  A    between atoms: C_1  and  C_15
REMARK    2  A    between atoms: C_2  and  C_7
REMARK    3  A    between atoms: C_10  and  O_13
REMARK    4  A    between atoms: C_15  and  C_16
REMARK    5  A    between atoms: C_16  and  C_18
REMARK                            x       y       z     vdW  Elec       q    Type
REMARK                         _______ _______ _______ _____ _____    ______ ____
ROOT
ATOM      1  C   UNL     1      34.160 -17.971 -24.361  0.00  0.00    -0.022 C 
ATOM      2  C   UNL     1      34.299 -18.743 -22.075  0.00  0.00    -0.000 C 
ATOM      3  C   UNL     1      33.970 -18.975 -23.411  0.00  0.00    -0.004 C 
ATOM      4  C   UNL     1      34.675 -16.734 -23.974  0.00  0.00    -0.004 C 
ATOM      5  C   UNL     1      34.814 -17.506 -21.688  0.00  0.00    -0.000 C 
ATOM      6  C   UNL     1      35.002 -16.501 -22.638  0.00  0.00    -0.000 C 
ENDROOT
BRANCH   2   7
ATOM      7  C   UNL     1      34.104 -19.785 -21.091  0.00  0.00    +0.003 C 
ATOM      8  C   UNL     1      35.206 -20.408 -20.506  0.00  0.00    +0.037 C 
ATOM      9  C   UNL     1      32.813 -20.166 -20.724  0.00  0.00    +0.000 C 
ATOM     10  C   UNL     1      35.018 -21.412 -19.557  0.00  0.00    +0.139 C 
ATOM     11  C   UNL     1      32.624 -21.170 -19.775  0.00  0.00    +0.003 C 
ATOM     12  C   UNL     1      33.727 -21.793 -19.191  0.00  0.00    +0.037 C 
BRANCH  10  13
ATOM     13  O   UNL     1      36.095 -22.020 -18.986  0.00  0.00    -0.471 OA
ATOM     14  C   UNL     1      36.378 -21.697 -17.626  0.00  0.00    +0.252 C 
ENDBRANCH  10  13
ENDBRANCH   2   7
BRANCH   1  15
ATOM     15  C   UNL     1      33.810 -18.219 -25.789  0.00  0.00    +0.034 C 
BRANCH  15  16
ATOM     16  C   UNL     1      32.326 -17.965 -26.125  0.00  0.00    +0.064 C 
BRANCH  16  18
ATOM     17  N   UNL     1      30.832 -16.379 -27.183  0.00  0.00    -0.396 NA
ATOM     18  C   UNL     1      32.080 -16.607 -26.738  0.00  0.00    +0.110 C 
ATOM     19  C   UNL     1      33.124 -15.710 -26.801  0.00  0.00    +0.023 C 
ATOM     20  C   UNL     1      32.865 -14.469 -27.371  0.00  0.00    -0.015 C 
ATOM     21  C   UNL     1      30.618 -15.163 -27.731  0.00  0.00    +0.158 C 
ATOM     22  C   UNL     1      31.590 -14.182 -27.848  0.00  0.00    +0.100 C 
ATOM     23  N   UNL     1      29.324 -14.855 -28.220  0.00  0.00    -0.336 N 
ATOM     24  H   UNL     1      28.603 -15.521 -28.158  0.00  0.00    +0.144 HD
ATOM     25  H   UNL     1      29.147 -13.974 -28.623  0.00  0.00    +0.144 HD
ENDBRANCH  16  18
ENDBRANCH  15  16
ENDBRANCH   1  15
TORSDOF 5
ENDMDL
MODEL 5
REMARK VINA RESULT:     -11.5      1.337      1.749
REMARK  Name = 11659487
REMARK  5 active torsions:
REMARK  status: ('A' for Active; 'I' for Inactive)
REMARK    1  A    between atoms: C_1  and  C_15
REMARK    2  A    between atoms: C_2  and  C_7
REMARK    3  A    between atoms: C_10  and  O_13
REMARK    4  A    between atoms: C_15  and  C_16
REMARK    5  A    between atoms: C_16  and  C_18
REMARK                            x       y       z     vdW  Elec       q    Type
REMARK                         _______ _______ _______ _____ _____    ______ ____
ROOT
ATOM      1  C   UNL     1      33.977 -21.272 -19.567  0.00  0.00    -0.022 C 
ATOM      2  C   UNL     1      34.868 -19.652 -21.122  0.00  0.00    -0.000 C 
ATOM      3  C   UNL     1      33.776 -20.314 -20.560  0.00  0.00    -0.004 C 
ATOM      4  C   UNL     1      35.270 -21.570 -19.137  0.00  0.00    -0.004 C 
ATOM      5  C   UNL     1      36.161 -19.949 -20.692  0.00  0.00    -0.000 C 
ATOM      6  C   UNL     1      36.362 -20.908 -19.699  0.00  0.00    -0.000 C 
ENDROOT
BRANCH   2   7
ATOM      7  C   UNL     1      34.660 -18.656 -22.151  0.00  0.00    +0.003 C 
ATOM      8  C   UNL     1      34.868 -17.307 -21.869  0.00  0.00    +0.037 C 
ATOM      9  C   UNL     1      34.251 -19.047 -23.426  0.00  0.00    +0.000 C 
ATOM     10  C   UNL     1      34.667 -16.347 -22.861  0.00  0.00    +0.139 C 
ATOM     11  C   UNL     1      34.049 -18.088 -24.418  0.00  0.00    +0.003 C 
ATOM     12  C   UNL     1      34.259 -16.738 -24.136  0.00  0.00    +0.037 C 
BRANCH  10  13
ATOM     13  O   UNL     1      34.871 -15.029 -22.586  0.00  0.00    -0.471 OA
ATOM     14  C   UNL     1      34.228 -14.500 -21.429  0.00  0.00    +0.252 C 
ENDBRANCH  10  13
ENDBRANCH   2   7
BRANCH   1  15
ATOM     15  C   UNL     1      32.810 -21.980 -18.965  0.00  0.00    +0.034 C 
BRANCH  15  16
ATOM     16  C   UNL     1      33.192 -23.205 -18.110  0.00  0.00    +0.064 C 
BRANCH  16  18
ATOM     17  N   UNL     1      33.293 -23.489 -15.707  0.00  0.00    -0.396 NA
ATOM     18  C   UNL     1      32.506 -23.228 -16.766  0.00  0.00    +0.110 C 
ATOM     19  C   UNL     1      31.150 -22.988 -16.710  0.00  0.00    +0.023 C 
ATOM     20  C   UNL     1      30.549 -23.017 -15.457  0.00  0.00    -0.015 C 
ATOM     21  C   UNL     1      32.673 -23.510 -14.507  0.00  0.00    +0.158 C 
ATOM     22  C   UNL     1      31.317 -23.282 -14.329  0.00  0.00    +0.100 C 
ATOM     23  N   UNL     1      33.443 -23.777 -13.347  0.00  0.00    -0.336 N 
ATOM     24  H   UNL     1      34.409 -23.945 -13.426  0.00  0.00    +0.144 HD
ATOM     25  H   UNL     1      33.010 -23.797 -12.463  0.00  0.00    +0.144 HD
ENDBRANCH  16  18
ENDBRANCH  15  16
ENDBRANCH   1  15
TORSDOF 5
ENDMDL
MODEL 6
REMARK VINA RESULT:     -11.4      4.952      9.239
REMARK  Name = 11659487
REMARK  5 active torsions:
REMARK  status: ('A' for Active; 'I' for Inactive)
REMARK    1  A    between atoms: C_1  and  C_15
REMARK    2  A    between atoms: C_2  and  C_7
REMARK    3  A    between atoms: C_10  and  O_13
REMARK    4  A    between atoms: C_15  and  C_16
REMARK    5  A    between atoms: C_16  and  C_18
REMARK                            x       y       z     vdW  Elec       q    Type
REMARK                         _______ _______ _______ _____ _____    ______ ____
ROOT
ATOM      1  C   UNL     1      33.066 -23.330 -16.464  0.00  0.00    -0.022 C 
ATOM      2  C   UNL     1      34.372 -24.052 -14.565  0.00  0.00    -0.000 C 
ATOM      3  C   UNL     1      34.300 -23.648 -15.898  0.00  0.00    -0.004 C 
ATOM      4  C   UNL     1      31.904 -23.418 -15.698  0.00  0.00    -0.004 C 
ATOM      5  C   UNL     1      33.211 -24.139 -13.798  0.00  0.00    -0.000 C 
ATOM      6  C   UNL     1      31.976 -23.822 -14.364  0.00  0.00    -0.000 C 
ENDROOT
BRANCH   2   7
ATOM      7  C   UNL     1      35.653 -24.380 -13.977  0.00  0.00    +0.003 C 
ATOM      8  C   UNL     1      36.506 -25.277 -14.619  0.00  0.00    +0.037 C 
ATOM      9  C   UNL     1      36.036 -23.798 -12.769  0.00  0.00    +0.000 C 
ATOM     10  C   UNL     1      37.741 -25.593 -14.052  0.00  0.00    +0.139 C 
ATOM     11  C   UNL     1      37.270 -24.114 -12.202  0.00  0.00    +0.003 C 
ATOM     12  C   UNL     1      38.124 -25.011 -12.844  0.00  0.00    +0.037 C 
BRANCH  10  13
ATOM     13  O   UNL     1      38.574 -26.469 -14.679  0.00  0.00    -0.471 OA
ATOM     14  C   UNL     1      39.960 -26.135 -14.717  0.00  0.00    +0.252 C 
ENDBRANCH  10  13
ENDBRANCH   2   7
BRANCH   1  15
ATOM     15  C   UNL     1      32.987 -22.898 -17.890  0.00  0.00    +0.034 C 
BRANCH  15  16
ATOM     16  C   UNL     1      34.328 -22.407 -18.472  0.00  0.00    +0.064 C 
BRANCH  16  18
ATOM     17  N   UNL     1      35.293 -20.698 -19.891  0.00  0.00    -0.396 NA
ATOM     18  C   UNL     1      34.164 -21.319 -19.505  0.00  0.00    +0.110 C 
ATOM     19  C   UNL     1      32.900 -21.036 -19.974  0.00  0.00    +0.023 C 
ATOM     20  C   UNL     1      32.784 -20.028 -20.925  0.00  0.00    -0.015 C 
ATOM     21  C   UNL     1      35.141 -19.725 -20.815  0.00  0.00    +0.158 C 
ATOM     22  C   UNL     1      33.921 -19.355 -21.359  0.00  0.00    +0.100 C 
ATOM     23  N   UNL     1      36.290 -19.030 -21.268  0.00  0.00    -0.336 N 
ATOM     24  H   UNL     1      37.177 -19.259 -20.909  0.00  0.00    +0.144 HD
ATOM     25  H   UNL     1      36.200 -18.317 -21.941  0.00  0.00    +0.144 HD
ENDBRANCH  16  18
ENDBRANCH  15  16
ENDBRANCH   1  15
TORSDOF 5
ENDMDL
MODEL 7
REMARK VINA RESULT:     -11.2      3.333      4.427
REMARK  Name = 11659487
REMARK  5 active torsions:
REMARK  status: ('A' for Active; 'I' for Inactive)
REMARK    1  A    between atoms: C_1  and  C_15
REMARK    2  A    between atoms: C_2  and  C_7
REMARK    3  A    between atoms: C_10  and  O_13
REMARK    4  A    between atoms: C_15  and  C_16
REMARK    5  A    between atoms: C_16  and  C_18
REMARK                            x       y       z     vdW  Elec       q    Type
REMARK                         _______ _______ _______ _____ _____    ______ ____
ROOT
ATOM      1  C   UNL     1      35.258 -21.368 -19.250  0.00  0.00    -0.022 C 
ATOM      2  C   UNL     1      34.261 -19.883 -20.874  0.00  0.00    -0.000 C 
ATOM      3  C   UNL     1      35.390 -20.364 -20.209  0.00  0.00    -0.004 C 
ATOM      4  C   UNL     1      33.998 -21.890 -18.954  0.00  0.00    -0.004 C 
ATOM      5  C   UNL     1      33.002 -20.404 -20.579  0.00  0.00    -0.000 C 
ATOM      6  C   UNL     1      32.870 -21.408 -19.619  0.00  0.00    -0.000 C 
ENDROOT
BRANCH   2   7
ATOM      7  C   UNL     1      34.398 -18.843 -21.871  0.00  0.00    +0.003 C 
ATOM      8  C   UNL     1      34.092 -19.110 -23.205  0.00  0.00    +0.037 C 
ATOM      9  C   UNL     1      34.833 -17.572 -21.497  0.00  0.00    +0.000 C 
ATOM     10  C   UNL     1      34.224 -18.107 -24.165  0.00  0.00    +0.139 C 
ATOM     11  C   UNL     1      34.965 -16.569 -22.456  0.00  0.00    +0.003 C 
ATOM     12  C   UNL     1      34.660 -16.836 -23.791  0.00  0.00    +0.037 C 
BRANCH  10  13
ATOM     13  O   UNL     1      33.926 -18.368 -25.468  0.00  0.00    -0.471 OA
ATOM     14  C   UNL     1      32.602 -18.066 -25.905  0.00  0.00    +0.252 C 
ENDBRANCH  10  13
ENDBRANCH   2   7
BRANCH   1  15
ATOM     15  C   UNL     1      36.463 -21.884 -18.539  0.00  0.00    +0.034 C 
BRANCH  15  16
ATOM     16  C   UNL     1      36.521 -21.503 -17.046  0.00  0.00    +0.064 C 
BRANCH  16  18
ATOM     17  N   UNL     1      37.492 -23.269 -15.702  0.00  0.00    -0.396 NA
ATOM     18  C   UNL     1      36.355 -22.688 -16.124  0.00  0.00    +0.110 C 
ATOM     19  C   UNL     1      35.082 -23.089 -15.784  0.00  0.00    +0.023 C 
ATOM     20  C   UNL     1      34.964 -24.183 -14.934  0.00  0.00    -0.015 C 
ATOM     21  C   UNL     1      37.338 -24.329 -14.878  0.00  0.00    +0.158 C 
ATOM     22  C   UNL     1      36.108 -24.821 -14.468  0.00  0.00    +0.100 C 
ATOM     23  N   UNL     1      38.494 -24.989 -14.393  0.00  0.00    -0.336 N 
ATOM     24  H   UNL     1      39.388 -24.674 -14.659  0.00  0.00    +0.144 HD
ATOM     25  H   UNL     1      38.403 -25.764 -13.792  0.00  0.00    +0.144 HD
ENDBRANCH  16  18
ENDBRANCH  15  16
ENDBRANCH   1  15
TORSDOF 5
ENDMDL
MODEL 8
REMARK VINA RESULT:     -11.0      4.556      8.676
REMARK  Name = 11659487
REMARK  5 active torsions:
REMARK  status: ('A' for Active; 'I' for Inactive)
REMARK    1  A    between atoms: C_1  and  C_15
REMARK    2  A    between atoms: C_2  and  C_7
REMARK    3  A    between atoms: C_10  and  O_13
REMARK    4  A    between atoms: C_15  and  C_16
REMARK    5  A    between atoms: C_16  and  C_18
REMARK                            x       y       z     vdW  Elec       q    Type
REMARK                         _______ _______ _______ _____ _____    ______ ____
ROOT
ATOM      1  C   UNL     1      34.574 -16.304 -22.541  0.00  0.00    -0.022 C 
ATOM      2  C   UNL     1      34.682 -18.658 -22.007  0.00  0.00    -0.000 C 
ATOM      3  C   UNL     1      34.647 -17.326 -21.594  0.00  0.00    -0.004 C 
ATOM      4  C   UNL     1      34.539 -16.615 -23.901  0.00  0.00    -0.004 C 
ATOM      5  C   UNL     1      34.647 -18.969 -23.366  0.00  0.00    -0.000 C 
ATOM      6  C   UNL     1      34.575 -17.948 -24.313  0.00  0.00    -0.000 C 
ENDROOT
BRANCH   2   7
ATOM      7  C   UNL     1      34.756 -19.718 -21.024  0.00  0.00    +0.003 C 
ATOM      8  C   UNL     1      33.587 -20.315 -20.553  0.00  0.00    +0.037 C 
ATOM      9  C   UNL     1      35.996 -20.143 -20.549  0.00  0.00    +0.000 C 
ATOM     10  C   UNL     1      33.659 -21.337 -19.606  0.00  0.00    +0.139 C 
ATOM     11  C   UNL     1      36.069 -21.164 -19.602  0.00  0.00    +0.003 C 
ATOM     12  C   UNL     1      34.899 -21.762 -19.131  0.00  0.00    +0.037 C 
BRANCH  10  13
ATOM     13  O   UNL     1      32.518 -21.920 -19.146  0.00  0.00    -0.471 OA
ATOM     14  C   UNL     1      32.629 -22.735 -17.981  0.00  0.00    +0.252 C 
ENDBRANCH  10  13
ENDBRANCH   2   7
BRANCH   1  15
ATOM     15  C   UNL     1      34.536 -14.880 -22.101  0.00  0.00    +0.034 C 
BRANCH  15  16
ATOM     16  C   UNL     1      33.637 -13.979 -22.971  0.00  0.00    +0.064 C 
BRANCH  16  18
ATOM     17  N   UNL     1      32.432 -11.888 -22.765  0.00  0.00    -0.396 NA
ATOM     18  C   UNL     1      32.776 -13.039 -22.161  0.00  0.00    +0.110 C 
ATOM     19  C   UNL     1      32.408 -13.411 -20.887  0.00  0.00    +0.023 C 
ATOM     20  C   UNL     1      31.615 -12.524 -20.168  0.00  0.00    -0.015 C 
ATOM     21  C   UNL     1      31.662 -11.051 -22.035  0.00  0.00    +0.158 C 
ATOM     22  C   UNL     1      31.230 -11.319 -20.745  0.00  0.00    +0.100 C 
ATOM     23  N   UNL     1      31.260  -9.820 -22.610  0.00  0.00    -0.336 N 
ATOM     24  H   UNL     1      31.543  -9.587 -23.523  0.00  0.00    +0.144 HD
ATOM     25  H   UNL     1      30.699  -9.195 -22.095  0.00  0.00    +0.144 HD
ENDBRANCH  16  18
ENDBRANCH  15  16
ENDBRANCH   1  15
TORSDOF 5
ENDMDL
MODEL 9
REMARK VINA RESULT:     -11.0      4.853      9.340
REMARK  Name = 11659487
REMARK  5 active torsions:
REMARK  status: ('A' for Active; 'I' for Inactive)
REMARK    1  A    between atoms: C_1  and  C_15
REMARK    2  A    between atoms: C_2  and  C_7
REMARK    3  A    between atoms: C_10  and  O_13
REMARK    4  A    between atoms: C_15  and  C_16
REMARK    5  A    between atoms: C_16  and  C_18
REMARK                            x       y       z     vdW  Elec       q    Type
REMARK                         _______ _______ _______ _____ _____    ______ ____
ROOT
ATOM      1  C   UNL     1      33.006 -23.309 -16.991  0.00  0.00    -0.022 C 
ATOM      2  C   UNL     1      33.963 -24.271 -14.992  0.00  0.00    -0.000 C 
ATOM      3  C   UNL     1      34.093 -23.871 -16.323  0.00  0.00    -0.004 C 
ATOM      4  C   UNL     1      31.788 -23.148 -16.330  0.00  0.00    -0.004 C 
ATOM      5  C   UNL     1      32.746 -24.109 -14.331  0.00  0.00    -0.000 C 
ATOM      6  C   UNL     1      31.658 -23.548 -15.000  0.00  0.00    -0.000 C 
ENDROOT
BRANCH   2   7
ATOM      7  C   UNL     1      35.091 -24.852 -14.298  0.00  0.00    +0.003 C 
ATOM      8  C   UNL     1      35.325 -24.538 -12.960  0.00  0.00    +0.037 C 
ATOM      9  C   UNL     1      35.945 -25.729 -14.967  0.00  0.00    +0.000 C 
ATOM     10  C   UNL     1      36.413 -25.100 -12.291  0.00  0.00    +0.139 C 
ATOM     11  C   UNL     1      37.033 -26.291 -14.299  0.00  0.00    +0.003 C 
ATOM     12  C   UNL     1      37.266 -25.976 -12.960  0.00  0.00    +0.037 C 
BRANCH  10  13
ATOM     13  O   UNL     1      36.641 -24.793 -10.984  0.00  0.00    -0.471 OA
ATOM     14  C   UNL     1      35.712 -23.915 -10.351  0.00  0.00    +0.252 C 
ENDBRANCH  10  13
ENDBRANCH   2   7
BRANCH   1  15
ATOM     15  C   UNL     1      33.144 -22.882 -18.414  0.00  0.00    +0.034 C 
BRANCH  15  16
ATOM     16  C   UNL     1      34.446 -22.112 -18.714  0.00  0.00    +0.064 C 
BRANCH  16  18
ATOM     17  N   UNL     1      35.402 -20.440 -20.182  0.00  0.00    -0.396 NA
ATOM     18  C   UNL     1      34.275 -21.044 -19.767  0.00  0.00    +0.110 C 
ATOM     19  C   UNL     1      33.006 -20.761 -20.223  0.00  0.00    +0.023 C 
ATOM     20  C   UNL     1      32.883 -19.772 -21.193  0.00  0.00    -0.015 C 
ATOM     21  C   UNL     1      35.243 -19.484 -21.124  0.00  0.00    +0.158 C 
ATOM     22  C   UNL     1      34.018 -19.117 -21.657  0.00  0.00    +0.100 C 
ATOM     23  N   UNL     1      36.390 -18.808 -21.609  0.00  0.00    -0.336 N 
ATOM     24  H   UNL     1      37.281 -19.036 -21.258  0.00  0.00    +0.144 HD
ATOM     25  H   UNL     1      36.296 -18.108 -22.295  0.00  0.00    +0.144 HD
ENDBRANCH  16  18
ENDBRANCH  15  16
ENDBRANCH   1  15
TORSDOF 5
ENDMDL
