MODEL 1
REMARK VINA RESULT:     -13.4      0.000      0.000
REMARK  Name = 9998128
REMARK  2 active torsions:
REMARK  status: ('A' for Active; 'I' for Inactive)
REMARK    1  A    between atoms: N_1  and  C_15
REMARK    2  A    between atoms: C_7  and  C_24
REMARK                            x       y       z     vdW  Elec       q    Type
REMARK                         _______ _______ _______ _____ _____    ______ ____
ROOT
ATOM      1  N   UNL     1      33.513 -24.844 -14.851  0.00  0.00    -0.290 N 
ATOM      2  N   UNL     1      33.529 -23.426 -16.729  0.00  0.00    -0.327 NA
ATOM      3  N   UNL     1      31.475 -22.516 -17.600  0.00  0.00    -0.342 NA
ATOM      4  C   UNL     1      31.415 -23.958 -15.685  0.00  0.00    +0.143 C 
ATOM      5  C   UNL     1      32.801 -24.052 -15.785  0.00  0.00    +0.184 C 
ATOM      6  C   UNL     1      30.777 -23.155 -16.644  0.00  0.00    +0.133 C 
ATOM      7  C   UNL     1      32.812 -22.687 -17.591  0.00  0.00    +0.165 C 
ATOM      8  C   UNL     1      30.675 -24.622 -14.690  0.00  0.00    -0.011 C 
ATOM      9  C   UNL     1      29.391 -23.037 -16.576  0.00  0.00    +0.029 C 
ATOM     10  C   UNL     1      29.292 -24.487 -14.645  0.00  0.00    -0.004 C 
ATOM     11  C   UNL     1      28.649 -23.693 -15.590  0.00  0.00    +0.002 C 
ATOM     12  H   UNL     1      32.999 -25.611 -14.507  0.00  0.00    +0.154 HD
ENDROOT
BRANCH   1  15
ATOM     13  N   UNL     1      38.504 -24.265 -12.596  0.00  0.00    -0.236 N 
ATOM     14  N   UNL     1      38.330 -23.320 -11.658  0.00  0.00    -0.180 NA
ATOM     15  C   UNL     1      34.809 -24.749 -14.322  0.00  0.00    +0.050 C 
ATOM     16  C   UNL     1      36.377 -23.761 -12.767  0.00  0.00    +0.037 C 
ATOM     17  C   UNL     1      37.371 -24.576 -13.297  0.00  0.00    +0.067 C 
ATOM     18  C   UNL     1      35.073 -23.842 -13.282  0.00  0.00    +0.018 C 
ATOM     19  C   UNL     1      35.835 -25.554 -14.834  0.00  0.00    +0.016 C 
ATOM     20  C   UNL     1      37.138 -25.485 -14.331  0.00  0.00    +0.017 C 
ATOM     21  C   UNL     1      37.034 -23.015 -11.764  0.00  0.00    +0.119 C 
ATOM     22  H   UNL     1      39.373 -24.697 -12.764  0.00  0.00    +0.174 HD
ENDBRANCH   1  15
BRANCH   7  24
ATOM     23  N   UNL     1      32.806 -21.243 -19.454  0.00  0.00    -0.398 NA
ATOM     24  C   UNL     1      33.552 -22.000 -18.617  0.00  0.00    +0.197 C 
ATOM     25  C   UNL     1      34.931 -22.127 -18.714  0.00  0.00    +0.098 C 
ATOM     26  C   UNL     1      33.473 -20.585 -20.429  0.00  0.00    +0.110 C 
ATOM     27  C   UNL     1      35.581 -21.436 -19.730  0.00  0.00    -0.016 C 
ATOM     28  C   UNL     1      34.845 -20.647 -20.609  0.00  0.00    +0.023 C 
ATOM     29  C   UNL     1      32.652 -19.750 -21.353  0.00  0.00    +0.066 C 
ENDBRANCH   7  24
TORSDOF 2
ENDMDL
MODEL 2
REMARK VINA RESULT:     -12.8      1.833      5.974
REMARK  Name = 9998128
REMARK  2 active torsions:
REMARK  status: ('A' for Active; 'I' for Inactive)
REMARK    1  A    between atoms: N_1  and  C_15
REMARK    2  A    between atoms: C_7  and  C_24
REMARK                            x       y       z     vdW  Elec       q    Type
REMARK                         _______ _______ _______ _____ _____    ______ ____
ROOT
ATOM      1  N   UNL     1      32.954 -23.816 -13.940  0.00  0.00    -0.290 N 
ATOM      2  N   UNL     1      34.126 -23.005 -15.812  0.00  0.00    -0.327 NA
ATOM      3  N   UNL     1      36.517 -23.260 -15.970  0.00  0.00    -0.342 NA
ATOM      4  C   UNL     1      35.360 -24.100 -14.045  0.00  0.00    +0.143 C 
ATOM      5  C   UNL     1      34.182 -23.632 -14.622  0.00  0.00    +0.184 C 
ATOM      6  C   UNL     1      36.537 -23.884 -14.779  0.00  0.00    +0.133 C 
ATOM      7  C   UNL     1      35.313 -22.855 -16.422  0.00  0.00    +0.165 C 
ATOM      8  C   UNL     1      35.392 -24.753 -12.800  0.00  0.00    -0.011 C 
ATOM      9  C   UNL     1      37.736 -24.337 -14.233  0.00  0.00    +0.029 C 
ATOM     10  C   UNL     1      36.603 -25.196 -12.279  0.00  0.00    -0.004 C 
ATOM     11  C   UNL     1      37.777 -24.987 -12.996  0.00  0.00    +0.002 C 
ATOM     12  H   UNL     1      33.041 -23.826 -12.959  0.00  0.00    +0.154 HD
ENDROOT
BRANCH   1  15
ATOM     13  N   UNL     1      27.805 -24.226 -15.853  0.00  0.00    -0.236 N 
ATOM     14  N   UNL     1      27.647 -23.122 -16.603  0.00  0.00    -0.180 NA
ATOM     15  C   UNL     1      31.635 -23.984 -14.392  0.00  0.00    +0.050 C 
ATOM     16  C   UNL     1      29.736 -23.204 -15.672  0.00  0.00    +0.037 C 
ATOM     17  C   UNL     1      29.036 -24.335 -15.268  0.00  0.00    +0.067 C 
ATOM     18  C   UNL     1      31.058 -23.018 -15.232  0.00  0.00    +0.018 C 
ATOM     19  C   UNL     1      30.901 -25.112 -14.002  0.00  0.00    +0.016 C 
ATOM     20  C   UNL     1      29.585 -25.311 -14.433  0.00  0.00    +0.017 C 
ATOM     21  C   UNL     1      28.825 -22.503 -16.490  0.00  0.00    +0.119 C 
ATOM     22  H   UNL     1      27.095 -24.898 -15.737  0.00  0.00    +0.174 HD
ENDBRANCH   1  15
BRANCH   7  24
ATOM     23  N   UNL     1      34.076 -22.044 -18.257  0.00  0.00    -0.398 NA
ATOM     24  C   UNL     1      35.299 -22.188 -17.698  0.00  0.00    +0.197 C 
ATOM     25  C   UNL     1      36.474 -21.739 -18.285  0.00  0.00    +0.098 C 
ATOM     26  C   UNL     1      34.030 -21.421 -19.457  0.00  0.00    +0.110 C 
ATOM     27  C   UNL     1      36.387 -21.104 -19.518  0.00  0.00    -0.016 C 
ATOM     28  C   UNL     1      35.145 -20.938 -20.123  0.00  0.00    +0.023 C 
ATOM     29  C   UNL     1      32.682 -21.261 -20.076  0.00  0.00    +0.066 C 
ENDBRANCH   7  24
TORSDOF 2
ENDMDL
MODEL 3
REMARK VINA RESULT:     -12.7      1.357      4.834
REMARK  Name = 9998128
REMARK  2 active torsions:
REMARK  status: ('A' for Active; 'I' for Inactive)
REMARK    1  A    between atoms: N_1  and  C_15
REMARK    2  A    between atoms: C_7  and  C_24
REMARK                            x       y       z     vdW  Elec       q    Type
REMARK                         _______ _______ _______ _____ _____    ______ ____
ROOT
ATOM      1  N   UNL     1      35.869 -22.566 -16.320  0.00  0.00    -0.290 N 
ATOM      2  N   UNL     1      33.551 -22.965 -16.374  0.00  0.00    -0.327 NA
ATOM      3  N   UNL     1      32.244 -22.356 -18.304  0.00  0.00    -0.342 NA
ATOM      4  C   UNL     1      34.604 -21.931 -18.289  0.00  0.00    +0.143 C 
ATOM      5  C   UNL     1      34.636 -22.486 -17.012  0.00  0.00    +0.184 C 
ATOM      6  C   UNL     1      33.347 -21.886 -18.914  0.00  0.00    +0.133 C 
ATOM      7  C   UNL     1      32.406 -22.869 -17.068  0.00  0.00    +0.165 C 
ATOM      8  C   UNL     1      35.751 -21.437 -18.935  0.00  0.00    -0.011 C 
ATOM      9  C   UNL     1      33.275 -21.337 -20.192  0.00  0.00    +0.029 C 
ATOM     10  C   UNL     1      35.651 -20.895 -20.212  0.00  0.00    -0.004 C 
ATOM     11  C   UNL     1      34.411 -20.845 -20.841  0.00  0.00    +0.002 C 
ATOM     12  H   UNL     1      36.503 -21.848 -16.552  0.00  0.00    +0.154 HD
ENDROOT
BRANCH   1  15
ATOM     13  N   UNL     1      37.570 -26.068 -12.424  0.00  0.00    -0.236 N 
ATOM     14  N   UNL     1      36.571 -26.065 -11.525  0.00  0.00    -0.180 NA
ATOM     15  C   UNL     1      36.364 -23.470 -15.366  0.00  0.00    +0.050 C 
ATOM     16  C   UNL     1      36.115 -24.668 -13.279  0.00  0.00    +0.037 C 
ATOM     17  C   UNL     1      37.358 -25.251 -13.500  0.00  0.00    +0.067 C 
ATOM     18  C   UNL     1      35.602 -23.762 -14.222  0.00  0.00    +0.018 C 
ATOM     19  C   UNL     1      37.613 -24.075 -15.558  0.00  0.00    +0.016 C 
ATOM     20  C   UNL     1      38.136 -24.979 -14.628  0.00  0.00    +0.017 C 
ATOM     21  C   UNL     1      35.688 -25.212 -12.049  0.00  0.00    +0.119 C 
ATOM     22  H   UNL     1      38.383 -26.613 -12.317  0.00  0.00    +0.174 HD
ENDBRANCH   1  15
BRANCH   7  24
ATOM     23  N   UNL     1      30.055 -22.873 -16.896  0.00  0.00    -0.398 NA
ATOM     24  C   UNL     1      31.220 -23.370 -16.423  0.00  0.00    +0.197 C 
ATOM     25  C   UNL     1      31.302 -24.294 -15.391  0.00  0.00    +0.098 C 
ATOM     26  C   UNL     1      28.923 -23.324 -16.310  0.00  0.00    +0.110 C 
ATOM     27  C   UNL     1      30.117 -24.734 -14.812  0.00  0.00    -0.016 C 
ATOM     28  C   UNL     1      28.899 -24.245 -15.275  0.00  0.00    +0.023 C 
ATOM     29  C   UNL     1      27.636 -22.777 -16.831  0.00  0.00    +0.066 C 
ENDBRANCH   7  24
TORSDOF 2
ENDMDL
MODEL 4
REMARK VINA RESULT:     -12.3      2.012      7.069
REMARK  Name = 9998128
REMARK  2 active torsions:
REMARK  status: ('A' for Active; 'I' for Inactive)
REMARK    1  A    between atoms: N_1  and  C_15
REMARK    2  A    between atoms: C_7  and  C_24
REMARK                            x       y       z     vdW  Elec       q    Type
REMARK                         _______ _______ _______ _____ _____    ______ ____
ROOT
ATOM      1  N   UNL     1      34.900 -22.765 -17.445  0.00  0.00    -0.290 N 
ATOM      2  N   UNL     1      32.919 -23.440 -16.370  0.00  0.00    -0.327 NA
ATOM      3  N   UNL     1      32.946 -24.119 -14.058  0.00  0.00    -0.342 NA
ATOM      4  C   UNL     1      34.986 -23.438 -15.117  0.00  0.00    +0.143 C 
ATOM      5  C   UNL     1      34.245 -23.229 -16.278  0.00  0.00    +0.184 C 
ATOM      6  C   UNL     1      34.271 -23.897 -14.000  0.00  0.00    +0.133 C 
ATOM      7  C   UNL     1      32.342 -23.878 -15.240  0.00  0.00    +0.165 C 
ATOM      8  C   UNL     1      36.372 -23.211 -15.045  0.00  0.00    -0.011 C 
ATOM      9  C   UNL     1      34.978 -24.119 -12.820  0.00  0.00    +0.029 C 
ATOM     10  C   UNL     1      37.053 -23.440 -13.855  0.00  0.00    -0.004 C 
ATOM     11  C   UNL     1      36.355 -23.895 -12.740  0.00  0.00    +0.002 C 
ATOM     12  H   UNL     1      35.840 -23.053 -17.516  0.00  0.00    +0.154 HD
ENDROOT
BRANCH   1  15
ATOM     13  N   UNL     1      33.482 -19.592 -21.718  0.00  0.00    -0.236 N 
ATOM     14  N   UNL     1      34.652 -19.105 -22.164  0.00  0.00    -0.180 NA
ATOM     15  C   UNL     1      34.469 -21.975 -18.522  0.00  0.00    +0.050 C 
ATOM     16  C   UNL     1      34.957 -20.479 -20.360  0.00  0.00    +0.037 C 
ATOM     17  C   UNL     1      33.596 -20.423 -20.638  0.00  0.00    +0.067 C 
ATOM     18  C   UNL     1      35.409 -21.265 -19.287  0.00  0.00    +0.018 C 
ATOM     19  C   UNL     1      33.104 -21.896 -18.829  0.00  0.00    +0.016 C 
ATOM     20  C   UNL     1      32.639 -21.118 -19.895  0.00  0.00    +0.017 C 
ATOM     21  C   UNL     1      35.547 -19.647 -21.335  0.00  0.00    +0.119 C 
ATOM     22  H   UNL     1      32.617 -19.370 -22.134  0.00  0.00    +0.174 HD
ENDBRANCH   1  15
BRANCH   7  24
ATOM     23  N   UNL     1      30.220 -23.231 -16.036  0.00  0.00    -0.398 NA
ATOM     24  C   UNL     1      30.923 -24.117 -15.294  0.00  0.00    +0.197 C 
ATOM     25  C   UNL     1      30.350 -25.188 -14.623  0.00  0.00    +0.098 C 
ATOM     26  C   UNL     1      28.884 -23.429 -16.106  0.00  0.00    +0.110 C 
ATOM     27  C   UNL     1      28.974 -25.358 -14.718  0.00  0.00    -0.016 C 
ATOM     28  C   UNL     1      28.219 -24.466 -15.473  0.00  0.00    +0.023 C 
ATOM     29  C   UNL     1      28.106 -22.453 -16.924  0.00  0.00    +0.066 C 
ENDBRANCH   7  24
TORSDOF 2
ENDMDL
MODEL 5
REMARK VINA RESULT:     -12.1      1.509      4.979
REMARK  Name = 9998128
REMARK  2 active torsions:
REMARK  status: ('A' for Active; 'I' for Inactive)
REMARK    1  A    between atoms: N_1  and  C_15
REMARK    2  A    between atoms: C_7  and  C_24
REMARK                            x       y       z     vdW  Elec       q    Type
REMARK                         _______ _______ _______ _____ _____    ______ ____
ROOT
ATOM      1  N   UNL     1      35.756 -22.581 -16.680  0.00  0.00    -0.290 N 
ATOM      2  N   UNL     1      33.432 -22.942 -16.606  0.00  0.00    -0.327 NA
ATOM      3  N   UNL     1      32.011 -22.169 -18.392  0.00  0.00    -0.342 NA
ATOM      4  C   UNL     1      34.375 -21.781 -18.506  0.00  0.00    +0.143 C 
ATOM      5  C   UNL     1      34.481 -22.432 -17.279  0.00  0.00    +0.184 C 
ATOM      6  C   UNL     1      33.080 -21.671 -19.038  0.00  0.00    +0.133 C 
ATOM      7  C   UNL     1      32.245 -22.777 -17.211  0.00  0.00    +0.165 C 
ATOM      8  C   UNL     1      35.485 -21.256 -19.190  0.00  0.00    -0.011 C 
ATOM      9  C   UNL     1      32.934 -21.026 -20.264  0.00  0.00    +0.029 C 
ATOM     10  C   UNL     1      35.311 -20.617 -20.412  0.00  0.00    -0.004 C 
ATOM     11  C   UNL     1      34.033 -20.502 -20.951  0.00  0.00    +0.002 C 
ATOM     12  H   UNL     1      36.387 -21.857 -16.901  0.00  0.00    +0.154 HD
ENDROOT
BRANCH   1  15
ATOM     13  N   UNL     1      38.133 -26.363 -13.457  0.00  0.00    -0.236 N 
ATOM     14  N   UNL     1      39.441 -26.260 -13.745  0.00  0.00    -0.180 NA
ATOM     15  C   UNL     1      36.296 -23.561 -15.832  0.00  0.00    +0.050 C 
ATOM     16  C   UNL     1      38.202 -24.774 -14.967  0.00  0.00    +0.037 C 
ATOM     17  C   UNL     1      37.336 -25.499 -14.156  0.00  0.00    +0.067 C 
ATOM     18  C   UNL     1      37.682 -23.788 -15.822  0.00  0.00    +0.018 C 
ATOM     19  C   UNL     1      35.451 -24.310 -15.003  0.00  0.00    +0.016 C 
ATOM     20  C   UNL     1      35.953 -25.295 -14.146  0.00  0.00    +0.017 C 
ATOM     21  C   UNL     1      39.479 -25.292 -14.664  0.00  0.00    +0.119 C 
ATOM     22  H   UNL     1      37.780 -27.004 -12.799  0.00  0.00    +0.174 HD
ENDBRANCH   1  15
BRANCH   7  24
ATOM     23  N   UNL     1      29.904 -22.817 -16.936  0.00  0.00    -0.398 NA
ATOM     24  C   UNL     1      31.096 -23.308 -16.526  0.00  0.00    +0.197 C 
ATOM     25  C   UNL     1      31.235 -24.255 -15.520  0.00  0.00    +0.098 C 
ATOM     26  C   UNL     1      28.806 -23.296 -16.311  0.00  0.00    +0.110 C 
ATOM     27  C   UNL     1      30.082 -24.723 -14.900  0.00  0.00    -0.016 C 
ATOM     28  C   UNL     1      28.840 -24.240 -15.298  0.00  0.00    +0.023 C 
ATOM     29  C   UNL     1      27.490 -22.755 -16.762  0.00  0.00    +0.066 C 
ENDBRANCH   7  24
TORSDOF 2
ENDMDL
MODEL 6
REMARK VINA RESULT:     -11.5      1.541      6.659
REMARK  Name = 9998128
REMARK  2 active torsions:
REMARK  status: ('A' for Active; 'I' for Inactive)
REMARK    1  A    between atoms: N_1  and  C_15
REMARK    2  A    between atoms: C_7  and  C_24
REMARK                            x       y       z     vdW  Elec       q    Type
REMARK                         _______ _______ _______ _____ _____    ______ ____
ROOT
ATOM      1  N   UNL     1      31.773 -22.230 -17.528  0.00  0.00    -0.290 N 
ATOM      2  N   UNL     1      33.073 -23.135 -15.789  0.00  0.00    -0.327 NA
ATOM      3  N   UNL     1      32.112 -24.684 -14.213  0.00  0.00    -0.342 NA
ATOM      4  C   UNL     1      30.752 -23.784 -15.971  0.00  0.00    +0.143 C 
ATOM      5  C   UNL     1      31.873 -23.074 -16.394  0.00  0.00    +0.184 C 
ATOM      6  C   UNL     1      30.927 -24.601 -14.842  0.00  0.00    +0.133 C 
ATOM      7  C   UNL     1      33.121 -23.947 -14.720  0.00  0.00    +0.165 C 
ATOM      8  C   UNL     1      29.508 -23.704 -16.620  0.00  0.00    -0.011 C 
ATOM      9  C   UNL     1      29.828 -25.326 -14.388  0.00  0.00    +0.029 C 
ATOM     10  C   UNL     1      28.427 -24.440 -16.146  0.00  0.00    -0.004 C 
ATOM     11  C   UNL     1      28.588 -25.252 -15.028  0.00  0.00    +0.002 C 
ATOM     12  H   UNL     1      30.876 -21.843 -17.658  0.00  0.00    +0.154 HD
ENDROOT
BRANCH   1  15
ATOM     13  N   UNL     1      35.229 -20.514 -21.459  0.00  0.00    -0.236 N 
ATOM     14  N   UNL     1      34.510 -19.618 -22.155  0.00  0.00    -0.180 NA
ATOM     15  C   UNL     1      32.704 -21.837 -18.502  0.00  0.00    +0.050 C 
ATOM     16  C   UNL     1      33.291 -20.502 -20.432  0.00  0.00    +0.037 C 
ATOM     17  C   UNL     1      34.555 -21.081 -20.412  0.00  0.00    +0.067 C 
ATOM     18  C   UNL     1      32.345 -20.880 -19.465  0.00  0.00    +0.018 C 
ATOM     19  C   UNL     1      33.986 -22.402 -18.511  0.00  0.00    +0.016 C 
ATOM     20  C   UNL     1      34.940 -22.035 -19.466  0.00  0.00    +0.017 C 
ATOM     21  C   UNL     1      33.332 -19.613 -21.527  0.00  0.00    +0.119 C 
ATOM     22  H   UNL     1      36.160 -20.743 -21.683  0.00  0.00    +0.174 HD
ENDBRANCH   1  15
BRANCH   7  24
ATOM     23  N   UNL     1      34.313 -24.117 -12.694  0.00  0.00    -0.398 NA
ATOM     24  C   UNL     1      34.388 -24.042 -14.042  0.00  0.00    +0.197 C 
ATOM     25  C   UNL     1      35.581 -24.053 -14.750  0.00  0.00    +0.098 C 
ATOM     26  C   UNL     1      35.486 -24.207 -12.028  0.00  0.00    +0.110 C 
ATOM     27  C   UNL     1      36.767 -24.146 -14.031  0.00  0.00    -0.016 C 
ATOM     28  C   UNL     1      36.727 -24.225 -12.642  0.00  0.00    +0.023 C 
ATOM     29  C   UNL     1      35.406 -24.289 -10.540  0.00  0.00    +0.066 C 
ENDBRANCH   7  24
TORSDOF 2
ENDMDL
MODEL 7
REMARK VINA RESULT:     -10.7     11.367     14.856
REMARK  Name = 9998128
REMARK  2 active torsions:
REMARK  status: ('A' for Active; 'I' for Inactive)
REMARK    1  A    between atoms: N_1  and  C_15
REMARK    2  A    between atoms: C_7  and  C_24
REMARK                            x       y       z     vdW  Elec       q    Type
REMARK                         _______ _______ _______ _____ _____    ______ ____
ROOT
ATOM      1  N   UNL     1      32.192 -12.629 -22.602  0.00  0.00    -0.290 N 
ATOM      2  N   UNL     1      32.981 -10.704 -23.702  0.00  0.00    -0.327 NA
ATOM      3  N   UNL     1      32.745  -8.529 -22.693  0.00  0.00    -0.342 NA
ATOM      4  C   UNL     1      31.927 -10.465 -21.539  0.00  0.00    +0.143 C 
ATOM      5  C   UNL     1      32.373 -11.224 -22.619  0.00  0.00    +0.184 C 
ATOM      6  C   UNL     1      32.142  -9.081 -21.625  0.00  0.00    +0.133 C 
ATOM      7  C   UNL     1      33.132  -9.371 -23.673  0.00  0.00    +0.165 C 
ATOM      8  C   UNL     1      31.294 -11.031 -20.419  0.00  0.00    -0.011 C 
ATOM      9  C   UNL     1      31.708  -8.288 -20.565  0.00  0.00    +0.029 C 
ATOM     10  C   UNL     1      30.872 -10.217 -19.373  0.00  0.00    -0.004 C 
ATOM     11  C   UNL     1      31.079  -8.843 -19.447  0.00  0.00    +0.002 C 
ATOM     12  H   UNL     1      31.396 -12.922 -22.101  0.00  0.00    +0.154 HD
ENDROOT
BRANCH   1  15
ATOM     13  N   UNL     1      34.926 -16.737 -25.049  0.00  0.00    -0.236 N 
ATOM     14  N   UNL     1      34.413 -16.775 -26.290  0.00  0.00    -0.180 NA
ATOM     15  C   UNL     1      32.926 -13.686 -23.163  0.00  0.00    +0.050 C 
ATOM     16  C   UNL     1      33.436 -15.128 -25.038  0.00  0.00    +0.037 C 
ATOM     17  C   UNL     1      34.382 -15.771 -24.247  0.00  0.00    +0.067 C 
ATOM     18  C   UNL     1      32.692 -14.067 -24.495  0.00  0.00    +0.018 C 
ATOM     19  C   UNL     1      33.886 -14.356 -22.395  0.00  0.00    +0.016 C 
ATOM     20  C   UNL     1      34.636 -15.413 -22.921  0.00  0.00    +0.017 C 
ATOM     21  C   UNL     1      33.507 -15.795 -26.280  0.00  0.00    +0.119 C 
ATOM     22  H   UNL     1      35.631 -17.352 -24.744  0.00  0.00    +0.174 HD
ENDBRANCH   1  15
BRANCH   7  24
ATOM     23  N   UNL     1      33.392  -7.507 -25.093  0.00  0.00    -0.398 NA
ATOM     24  C   UNL     1      33.777  -8.773 -24.813  0.00  0.00    +0.197 C 
ATOM     25  C   UNL     1      34.722  -9.473 -25.550  0.00  0.00    +0.098 C 
ATOM     26  C   UNL     1      33.980  -6.918 -26.158  0.00  0.00    +0.110 C 
ATOM     27  C   UNL     1      35.304  -8.834 -26.639  0.00  0.00    -0.016 C 
ATOM     28  C   UNL     1      34.933  -7.532 -26.956  0.00  0.00    +0.023 C 
ATOM     29  C   UNL     1      33.557  -5.521 -26.469  0.00  0.00    +0.066 C 
ENDBRANCH   7  24
TORSDOF 2
ENDMDL
MODEL 8
REMARK VINA RESULT:     -10.5      1.881      7.447
REMARK  Name = 9998128
REMARK  2 active torsions:
REMARK  status: ('A' for Active; 'I' for Inactive)
REMARK    1  A    between atoms: N_1  and  C_15
REMARK    2  A    between atoms: C_7  and  C_24
REMARK                            x       y       z     vdW  Elec       q    Type
REMARK                         _______ _______ _______ _____ _____    ______ ____
ROOT
ATOM      1  N   UNL     1      32.511 -23.013 -17.815  0.00  0.00    -0.290 N 
ATOM      2  N   UNL     1      34.321 -23.326 -16.344  0.00  0.00    -0.327 NA
ATOM      3  N   UNL     1      36.481 -22.376 -16.834  0.00  0.00    -0.342 NA
ATOM      4  C   UNL     1      34.662 -22.034 -18.359  0.00  0.00    +0.143 C 
ATOM      5  C   UNL     1      33.872 -22.787 -17.493  0.00  0.00    +0.184 C 
ATOM      6  C   UNL     1      36.000 -21.851 -17.975  0.00  0.00    +0.133 C 
ATOM      7  C   UNL     1      35.615 -23.085 -16.081  0.00  0.00    +0.165 C 
ATOM      8  C   UNL     1      34.171 -21.481 -19.554  0.00  0.00    -0.011 C 
ATOM      9  C   UNL     1      36.822 -21.104 -18.816  0.00  0.00    +0.029 C 
ATOM     10  C   UNL     1      35.013 -20.739 -20.376  0.00  0.00    -0.004 C 
ATOM     11  C   UNL     1      36.341 -20.551 -20.006  0.00  0.00    +0.002 C 
ATOM     12  H   UNL     1      32.330 -23.040 -18.783  0.00  0.00    +0.154 HD
ENDROOT
BRANCH   1  15
ATOM     13  N   UNL     1      27.882 -23.624 -14.893  0.00  0.00    -0.236 N 
ATOM     14  N   UNL     1      26.951 -22.988 -15.622  0.00  0.00    -0.180 NA
ATOM     15  C   UNL     1      31.370 -23.207 -17.021  0.00  0.00    +0.050 C 
ATOM     16  C   UNL     1      29.005 -22.885 -16.626  0.00  0.00    +0.037 C 
ATOM     17  C   UNL     1      29.136 -23.599 -15.440  0.00  0.00    +0.067 C 
ATOM     18  C   UNL     1      30.135 -22.681 -17.435  0.00  0.00    +0.018 C 
ATOM     19  C   UNL     1      31.467 -23.921 -15.820  0.00  0.00    +0.016 C 
ATOM     20  C   UNL     1      30.351 -24.133 -15.003  0.00  0.00    +0.017 C 
ATOM     21  C   UNL     1      27.637 -22.539 -16.676  0.00  0.00    +0.119 C 
ATOM     22  H   UNL     1      27.679 -24.070 -14.039  0.00  0.00    +0.174 HD
ENDBRANCH   1  15
BRANCH   7  24
ATOM     23  N   UNL     1      37.330 -24.270 -14.980  0.00  0.00    -0.398 NA
ATOM     24  C   UNL     1      36.137 -23.643 -14.861  0.00  0.00    +0.197 C 
ATOM     25  C   UNL     1      35.441 -23.531 -13.665  0.00  0.00    +0.098 C 
ATOM     26  C   UNL     1      37.846 -24.806 -13.851  0.00  0.00    +0.110 C 
ATOM     27  C   UNL     1      36.003 -24.095 -12.526  0.00  0.00    -0.016 C 
ATOM     28  C   UNL     1      37.229 -24.746 -12.612  0.00  0.00    +0.023 C 
ATOM     29  C   UNL     1      39.162 -25.498 -13.980  0.00  0.00    +0.066 C 
ENDBRANCH   7  24
TORSDOF 2
ENDMDL
