MODEL 1
REMARK VINA RESULT:     -12.7      0.000      0.000
REMARK  Name = 51039095
REMARK  7 active torsions:
REMARK  status: ('A' for Active; 'I' for Inactive)
REMARK    1  A    between atoms: C_5  and  C_16
REMARK    2  A    between atoms: C_6  and  C_27
REMARK    3  A    between atoms: C_11  and  N_17
REMARK    4  A    between atoms: C_27  and  C_28
REMARK    5  A    between atoms: C_28  and  C_29
REMARK    6  A    between atoms: C_32  and  O_35
REMARK    7  A    between atoms: C_33  and  O_37
REMARK                            x       y       z     vdW  Elec       q    Type
REMARK                         _______ _______ _______ _____ _____    ______ ____
ROOT
ATOM      1  O   UNL     1      33.381 -21.422 -20.114  0.00  0.00    -0.270 OA
ATOM      2  N   UNL     1      35.392 -20.227 -20.303  0.00  0.00    -0.265 N 
ATOM      3  N   UNL     1      35.555 -18.187 -23.108  0.00  0.00    -0.239 N 
ATOM      4  N   UNL     1      36.133 -18.660 -21.991  0.00  0.00    -0.166 NA
ATOM      5  C   UNL     1      34.508 -21.123 -19.687  0.00  0.00    +0.251 C 
ATOM      6  C   UNL     1      34.306 -18.687 -23.337  0.00  0.00    +0.046 C 
ATOM      7  C   UNL     1      35.209 -19.490 -21.499  0.00  0.00    +0.153 C 
ATOM      8  C   UNL     1      34.050 -19.548 -22.297  0.00  0.00    +0.048 C 
ATOM      9  H   UNL     1      36.253 -20.092 -19.845  0.00  0.00    +0.157 HD
ATOM     10  H   UNL     1      35.992 -17.539 -23.706  0.00  0.00    +0.174 HD
ENDROOT
BRANCH   5  16
ATOM     11  C   UNL     1      35.916 -22.962 -16.130  0.00  0.00    +0.048 C 
ATOM     12  C   UNL     1      34.600 -23.164 -16.545  0.00  0.00    +0.015 C 
ATOM     13  C   UNL     1      36.771 -22.156 -16.883  0.00  0.00    +0.015 C 
ATOM     14  C   UNL     1      34.138 -22.560 -17.714  0.00  0.00    +0.006 C 
ATOM     15  C   UNL     1      36.307 -21.553 -18.053  0.00  0.00    +0.006 C 
ATOM     16  C   UNL     1      34.992 -21.754 -18.468  0.00  0.00    +0.054 C 
BRANCH  11  17
ATOM     17  N   UNL     1      36.382 -23.567 -14.957  0.00  0.00    -0.312 N 
ATOM     18  N   UNL     1      37.245 -25.002 -12.650  0.00  0.00    +0.389 N 
ATOM     19  C   UNL     1      36.297 -23.890 -12.514  0.00  0.00    -0.042 C 
ATOM     20  C   UNL     1      38.180 -24.751 -13.752  0.00  0.00    -0.042 C 
ATOM     21  C   UNL     1      35.485 -23.704 -13.804  0.00  0.00    +0.069 C 
ATOM     22  C   UNL     1      37.424 -24.595 -15.080  0.00  0.00    +0.069 C 
ATOM     23  C   UNL     1      39.176 -25.906 -13.833  0.00  0.00    -0.022 C 
ATOM     24  C   UNL     1      35.370 -24.165 -11.332  0.00  0.00    -0.022 C 
ATOM     25  H   UNL     1      36.727 -25.861 -12.839  0.00  0.00    -0.084 HD
ATOM     26  H   UNL     1      37.774 -25.091 -11.783  0.00  0.00    -0.084 HD
ENDBRANCH  11  17
ENDBRANCH   5  16
BRANCH   6  27
ATOM     27  C   UNL     1      33.506 -18.294 -24.508  0.00  0.00    +0.047 C 
BRANCH  27  28
ATOM     28  C   UNL     1      34.244 -17.382 -25.520  0.00  0.00    +0.033 C 
BRANCH  28  29
ATOM     29  C   UNL     1      33.788 -15.944 -25.457  0.00  0.00    -0.016 C 
ATOM     30  C   UNL     1      33.385 -15.288 -26.620  0.00  0.00    +0.033 C 
ATOM     31  C   UNL     1      33.767 -15.273 -24.235  0.00  0.00    +0.033 C 
ATOM     32  C   UNL     1      33.345 -13.944 -24.175  0.00  0.00    +0.141 C 
ATOM     33  C   UNL     1      32.963 -13.960 -26.561  0.00  0.00    +0.141 C 
ATOM     34  C   UNL     1      32.943 -13.288 -25.339  0.00  0.00    +0.074 C 
BRANCH  32  35
ATOM     35  O   UNL     1      33.324 -13.288 -22.983  0.00  0.00    -0.471 OA
ATOM     36  C   UNL     1      33.734 -14.025 -21.831  0.00  0.00    +0.252 C 
ENDBRANCH  32  35
BRANCH  33  37
ATOM     37  O   UNL     1      32.569 -13.319 -27.696  0.00  0.00    -0.471 OA
ATOM     38  C   UNL     1      31.950 -12.043 -27.539  0.00  0.00    +0.252 C 
ENDBRANCH  33  37
ENDBRANCH  28  29
ENDBRANCH  27  28
ENDBRANCH   6  27
TORSDOF 7
ENDMDL
MODEL 2
REMARK VINA RESULT:     -12.7      0.378      2.150
REMARK  Name = 51039095
REMARK  7 active torsions:
REMARK  status: ('A' for Active; 'I' for Inactive)
REMARK    1  A    between atoms: C_5  and  C_16
REMARK    2  A    between atoms: C_6  and  C_27
REMARK    3  A    between atoms: C_11  and  N_17
REMARK    4  A    between atoms: C_27  and  C_28
REMARK    5  A    between atoms: C_28  and  C_29
REMARK    6  A    between atoms: C_32  and  O_35
REMARK    7  A    between atoms: C_33  and  O_37
REMARK                            x       y       z     vdW  Elec       q    Type
REMARK                         _______ _______ _______ _____ _____    ______ ____
ROOT
ATOM      1  O   UNL     1      33.349 -21.368 -20.043  0.00  0.00    -0.270 OA
ATOM      2  N   UNL     1      35.392 -20.237 -20.271  0.00  0.00    -0.265 N 
ATOM      3  N   UNL     1      35.572 -18.216 -23.089  0.00  0.00    -0.239 N 
ATOM      4  N   UNL     1      36.153 -18.702 -21.978  0.00  0.00    -0.166 NA
ATOM      5  C   UNL     1      34.491 -21.103 -19.635  0.00  0.00    +0.251 C 
ATOM      6  C   UNL     1      34.305 -18.679 -23.294  0.00  0.00    +0.046 C 
ATOM      7  C   UNL     1      35.213 -19.500 -21.468  0.00  0.00    +0.153 C 
ATOM      8  C   UNL     1      34.040 -19.526 -22.246  0.00  0.00    +0.048 C 
ATOM      9  H   UNL     1      36.264 -20.126 -19.828  0.00  0.00    +0.157 HD
ATOM     10  H   UNL     1      36.019 -17.585 -23.697  0.00  0.00    +0.174 HD
ENDROOT
BRANCH   5  16
ATOM     11  C   UNL     1      35.907 -22.972 -16.098  0.00  0.00    +0.048 C 
ATOM     12  C   UNL     1      36.761 -22.167 -16.851  0.00  0.00    +0.015 C 
ATOM     13  C   UNL     1      34.586 -23.162 -16.506  0.00  0.00    +0.015 C 
ATOM     14  C   UNL     1      36.296 -21.553 -18.013  0.00  0.00    +0.006 C 
ATOM     15  C   UNL     1      34.122 -22.547 -17.668  0.00  0.00    +0.006 C 
ATOM     16  C   UNL     1      34.975 -21.742 -18.422  0.00  0.00    +0.054 C 
BRANCH  11  17
ATOM     17  N   UNL     1      36.372 -23.589 -14.931  0.00  0.00    -0.312 N 
ATOM     18  N   UNL     1      37.232 -25.045 -12.636  0.00  0.00    +0.389 N 
ATOM     19  C   UNL     1      36.295 -23.926 -12.489  0.00  0.00    -0.042 C 
ATOM     20  C   UNL     1      38.164 -24.796 -13.741  0.00  0.00    -0.042 C 
ATOM     21  C   UNL     1      35.479 -23.725 -13.775  0.00  0.00    +0.069 C 
ATOM     22  C   UNL     1      37.405 -24.625 -15.064  0.00  0.00    +0.069 C 
ATOM     23  C   UNL     1      39.150 -25.959 -13.833  0.00  0.00    -0.022 C 
ATOM     24  C   UNL     1      35.369 -24.200 -11.305  0.00  0.00    -0.022 C 
ATOM     25  H   UNL     1      36.706 -25.898 -12.828  0.00  0.00    -0.084 HD
ATOM     26  H   UNL     1      37.763 -25.144 -11.772  0.00  0.00    -0.084 HD
ENDBRANCH  11  17
ENDBRANCH   5  16
BRANCH   6  27
ATOM     27  C   UNL     1      33.498 -18.266 -24.454  0.00  0.00    +0.047 C 
BRANCH  27  28
ATOM     28  C   UNL     1      34.242 -17.368 -25.474  0.00  0.00    +0.033 C 
BRANCH  28  29
ATOM     29  C   UNL     1      33.797 -15.926 -25.423  0.00  0.00    -0.016 C 
ATOM     30  C   UNL     1      33.825 -15.229 -24.215  0.00  0.00    +0.033 C 
ATOM     31  C   UNL     1      33.360 -15.290 -26.584  0.00  0.00    +0.033 C 
ATOM     32  C   UNL     1      32.949 -13.958 -26.539  0.00  0.00    +0.141 C 
ATOM     33  C   UNL     1      33.415 -13.897 -24.168  0.00  0.00    +0.141 C 
ATOM     34  C   UNL     1      32.977 -13.261 -25.330  0.00  0.00    +0.074 C 
BRANCH  32  35
ATOM     35  O   UNL     1      32.522 -13.336 -27.672  0.00  0.00    -0.471 OA
ATOM     36  C   UNL     1      31.925 -12.050 -27.519  0.00  0.00    +0.252 C 
ENDBRANCH  32  35
BRANCH  33  37
ATOM     37  O   UNL     1      33.443 -13.216 -22.990  0.00  0.00    -0.471 OA
ATOM     38  C   UNL     1      32.219 -12.629 -22.551  0.00  0.00    +0.252 C 
ENDBRANCH  33  37
ENDBRANCH  28  29
ENDBRANCH  27  28
ENDBRANCH   6  27
TORSDOF 7
ENDMDL
MODEL 3
REMARK VINA RESULT:     -12.3      3.119     13.299
REMARK  Name = 51039095
REMARK  7 active torsions:
REMARK  status: ('A' for Active; 'I' for Inactive)
REMARK    1  A    between atoms: C_5  and  C_16
REMARK    2  A    between atoms: C_6  and  C_27
REMARK    3  A    between atoms: C_11  and  N_17
REMARK    4  A    between atoms: C_27  and  C_28
REMARK    5  A    between atoms: C_28  and  C_29
REMARK    6  A    between atoms: C_32  and  O_35
REMARK    7  A    between atoms: C_33  and  O_37
REMARK                            x       y       z     vdW  Elec       q    Type
REMARK                         _______ _______ _______ _____ _____    ______ ____
ROOT
ATOM      1  O   UNL     1      36.774 -19.036 -20.485  0.00  0.00    -0.270 OA
ATOM      2  N   UNL     1      34.770 -20.231 -20.237  0.00  0.00    -0.265 N 
ATOM      3  N   UNL     1      34.872 -22.638 -17.737  0.00  0.00    -0.239 N 
ATOM      4  N   UNL     1      34.185 -22.011 -18.707  0.00  0.00    -0.166 NA
ATOM      5  C   UNL     1      35.601 -19.264 -20.820  0.00  0.00    +0.251 C 
ATOM      6  C   UNL     1      36.149 -22.182 -17.582  0.00  0.00    +0.046 C 
ATOM      7  C   UNL     1      35.067 -21.127 -19.180  0.00  0.00    +0.153 C 
ATOM      8  C   UNL     1      36.308 -21.189 -18.518  0.00  0.00    +0.048 C 
ATOM      9  H   UNL     1      33.862 -20.297 -20.610  0.00  0.00    +0.157 HD
ATOM     10  H   UNL     1      34.489 -23.359 -17.187  0.00  0.00    +0.174 HD
ENDROOT
BRANCH   5  16
ATOM     11  C   UNL     1      33.904 -17.055 -24.023  0.00  0.00    +0.048 C 
ATOM     12  C   UNL     1      33.836 -18.448 -24.023  0.00  0.00    +0.015 C 
ATOM     13  C   UNL     1      34.529 -16.387 -22.969  0.00  0.00    +0.015 C 
ATOM     14  C   UNL     1      34.393 -19.174 -22.971  0.00  0.00    +0.006 C 
ATOM     15  C   UNL     1      35.086 -17.114 -21.917  0.00  0.00    +0.006 C 
ATOM     16  C   UNL     1      35.018 -18.506 -21.917  0.00  0.00    +0.054 C 
BRANCH  11  17
ATOM     17  N   UNL     1      33.345 -16.326 -25.078  0.00  0.00    -0.312 N 
ATOM     18  N   UNL     1      32.048 -14.760 -27.075  0.00  0.00    +0.389 N 
ATOM     19  C   UNL     1      32.135 -16.216 -27.224  0.00  0.00    -0.042 C 
ATOM     20  C   UNL     1      33.235 -14.239 -26.389  0.00  0.00    -0.042 C 
ATOM     21  C   UNL     1      32.238 -16.899 -25.852  0.00  0.00    +0.069 C 
ATOM     22  C   UNL     1      33.370 -14.859 -24.991  0.00  0.00    +0.069 C 
ATOM     23  C   UNL     1      33.131 -12.718 -26.295  0.00  0.00    -0.022 C 
ATOM     24  C   UNL     1      30.904 -16.716 -27.980  0.00  0.00    -0.022 C 
ATOM     25  H   UNL     1      31.218 -14.527 -26.530  0.00  0.00    -0.084 HD
ATOM     26  H   UNL     1      31.992 -14.338 -28.002  0.00  0.00    -0.084 HD
ENDBRANCH  11  17
ENDBRANCH   5  16
BRANCH   6  27
ATOM     27  C   UNL     1      37.064 -22.738 -16.573  0.00  0.00    +0.047 C 
BRANCH  27  28
ATOM     28  C   UNL     1      36.575 -22.600 -15.109  0.00  0.00    +0.033 C 
BRANCH  28  29
ATOM     29  C   UNL     1      36.869 -23.822 -14.272  0.00  0.00    -0.016 C 
ATOM     30  C   UNL     1      36.152 -24.053 -13.099  0.00  0.00    +0.033 C 
ATOM     31  C   UNL     1      37.857 -24.720 -14.675  0.00  0.00    +0.033 C 
ATOM     32  C   UNL     1      38.129 -25.850 -13.904  0.00  0.00    +0.141 C 
ATOM     33  C   UNL     1      36.423 -25.183 -12.327  0.00  0.00    +0.141 C 
ATOM     34  C   UNL     1      37.412 -26.082 -12.729  0.00  0.00    +0.074 C 
BRANCH  32  35
ATOM     35  O   UNL     1      39.092 -26.728 -14.296  0.00  0.00    -0.471 OA
ATOM     36  C   UNL     1      40.268 -26.177 -14.889  0.00  0.00    +0.252 C 
ENDBRANCH  32  35
BRANCH  33  37
ATOM     37  O   UNL     1      35.723 -25.410 -11.182  0.00  0.00    -0.471 OA
ATOM     38  C   UNL     1      35.343 -24.267 -10.417  0.00  0.00    +0.252 C 
ENDBRANCH  33  37
ENDBRANCH  28  29
ENDBRANCH  27  28
ENDBRANCH   6  27
TORSDOF 7
ENDMDL
MODEL 4
REMARK VINA RESULT:     -12.3      3.138     13.229
REMARK  Name = 51039095
REMARK  7 active torsions:
REMARK  status: ('A' for Active; 'I' for Inactive)
REMARK    1  A    between atoms: C_5  and  C_16
REMARK    2  A    between atoms: C_6  and  C_27
REMARK    3  A    between atoms: C_11  and  N_17
REMARK    4  A    between atoms: C_27  and  C_28
REMARK    5  A    between atoms: C_28  and  C_29
REMARK    6  A    between atoms: C_32  and  O_35
REMARK    7  A    between atoms: C_33  and  O_37
REMARK                            x       y       z     vdW  Elec       q    Type
REMARK                         _______ _______ _______ _____ _____    ______ ____
ROOT
ATOM      1  O   UNL     1      36.746 -19.073 -20.397  0.00  0.00    -0.270 OA
ATOM      2  N   UNL     1      34.752 -20.290 -20.179  0.00  0.00    -0.265 N 
ATOM      3  N   UNL     1      34.840 -22.692 -17.673  0.00  0.00    -0.239 N 
ATOM      4  N   UNL     1      34.162 -22.075 -18.656  0.00  0.00    -0.166 NA
ATOM      5  C   UNL     1      35.581 -19.315 -20.750  0.00  0.00    +0.251 C 
ATOM      6  C   UNL     1      36.109 -22.222 -17.499  0.00  0.00    +0.046 C 
ATOM      7  C   UNL     1      35.042 -21.182 -19.116  0.00  0.00    +0.153 C 
ATOM      8  C   UNL     1      36.272 -21.228 -18.434  0.00  0.00    +0.048 C 
ATOM      9  H   UNL     1      33.851 -20.367 -20.567  0.00  0.00    +0.157 HD
ATOM     10  H   UNL     1      34.456 -23.416 -17.129  0.00  0.00    +0.174 HD
ENDROOT
BRANCH   5  16
ATOM     11  C   UNL     1      33.912 -17.130 -23.984  0.00  0.00    +0.048 C 
ATOM     12  C   UNL     1      33.786 -18.519 -23.941  0.00  0.00    +0.015 C 
ATOM     13  C   UNL     1      34.586 -16.459 -22.964  0.00  0.00    +0.015 C 
ATOM     14  C   UNL     1      34.334 -19.236 -22.879  0.00  0.00    +0.006 C 
ATOM     15  C   UNL     1      35.134 -17.177 -21.901  0.00  0.00    +0.006 C 
ATOM     16  C   UNL     1      35.008 -18.565 -21.858  0.00  0.00    +0.054 C 
BRANCH  11  17
ATOM     17  N   UNL     1      33.362 -16.409 -25.050  0.00  0.00    -0.312 N 
ATOM     18  N   UNL     1      32.080 -14.862 -27.071  0.00  0.00    +0.389 N 
ATOM     19  C   UNL     1      32.196 -16.317 -27.221  0.00  0.00    -0.042 C 
ATOM     20  C   UNL     1      33.242 -14.322 -26.359  0.00  0.00    -0.042 C 
ATOM     21  C   UNL     1      32.283 -17.001 -25.848  0.00  0.00    +0.069 C 
ATOM     22  C   UNL     1      33.358 -14.942 -24.960  0.00  0.00    +0.069 C 
ATOM     23  C   UNL     1      33.107 -12.803 -26.264  0.00  0.00    -0.022 C 
ATOM     24  C   UNL     1      30.992 -16.838 -28.004  0.00  0.00    -0.022 C 
ATOM     25  H   UNL     1      31.233 -14.647 -26.544  0.00  0.00    -0.084 HD
ATOM     26  H   UNL     1      32.036 -14.440 -27.998  0.00  0.00    -0.084 HD
ENDBRANCH  11  17
ENDBRANCH   5  16
BRANCH   6  27
ATOM     27  C   UNL     1      37.013 -22.766 -16.474  0.00  0.00    +0.047 C 
BRANCH  27  28
ATOM     28  C   UNL     1      36.513 -22.604 -15.016  0.00  0.00    +0.033 C 
BRANCH  28  29
ATOM     29  C   UNL     1      36.843 -23.793 -14.146  0.00  0.00    -0.016 C 
ATOM     30  C   UNL     1      37.914 -24.623 -14.474  0.00  0.00    +0.033 C 
ATOM     31  C   UNL     1      36.077 -24.060 -13.012  0.00  0.00    +0.033 C 
ATOM     32  C   UNL     1      36.380 -25.157 -12.206  0.00  0.00    +0.141 C 
ATOM     33  C   UNL     1      38.219 -25.720 -13.669  0.00  0.00    +0.141 C 
ATOM     34  C   UNL     1      37.452 -25.988 -12.535  0.00  0.00    +0.074 C 
BRANCH  32  35
ATOM     35  O   UNL     1      35.633 -25.418 -11.098  0.00  0.00    -0.471 OA
ATOM     36  C   UNL     1      35.197 -24.296 -10.332  0.00  0.00    +0.252 C 
ENDBRANCH  32  35
BRANCH  33  37
ATOM     37  O   UNL     1      39.265 -26.530 -13.988  0.00  0.00    -0.471 OA
ATOM     38  C   UNL     1      40.166 -26.062 -14.992  0.00  0.00    +0.252 C 
ENDBRANCH  33  37
ENDBRANCH  28  29
ENDBRANCH  27  28
ENDBRANCH   6  27
TORSDOF 7
ENDMDL
MODEL 5
REMARK VINA RESULT:     -11.8      4.700     13.592
REMARK  Name = 51039095
REMARK  7 active torsions:
REMARK  status: ('A' for Active; 'I' for Inactive)
REMARK    1  A    between atoms: C_5  and  C_16
REMARK    2  A    between atoms: C_6  and  C_27
REMARK    3  A    between atoms: C_11  and  N_17
REMARK    4  A    between atoms: C_27  and  C_28
REMARK    5  A    between atoms: C_28  and  C_29
REMARK    6  A    between atoms: C_32  and  O_35
REMARK    7  A    between atoms: C_33  and  O_37
REMARK                            x       y       z     vdW  Elec       q    Type
REMARK                         _______ _______ _______ _____ _____    ______ ____
ROOT
ATOM      1  O   UNL     1      33.784 -14.242 -24.392  0.00  0.00    -0.270 OA
ATOM      2  N   UNL     1      34.035 -13.966 -22.076  0.00  0.00    -0.265 N 
ATOM      3  N   UNL     1      34.966 -16.866 -20.409  0.00  0.00    -0.239 N 
ATOM      4  N   UNL     1      34.655 -15.559 -20.365  0.00  0.00    -0.166 NA
ATOM      5  C   UNL     1      33.750 -13.528 -23.377  0.00  0.00    +0.251 C 
ATOM      6  C   UNL     1      34.924 -17.400 -21.664  0.00  0.00    +0.046 C 
ATOM      7  C   UNL     1      34.408 -15.262 -21.643  0.00  0.00    +0.153 C 
ATOM      8  C   UNL     1      34.560 -16.371 -22.498  0.00  0.00    +0.048 C 
ATOM      9  H   UNL     1      33.965 -13.283 -21.370  0.00  0.00    +0.157 HD
ATOM     10  H   UNL     1      35.203 -17.389 -19.610  0.00  0.00    +0.174 HD
ENDROOT
BRANCH   5  16
ATOM     11  C   UNL     1      32.620  -9.455 -23.756  0.00  0.00    +0.048 C 
ATOM     12  C   UNL     1      31.989 -10.269 -22.815  0.00  0.00    +0.015 C 
ATOM     13  C   UNL     1      33.624  -9.978 -24.571  0.00  0.00    +0.015 C 
ATOM     14  C   UNL     1      32.361 -11.608 -22.691  0.00  0.00    +0.006 C 
ATOM     15  C   UNL     1      33.995 -11.317 -24.446  0.00  0.00    +0.006 C 
ATOM     16  C   UNL     1      33.365 -12.132 -23.506  0.00  0.00    +0.054 C 
BRANCH  11  17
ATOM     17  N   UNL     1      32.249  -8.112 -23.882  0.00  0.00    -0.312 N 
ATOM     18  N   UNL     1      31.690  -5.321 -24.028  0.00  0.00    +0.389 N 
ATOM     19  C   UNL     1      30.775  -6.218 -23.315  0.00  0.00    -0.042 C 
ATOM     20  C   UNL     1      32.302  -6.009 -25.170  0.00  0.00    -0.042 C 
ATOM     21  C   UNL     1      31.521  -7.454 -22.791  0.00  0.00    +0.069 C 
ATOM     22  C   UNL     1      33.097  -7.236 -24.701  0.00  0.00    +0.069 C 
ATOM     23  C   UNL     1      33.211  -5.031 -25.913  0.00  0.00    -0.022 C 
ATOM     24  C   UNL     1      30.125  -5.455 -22.162  0.00  0.00    -0.022 C 
ATOM     25  H   UNL     1      32.424  -5.014 -23.389  0.00  0.00    -0.084 HD
ATOM     26  H   UNL     1      31.163  -4.518 -24.372  0.00  0.00    -0.084 HD
ENDBRANCH  11  17
ENDBRANCH   5  16
BRANCH   6  27
ATOM     27  C   UNL     1      35.231 -18.815 -21.925  0.00  0.00    +0.047 C 
BRANCH  27  28
ATOM     28  C   UNL     1      34.026 -19.778 -21.781  0.00  0.00    +0.033 C 
BRANCH  28  29
ATOM     29  C   UNL     1      34.104 -20.638 -20.542  0.00  0.00    -0.016 C 
ATOM     30  C   UNL     1      35.343 -20.932 -19.973  0.00  0.00    +0.033 C 
ATOM     31  C   UNL     1      32.936 -21.137 -19.966  0.00  0.00    +0.033 C 
ATOM     32  C   UNL     1      33.006 -21.931 -18.822  0.00  0.00    +0.141 C 
ATOM     33  C   UNL     1      35.414 -21.725 -18.828  0.00  0.00    +0.141 C 
ATOM     34  C   UNL     1      34.246 -22.226 -18.253  0.00  0.00    +0.074 C 
BRANCH  32  35
ATOM     35  O   UNL     1      31.867 -22.419 -18.259  0.00  0.00    -0.471 OA
ATOM     36  C   UNL     1      31.992 -23.042 -16.981  0.00  0.00    +0.252 C 
ENDBRANCH  32  35
BRANCH  33  37
ATOM     37  O   UNL     1      36.623 -22.011 -18.272  0.00  0.00    -0.471 OA
ATOM     38  C   UNL     1      36.695 -22.026 -16.847  0.00  0.00    +0.252 C 
ENDBRANCH  33  37
ENDBRANCH  28  29
ENDBRANCH  27  28
ENDBRANCH   6  27
TORSDOF 7
ENDMDL
MODEL 6
REMARK VINA RESULT:     -11.8      4.690     13.587
REMARK  Name = 51039095
REMARK  7 active torsions:
REMARK  status: ('A' for Active; 'I' for Inactive)
REMARK    1  A    between atoms: C_5  and  C_16
REMARK    2  A    between atoms: C_6  and  C_27
REMARK    3  A    between atoms: C_11  and  N_17
REMARK    4  A    between atoms: C_27  and  C_28
REMARK    5  A    between atoms: C_28  and  C_29
REMARK    6  A    between atoms: C_32  and  O_35
REMARK    7  A    between atoms: C_33  and  O_37
REMARK                            x       y       z     vdW  Elec       q    Type
REMARK                         _______ _______ _______ _____ _____    ______ ____
ROOT
ATOM      1  O   UNL     1      33.811 -14.245 -24.385  0.00  0.00    -0.270 OA
ATOM      2  N   UNL     1      34.048 -13.942 -22.070  0.00  0.00    -0.265 N 
ATOM      3  N   UNL     1      34.983 -16.819 -20.366  0.00  0.00    -0.239 N 
ATOM      4  N   UNL     1      34.666 -15.513 -20.338  0.00  0.00    -0.166 NA
ATOM      5  C   UNL     1      33.769 -13.520 -23.378  0.00  0.00    +0.251 C 
ATOM      6  C   UNL     1      34.950 -17.367 -21.615  0.00  0.00    +0.046 C 
ATOM      7  C   UNL     1      34.425 -15.231 -21.621  0.00  0.00    +0.153 C 
ATOM      8  C   UNL     1      34.586 -16.349 -22.462  0.00  0.00    +0.048 C 
ATOM      9  H   UNL     1      33.972 -13.252 -21.372  0.00  0.00    +0.157 HD
ATOM     10  H   UNL     1      35.218 -17.331 -19.559  0.00  0.00    +0.174 HD
ENDROOT
BRANCH   5  16
ATOM     11  C   UNL     1      32.623  -9.457 -23.809  0.00  0.00    +0.048 C 
ATOM     12  C   UNL     1      31.968 -10.272 -22.886  0.00  0.00    +0.015 C 
ATOM     13  C   UNL     1      33.656  -9.976 -24.590  0.00  0.00    +0.015 C 
ATOM     14  C   UNL     1      32.345 -11.607 -22.744  0.00  0.00    +0.006 C 
ATOM     15  C   UNL     1      34.032 -11.312 -24.448  0.00  0.00    +0.006 C 
ATOM     16  C   UNL     1      33.377 -12.127 -23.525  0.00  0.00    +0.054 C 
BRANCH  11  17
ATOM     17  N   UNL     1      32.246  -8.117 -23.952  0.00  0.00    -0.312 N 
ATOM     18  N   UNL     1      31.676  -5.330 -24.133  0.00  0.00    +0.389 N 
ATOM     19  C   UNL     1      30.761  -6.223 -23.416  0.00  0.00    -0.042 C 
ATOM     20  C   UNL     1      32.298  -6.028 -25.263  0.00  0.00    -0.042 C 
ATOM     21  C   UNL     1      31.509  -7.450 -22.873  0.00  0.00    +0.069 C 
ATOM     22  C   UNL     1      33.096  -7.246 -24.776  0.00  0.00    +0.069 C 
ATOM     23  C   UNL     1      33.208  -5.055 -26.012  0.00  0.00    -0.022 C 
ATOM     24  C   UNL     1      30.100  -5.450 -22.275  0.00  0.00    -0.022 C 
ATOM     25  H   UNL     1      32.405  -5.013 -23.493  0.00  0.00    -0.084 HD
ATOM     26  H   UNL     1      31.148  -4.534 -24.489  0.00  0.00    -0.084 HD
ENDBRANCH  11  17
ENDBRANCH   5  16
BRANCH   6  27
ATOM     27  C   UNL     1      35.265 -18.784 -21.858  0.00  0.00    +0.047 C 
BRANCH  27  28
ATOM     28  C   UNL     1      34.055 -19.745 -21.747  0.00  0.00    +0.033 C 
BRANCH  28  29
ATOM     29  C   UNL     1      34.108 -20.619 -20.516  0.00  0.00    -0.016 C 
ATOM     30  C   UNL     1      32.928 -21.100 -19.949  0.00  0.00    +0.033 C 
ATOM     31  C   UNL     1      35.339 -20.946 -19.947  0.00  0.00    +0.033 C 
ATOM     32  C   UNL     1      35.390 -21.754 -18.811  0.00  0.00    +0.141 C 
ATOM     33  C   UNL     1      32.978 -21.908 -18.814  0.00  0.00    +0.141 C 
ATOM     34  C   UNL     1      34.209 -22.234 -18.244  0.00  0.00    +0.074 C 
BRANCH  32  35
ATOM     35  O   UNL     1      36.590 -22.074 -18.255  0.00  0.00    -0.471 OA
ATOM     36  C   UNL     1      36.659 -22.096 -16.830  0.00  0.00    +0.252 C 
ENDBRANCH  32  35
BRANCH  33  37
ATOM     37  O   UNL     1      31.827 -22.378 -18.261  0.00  0.00    -0.471 OA
ATOM     38  C   UNL     1      31.934 -23.030 -16.996  0.00  0.00    +0.252 C 
ENDBRANCH  33  37
ENDBRANCH  28  29
ENDBRANCH  27  28
ENDBRANCH   6  27
TORSDOF 7
ENDMDL
MODEL 7
REMARK VINA RESULT:     -11.6      3.242     12.728
REMARK  Name = 51039095
REMARK  7 active torsions:
REMARK  status: ('A' for Active; 'I' for Inactive)
REMARK    1  A    between atoms: C_5  and  C_16
REMARK    2  A    between atoms: C_6  and  C_27
REMARK    3  A    between atoms: C_11  and  N_17
REMARK    4  A    between atoms: C_27  and  C_28
REMARK    5  A    between atoms: C_28  and  C_29
REMARK    6  A    between atoms: C_32  and  O_35
REMARK    7  A    between atoms: C_33  and  O_37
REMARK                            x       y       z     vdW  Elec       q    Type
REMARK                         _______ _______ _______ _____ _____    ______ ____
ROOT
ATOM      1  O   UNL     1      35.795 -18.418 -21.140  0.00  0.00    -0.270 OA
ATOM      2  N   UNL     1      33.495 -18.872 -21.250  0.00  0.00    -0.265 N 
ATOM      3  N   UNL     1      32.566 -21.807 -19.644  0.00  0.00    -0.239 N 
ATOM      4  N   UNL     1      32.217 -20.720 -20.354  0.00  0.00    -0.166 NA
ATOM      5  C   UNL     1      34.648 -18.118 -21.510  0.00  0.00    +0.251 C 
ATOM      6  C   UNL     1      33.901 -21.884 -19.374  0.00  0.00    +0.046 C 
ATOM      7  C   UNL     1      33.381 -20.091 -20.537  0.00  0.00    +0.153 C 
ATOM      8  C   UNL     1      34.465 -20.771 -19.949  0.00  0.00    +0.048 C 
ATOM      9  H   UNL     1      32.655 -18.507 -21.609  0.00  0.00    +0.157 HD
ATOM     10  H   UNL     1      31.917 -22.483 -19.345  0.00  0.00    +0.174 HD
ENDROOT
BRANCH   5  16
ATOM     11  C   UNL     1      34.081 -14.601 -23.817  0.00  0.00    +0.048 C 
ATOM     12  C   UNL     1      34.044 -15.852 -24.432  0.00  0.00    +0.015 C 
ATOM     13  C   UNL     1      34.303 -14.505 -22.443  0.00  0.00    +0.015 C 
ATOM     14  C   UNL     1      34.231 -17.008 -23.674  0.00  0.00    +0.006 C 
ATOM     15  C   UNL     1      34.489 -15.662 -21.685  0.00  0.00    +0.006 C 
ATOM     16  C   UNL     1      34.453 -16.913 -22.300  0.00  0.00    +0.054 C 
BRANCH  11  17
ATOM     17  N   UNL     1      33.894 -13.441 -24.576  0.00  0.00    -0.312 N 
ATOM     18  N   UNL     1      33.333 -11.027 -25.984  0.00  0.00    +0.389 N 
ATOM     19  C   UNL     1      33.281 -12.315 -26.683  0.00  0.00    -0.042 C 
ATOM     20  C   UNL     1      34.364 -11.046 -24.940  0.00  0.00    -0.042 C 
ATOM     21  C   UNL     1      32.956 -13.453 -25.704  0.00  0.00    +0.069 C 
ATOM     22  C   UNL     1      34.070 -12.144 -23.908  0.00  0.00    +0.069 C 
ATOM     23  C   UNL     1      34.419  -9.676 -24.267  0.00  0.00    -0.022 C 
ATOM     24  C   UNL     1      32.229 -12.242 -27.788  0.00  0.00    -0.022 C 
ATOM     25  H   UNL     1      32.426 -10.842 -25.555  0.00  0.00    -0.084 HD
ATOM     26  H   UNL     1      33.561 -10.296 -26.658  0.00  0.00    -0.084 HD
ENDBRANCH  11  17
ENDBRANCH   5  16
BRANCH   6  27
ATOM     27  C   UNL     1      34.484 -22.998 -18.609  0.00  0.00    +0.047 C 
BRANCH  27  28
ATOM     28  C   UNL     1      34.863 -22.651 -17.147  0.00  0.00    +0.033 C 
BRANCH  28  29
ATOM     29  C   UNL     1      33.881 -23.199 -16.139  0.00  0.00    -0.016 C 
ATOM     30  C   UNL     1      32.540 -23.363 -16.487  0.00  0.00    +0.033 C 
ATOM     31  C   UNL     1      34.316 -23.544 -14.860  0.00  0.00    +0.033 C 
ATOM     32  C   UNL     1      33.411 -24.051 -13.927  0.00  0.00    +0.141 C 
ATOM     33  C   UNL     1      31.635 -23.870 -15.556  0.00  0.00    +0.141 C 
ATOM     34  C   UNL     1      32.070 -24.214 -14.276  0.00  0.00    +0.074 C 
BRANCH  32  35
ATOM     35  O   UNL     1      33.835 -24.388 -12.679  0.00  0.00    -0.471 OA
ATOM     36  C   UNL     1      35.243 -24.507 -12.483  0.00  0.00    +0.252 C 
ENDBRANCH  32  35
BRANCH  33  37
ATOM     37  O   UNL     1      30.327 -24.031 -15.895  0.00  0.00    -0.471 OA
ATOM     38  C   UNL     1      29.469 -24.615 -14.916  0.00  0.00    +0.252 C 
ENDBRANCH  33  37
ENDBRANCH  28  29
ENDBRANCH  27  28
ENDBRANCH   6  27
TORSDOF 7
ENDMDL
MODEL 8
REMARK VINA RESULT:     -11.5      3.095     12.932
REMARK  Name = 51039095
REMARK  7 active torsions:
REMARK  status: ('A' for Active; 'I' for Inactive)
REMARK    1  A    between atoms: C_5  and  C_16
REMARK    2  A    between atoms: C_6  and  C_27
REMARK    3  A    between atoms: C_11  and  N_17
REMARK    4  A    between atoms: C_27  and  C_28
REMARK    5  A    between atoms: C_28  and  C_29
REMARK    6  A    between atoms: C_32  and  O_35
REMARK    7  A    between atoms: C_33  and  O_37
REMARK                            x       y       z     vdW  Elec       q    Type
REMARK                         _______ _______ _______ _____ _____    ______ ____
ROOT
ATOM      1  O   UNL     1      35.805 -18.325 -20.687  0.00  0.00    -0.270 OA
ATOM      2  N   UNL     1      33.607 -19.026 -21.113  0.00  0.00    -0.265 N 
ATOM      3  N   UNL     1      32.771 -22.031 -19.587  0.00  0.00    -0.239 N 
ATOM      4  N   UNL     1      32.416 -20.993 -20.365  0.00  0.00    -0.166 NA
ATOM      5  C   UNL     1      34.699 -18.154 -21.223  0.00  0.00    +0.251 C 
ATOM      6  C   UNL     1      34.054 -21.961 -19.128  0.00  0.00    +0.046 C 
ATOM      7  C   UNL     1      33.520 -20.244 -20.395  0.00  0.00    +0.153 C 
ATOM      8  C   UNL     1      34.574 -20.798 -19.643  0.00  0.00    +0.048 C 
ATOM      9  H   UNL     1      32.793 -18.757 -21.597  0.00  0.00    +0.157 HD
ATOM     10  H   UNL     1      32.161 -22.771 -19.368  0.00  0.00    +0.174 HD
ENDROOT
BRANCH   5  16
ATOM     11  C   UNL     1      34.094 -14.736 -23.665  0.00  0.00    +0.048 C 
ATOM     12  C   UNL     1      34.355 -14.583 -22.304  0.00  0.00    +0.015 C 
ATOM     13  C   UNL     1      34.033 -16.012 -24.226  0.00  0.00    +0.015 C 
ATOM     14  C   UNL     1      34.554 -15.706 -21.502  0.00  0.00    +0.006 C 
ATOM     15  C   UNL     1      34.233 -17.135 -23.422  0.00  0.00    +0.006 C 
ATOM     16  C   UNL     1      34.493 -16.983 -22.061  0.00  0.00    +0.054 C 
BRANCH  11  17
ATOM     17  N   UNL     1      33.895 -13.610 -24.472  0.00  0.00    -0.312 N 
ATOM     18  N   UNL     1      33.302 -11.267 -25.983  0.00  0.00    +0.389 N 
ATOM     19  C   UNL     1      33.320 -12.580 -26.638  0.00  0.00    -0.042 C 
ATOM     20  C   UNL     1      34.294 -11.214 -24.904  0.00  0.00    -0.042 C 
ATOM     21  C   UNL     1      33.000 -13.695 -25.631  0.00  0.00    +0.069 C 
ATOM     22  C   UNL     1      34.001 -12.285 -23.844  0.00  0.00    +0.069 C 
ATOM     23  C   UNL     1      34.277  -9.820 -24.279  0.00  0.00    -0.022 C 
ATOM     24  C   UNL     1      32.307 -12.583 -27.781  0.00  0.00    -0.022 C 
ATOM     25  H   UNL     1      32.374 -11.100 -25.594  0.00  0.00    -0.084 HD
ATOM     26  H   UNL     1      33.529 -10.553 -26.674  0.00  0.00    -0.084 HD
ENDBRANCH  11  17
ENDBRANCH   5  16
BRANCH   6  27
ATOM     27  C   UNL     1      34.634 -22.999 -18.261  0.00  0.00    +0.047 C 
BRANCH  27  28
ATOM     28  C   UNL     1      35.525 -22.461 -17.113  0.00  0.00    +0.033 C 
BRANCH  28  29
ATOM     29  C   UNL     1      35.204 -23.087 -15.777  0.00  0.00    -0.016 C 
ATOM     30  C   UNL     1      36.236 -23.457 -14.914  0.00  0.00    +0.033 C 
ATOM     31  C   UNL     1      33.876 -23.293 -15.406  0.00  0.00    +0.033 C 
ATOM     32  C   UNL     1      33.578 -23.871 -14.171  0.00  0.00    +0.141 C 
ATOM     33  C   UNL     1      35.938 -24.033 -13.679  0.00  0.00    +0.141 C 
ATOM     34  C   UNL     1      34.610 -24.241 -13.308  0.00  0.00    +0.074 C 
BRANCH  32  35
ATOM     35  O   UNL     1      32.282 -24.072 -13.808  0.00  0.00    -0.471 OA
ATOM     36  C   UNL     1      31.316 -23.154 -14.318  0.00  0.00    +0.252 C 
ENDBRANCH  32  35
BRANCH  33  37
ATOM     37  O   UNL     1      36.944 -24.394 -12.836  0.00  0.00    -0.471 OA
ATOM     38  C   UNL     1      37.518 -25.686 -13.025  0.00  0.00    +0.252 C 
ENDBRANCH  33  37
ENDBRANCH  28  29
ENDBRANCH  27  28
ENDBRANCH   6  27
TORSDOF 7
ENDMDL
MODEL 9
REMARK VINA RESULT:     -11.5      1.699      3.367
REMARK  Name = 51039095
REMARK  7 active torsions:
REMARK  status: ('A' for Active; 'I' for Inactive)
REMARK    1  A    between atoms: C_5  and  C_16
REMARK    2  A    between atoms: C_6  and  C_27
REMARK    3  A    between atoms: C_11  and  N_17
REMARK    4  A    between atoms: C_27  and  C_28
REMARK    5  A    between atoms: C_28  and  C_29
REMARK    6  A    between atoms: C_32  and  O_35
REMARK    7  A    between atoms: C_33  and  O_37
REMARK                            x       y       z     vdW  Elec       q    Type
REMARK                         _______ _______ _______ _____ _____    ______ ____
ROOT
ATOM      1  O   UNL     1      36.313 -19.172 -21.269  0.00  0.00    -0.270 OA
ATOM      2  N   UNL     1      34.145 -19.843 -21.865  0.00  0.00    -0.265 N 
ATOM      3  N   UNL     1      32.954 -18.336 -24.758  0.00  0.00    -0.239 N 
ATOM      4  N   UNL     1      32.758 -19.185 -23.734  0.00  0.00    -0.166 NA
ATOM      5  C   UNL     1      35.293 -19.847 -21.059  0.00  0.00    +0.251 C 
ATOM      6  C   UNL     1      34.175 -17.726 -24.741  0.00  0.00    +0.046 C 
ATOM      7  C   UNL     1      33.901 -19.103 -23.048  0.00  0.00    +0.153 C 
ATOM      8  C   UNL     1      34.820 -18.209 -23.629  0.00  0.00    +0.048 C 
ATOM      9  H   UNL     1      33.414 -20.431 -21.570  0.00  0.00    +0.157 HD
ATOM     10  H   UNL     1      32.280 -18.171 -25.455  0.00  0.00    +0.174 HD
ENDROOT
BRANCH   5  16
ATOM     11  C   UNL     1      35.135 -22.333 -17.623  0.00  0.00    +0.048 C 
ATOM     12  C   UNL     1      36.313 -21.657 -17.942  0.00  0.00    +0.015 C 
ATOM     13  C   UNL     1      34.008 -22.192 -18.433  0.00  0.00    +0.015 C 
ATOM     14  C   UNL     1      36.364 -20.840 -19.070  0.00  0.00    +0.006 C 
ATOM     15  C   UNL     1      34.060 -21.374 -19.563  0.00  0.00    +0.006 C 
ATOM     16  C   UNL     1      35.237 -20.698 -19.881  0.00  0.00    +0.054 C 
BRANCH  11  17
ATOM     17  N   UNL     1      35.081 -23.153 -16.491  0.00  0.00    -0.312 N 
ATOM     18  N   UNL     1      34.933 -24.630 -14.058  0.00  0.00    +0.389 N 
ATOM     19  C   UNL     1      36.163 -24.650 -14.857  0.00  0.00    -0.042 C 
ATOM     20  C   UNL     1      33.755 -24.523 -14.925  0.00  0.00    -0.042 C 
ATOM     21  C   UNL     1      36.292 -23.367 -15.690  0.00  0.00    +0.069 C 
ATOM     22  C   UNL     1      33.810 -23.234 -15.758  0.00  0.00    +0.069 C 
ATOM     23  C   UNL     1      32.495 -24.551 -14.062  0.00  0.00    -0.022 C 
ATOM     24  C   UNL     1      37.363 -24.807 -13.924  0.00  0.00    -0.022 C 
ATOM     25  H   UNL     1      34.957 -23.830 -13.426  0.00  0.00    -0.084 HD
ATOM     26  H   UNL     1      34.872 -25.499 -13.527  0.00  0.00    -0.084 HD
ENDBRANCH  11  17
ENDBRANCH   5  16
BRANCH   6  27
ATOM     27  C   UNL     1      34.584 -16.762 -25.775  0.00  0.00    +0.047 C 
BRANCH  27  28
ATOM     28  C   UNL     1      33.440 -15.866 -26.314  0.00  0.00    +0.033 C 
BRANCH  28  29
ATOM     29  C   UNL     1      33.297 -14.571 -25.550  0.00  0.00    -0.016 C 
ATOM     30  C   UNL     1      33.388 -14.568 -24.158  0.00  0.00    +0.033 C 
ATOM     31  C   UNL     1      33.076 -13.378 -26.237  0.00  0.00    +0.033 C 
ATOM     32  C   UNL     1      32.944 -12.181 -25.533  0.00  0.00    +0.141 C 
ATOM     33  C   UNL     1      33.258 -13.372 -23.454  0.00  0.00    +0.141 C 
ATOM     34  C   UNL     1      33.035 -12.178 -24.141  0.00  0.00    +0.074 C 
BRANCH  32  35
ATOM     35  O   UNL     1      32.728 -11.016 -26.203  0.00  0.00    -0.471 OA
ATOM     36  C   UNL     1      32.775  -9.812 -25.439  0.00  0.00    +0.252 C 
ENDBRANCH  32  35
BRANCH  33  37
ATOM     37  O   UNL     1      33.347 -13.368 -22.096  0.00  0.00    -0.471 OA
ATOM     38  C   UNL     1      34.102 -14.418 -21.492  0.00  0.00    +0.252 C 
ENDBRANCH  33  37
ENDBRANCH  28  29
ENDBRANCH  27  28
ENDBRANCH   6  27
TORSDOF 7
ENDMDL
