MODEL 1
REMARK VINA RESULT:     -12.6      0.000      0.000
REMARK  Name = 11634458
REMARK  5 active torsions:
REMARK  status: ('A' for Active; 'I' for Inactive)
REMARK    1  A    between atoms: N_3  and  C_11
REMARK    2  A    between atoms: C_4  and  C_19
REMARK    3  A    between atoms: C_5  and  O_35
REMARK    4  A    between atoms: N_18  and  C_22
REMARK    5  A    between atoms: C_25  and  N_29
REMARK                            x       y       z     vdW  Elec       q    Type
REMARK                         _______ _______ _______ _____ _____    ______ ____
ROOT
ATOM      1  O   UNL     1      31.885 -23.685 -13.074  0.00  0.00    -0.252 OA
ATOM      2  N   UNL     1      33.730 -24.110 -14.373  0.00  0.00    -0.255 N 
ATOM      3  N   UNL     1      31.675 -23.621 -15.394  0.00  0.00    -0.268 N 
ATOM      4  C   UNL     1      34.424 -24.430 -15.619  0.00  0.00    +0.156 C 
ATOM      5  C   UNL     1      35.991 -24.534 -13.793  0.00  0.00    +0.137 C 
ATOM      6  C   UNL     1      35.723 -25.108 -15.183  0.00  0.00    +0.061 C 
ATOM      7  C   UNL     1      34.600 -24.316 -13.217  0.00  0.00    +0.125 C 
ATOM      8  C   UNL     1      32.374 -23.795 -14.199  0.00  0.00    +0.308 C 
ATOM      9  H   UNL     1      32.197 -23.739 -16.221  0.00  0.00    +0.156 HD
ENDROOT
BRANCH   3  11
ATOM     10 CL   UNL     1      25.955 -22.251 -16.096  0.00  0.00    -0.082 Cl
ATOM     11  C   UNL     1      30.307 -23.293 -15.562  0.00  0.00    +0.052 C 
ATOM     12  C   UNL     1      29.753 -22.240 -14.839  0.00  0.00    +0.016 C 
ATOM     13  C   UNL     1      29.523 -24.027 -16.449  0.00  0.00    +0.016 C 
ATOM     14  C   UNL     1      28.406 -21.917 -15.004  0.00  0.00    +0.013 C 
ATOM     15  C   UNL     1      28.176 -23.704 -16.614  0.00  0.00    +0.013 C 
ATOM     16  C   UNL     1      27.618 -22.649 -15.892  0.00  0.00    +0.058 C 
ENDBRANCH   3  11
BRANCH   4  19
ATOM     17  O   UNL     1      35.288 -22.226 -15.800  0.00  0.00    -0.273 OA
ATOM     18  N   UNL     1      34.217 -23.205 -17.652  0.00  0.00    -0.281 N 
ATOM     19  C   UNL     1      34.703 -23.152 -16.353  0.00  0.00    +0.244 C 
ATOM     20  H   UNL     1      33.770 -24.041 -17.917  0.00  0.00    +0.155 HD
BRANCH  18  22
ATOM     21  F   UNL     1      31.931 -21.937 -18.588  0.00  0.00    -0.203 F 
ATOM     22  C   UNL     1      34.291 -22.195 -18.642  0.00  0.00    +0.078 C 
ATOM     23  C   UNL     1      33.128 -21.587 -19.081  0.00  0.00    +0.155 C 
ATOM     24  C   UNL     1      35.529 -21.838 -19.150  0.00  0.00    +0.018 C 
ATOM     25  C   UNL     1      34.443 -20.222 -20.579  0.00  0.00    +0.061 C 
ATOM     26  C   UNL     1      33.203 -20.594 -20.057  0.00  0.00    +0.046 C 
ATOM     27  C   UNL     1      35.605 -20.845 -20.126  0.00  0.00    +0.017 C 
BRANCH  25  29
ATOM     28  O   UNL     1      35.429 -17.536 -20.158  0.00  0.00    -0.269 OA
ATOM     29  N   UNL     1      34.521 -19.189 -21.595  0.00  0.00    -0.233 N 
ATOM     30  C   UNL     1      35.064 -17.919 -21.270  0.00  0.00    +0.257 C 
ATOM     31  C   UNL     1      34.046 -19.427 -22.886  0.00  0.00    +0.072 C 
ATOM     32  C   UNL     1      35.152 -16.928 -22.386  0.00  0.00    +0.059 C 
ATOM     33  C   UNL     1      34.105 -18.512 -23.858  0.00  0.00    +0.017 C 
ATOM     34  C   UNL     1      34.683 -17.227 -23.599  0.00  0.00    +0.006 C 
ENDBRANCH  25  29
ENDBRANCH  18  22
ENDBRANCH   4  19
BRANCH   5  35
ATOM     35  O   UNL     1      36.677 -23.293 -13.911  0.00  0.00    -0.352 OA
ATOM     36  C   UNL     1      37.158 -22.843 -12.652  0.00  0.00    +0.174 C 
ENDBRANCH   5  35
TORSDOF 5
ENDMDL
MODEL 2
REMARK VINA RESULT:     -11.7      2.010      2.842
REMARK  Name = 11634458
REMARK  5 active torsions:
REMARK  status: ('A' for Active; 'I' for Inactive)
REMARK    1  A    between atoms: N_3  and  C_11
REMARK    2  A    between atoms: C_4  and  C_19
REMARK    3  A    between atoms: C_5  and  O_35
REMARK    4  A    between atoms: N_18  and  C_22
REMARK    5  A    between atoms: C_25  and  N_29
REMARK                            x       y       z     vdW  Elec       q    Type
REMARK                         _______ _______ _______ _____ _____    ______ ____
ROOT
ATOM      1  O   UNL     1      33.183 -23.469 -12.093  0.00  0.00    -0.252 OA
ATOM      2  N   UNL     1      35.002 -24.646 -12.856  0.00  0.00    -0.255 N 
ATOM      3  N   UNL     1      33.027 -24.606 -14.122  0.00  0.00    -0.268 N 
ATOM      4  C   UNL     1      35.685 -25.619 -13.706  0.00  0.00    +0.156 C 
ATOM      5  C   UNL     1      37.197 -24.876 -11.986  0.00  0.00    +0.137 C 
ATOM      6  C   UNL     1      36.901 -26.067 -12.895  0.00  0.00    +0.061 C 
ATOM      7  C   UNL     1      35.824 -24.286 -11.703  0.00  0.00    +0.125 C 
ATOM      8  C   UNL     1      33.681 -24.185 -12.963  0.00  0.00    +0.308 C 
ATOM      9  H   UNL     1      33.550 -25.176 -14.730  0.00  0.00    +0.156 HD
ENDROOT
BRANCH   3  11
ATOM     10 CL   UNL     1      27.488 -23.376 -15.822  0.00  0.00    -0.082 Cl
ATOM     11  C   UNL     1      31.702 -24.312 -14.528  0.00  0.00    +0.052 C 
ATOM     12  C   UNL     1      30.675 -25.207 -14.243  0.00  0.00    +0.016 C 
ATOM     13  C   UNL     1      31.434 -23.128 -15.212  0.00  0.00    +0.016 C 
ATOM     14  C   UNL     1      29.370 -24.918 -14.644  0.00  0.00    +0.013 C 
ATOM     15  C   UNL     1      30.130 -22.839 -15.612  0.00  0.00    +0.013 C 
ATOM     16  C   UNL     1      29.098 -23.734 -15.328  0.00  0.00    +0.058 C 
ENDBRANCH   3  11
BRANCH   4  19
ATOM     17  O   UNL     1      37.151 -25.242 -15.536  0.00  0.00    -0.273 OA
ATOM     18  N   UNL     1      35.177 -23.974 -15.354  0.00  0.00    -0.281 N 
ATOM     19  C   UNL     1      36.105 -24.934 -14.973  0.00  0.00    +0.244 C 
ATOM     20  H   UNL     1      34.393 -23.868 -14.768  0.00  0.00    +0.155 HD
BRANCH  18  22
ATOM     21  F   UNL     1      37.320 -22.258 -15.775  0.00  0.00    -0.203 F 
ATOM     22  C   UNL     1      35.228 -23.128 -16.488  0.00  0.00    +0.078 C 
ATOM     23  C   UNL     1      36.314 -22.287 -16.661  0.00  0.00    +0.155 C 
ATOM     24  C   UNL     1      34.186 -23.160 -17.400  0.00  0.00    +0.018 C 
ATOM     25  C   UNL     1      35.320 -21.474 -18.707  0.00  0.00    +0.061 C 
ATOM     26  C   UNL     1      36.361 -21.454 -17.778  0.00  0.00    +0.046 C 
ATOM     27  C   UNL     1      34.233 -22.327 -18.518  0.00  0.00    +0.017 C 
BRANCH  25  29
ATOM     28  O   UNL     1      33.057 -20.774 -20.367  0.00  0.00    -0.269 OA
ATOM     29  N   UNL     1      35.369 -20.607 -19.869  0.00  0.00    -0.233 N 
ATOM     30  C   UNL     1      34.177 -20.308 -20.579  0.00  0.00    +0.257 C 
ATOM     31  C   UNL     1      36.584 -20.080 -20.310  0.00  0.00    +0.072 C 
ATOM     32  C   UNL     1      34.308 -19.369 -21.734  0.00  0.00    +0.059 C 
ATOM     33  C   UNL     1      36.680 -19.269 -21.368  0.00  0.00    +0.017 C 
ATOM     34  C   UNL     1      35.504 -18.898 -22.095  0.00  0.00    +0.006 C 
ENDBRANCH  25  29
ENDBRANCH  18  22
ENDBRANCH   4  19
BRANCH   5  35
ATOM     35  O   UNL     1      38.007 -23.933 -12.680  0.00  0.00    -0.352 OA
ATOM     36  C   UNL     1      37.669 -22.599 -12.329  0.00  0.00    +0.174 C 
ENDBRANCH   5  35
TORSDOF 5
ENDMDL
MODEL 3
REMARK VINA RESULT:     -11.3      6.917     12.994
REMARK  Name = 11634458
REMARK  5 active torsions:
REMARK  status: ('A' for Active; 'I' for Inactive)
REMARK    1  A    between atoms: N_3  and  C_11
REMARK    2  A    between atoms: C_4  and  C_19
REMARK    3  A    between atoms: C_5  and  O_35
REMARK    4  A    between atoms: N_18  and  C_22
REMARK    5  A    between atoms: C_25  and  N_29
REMARK                            x       y       z     vdW  Elec       q    Type
REMARK                         _______ _______ _______ _____ _____    ______ ____
ROOT
ATOM      1  O   UNL     1      31.442  -9.198 -24.838  0.00  0.00    -0.252 OA
ATOM      2  N   UNL     1      32.888 -10.922 -25.298  0.00  0.00    -0.255 N 
ATOM      3  N   UNL     1      32.934  -9.895 -23.189  0.00  0.00    -0.268 N 
ATOM      4  C   UNL     1      34.060 -11.763 -25.062  0.00  0.00    +0.156 C 
ATOM      5  C   UNL     1      33.123 -12.301 -27.213  0.00  0.00    +0.137 C 
ATOM      6  C   UNL     1      34.439 -12.306 -26.440  0.00  0.00    +0.061 C 
ATOM      7  C   UNL     1      32.379 -11.097 -26.657  0.00  0.00    +0.125 C 
ATOM      8  C   UNL     1      32.351  -9.936 -24.456  0.00  0.00    +0.308 C 
ATOM      9  H   UNL     1      33.652 -10.548 -23.022  0.00  0.00    +0.156 HD
ENDROOT
BRANCH   3  11
ATOM     10 CL   UNL     1      31.611  -6.275 -18.691  0.00  0.00    -0.082 Cl
ATOM     11  C   UNL     1      32.618  -9.030 -22.113  0.00  0.00    +0.052 C 
ATOM     12  C   UNL     1      33.167  -7.751 -22.068  0.00  0.00    +0.016 C 
ATOM     13  C   UNL     1      31.759  -9.462 -21.106  0.00  0.00    +0.016 C 
ATOM     14  C   UNL     1      32.856  -6.898 -21.009  0.00  0.00    +0.013 C 
ATOM     15  C   UNL     1      31.448  -8.609 -20.047  0.00  0.00    +0.013 C 
ATOM     16  C   UNL     1      31.996  -7.327 -19.998  0.00  0.00    +0.058 C 
ENDBRANCH   3  11
BRANCH   4  19
ATOM     17  O   UNL     1      32.667 -12.784 -23.433  0.00  0.00    -0.273 OA
ATOM     18  N   UNL     1      34.575 -13.925 -24.202  0.00  0.00    -0.281 N 
ATOM     19  C   UNL     1      33.670 -12.874 -24.133  0.00  0.00    +0.244 C 
ATOM     20  H   UNL     1      35.328 -13.812 -24.827  0.00  0.00    +0.155 HD
BRANCH  18  22
ATOM     21  F   UNL     1      34.486 -16.376 -25.504  0.00  0.00    -0.203 F 
ATOM     22  C   UNL     1      34.542 -15.140 -23.477  0.00  0.00    +0.078 C 
ATOM     23  C   UNL     1      34.499 -16.341 -24.164  0.00  0.00    +0.155 C 
ATOM     24  C   UNL     1      34.554 -15.099 -22.092  0.00  0.00    +0.018 C 
ATOM     25  C   UNL     1      34.476 -17.514 -22.052  0.00  0.00    +0.061 C 
ATOM     26  C   UNL     1      34.465 -17.536 -23.447  0.00  0.00    +0.046 C 
ATOM     27  C   UNL     1      34.520 -16.295 -21.375  0.00  0.00    +0.017 C 
BRANCH  25  29
ATOM     28  O   UNL     1      36.794 -18.972 -21.122  0.00  0.00    -0.269 OA
ATOM     29  N   UNL     1      34.440 -18.757 -21.306  0.00  0.00    -0.233 N 
ATOM     30  C   UNL     1      35.651 -19.355 -20.871  0.00  0.00    +0.257 C 
ATOM     31  C   UNL     1      33.223 -19.384 -21.031  0.00  0.00    +0.072 C 
ATOM     32  C   UNL     1      35.523 -20.610 -20.068  0.00  0.00    +0.059 C 
ATOM     33  C   UNL     1      33.137 -20.525 -20.339  0.00  0.00    +0.017 C 
ATOM     34  C   UNL     1      34.324 -21.150 -19.837  0.00  0.00    +0.006 C 
ENDBRANCH  25  29
ENDBRANCH  18  22
ENDBRANCH   4  19
BRANCH   5  35
ATOM     35  O   UNL     1      32.401 -13.497 -26.940  0.00  0.00    -0.352 OA
ATOM     36  C   UNL     1      32.900 -14.591 -27.698  0.00  0.00    +0.174 C 
ENDBRANCH   5  35
TORSDOF 5
ENDMDL
MODEL 4
REMARK VINA RESULT:     -11.0      6.093     12.529
REMARK  Name = 11634458
REMARK  5 active torsions:
REMARK  status: ('A' for Active; 'I' for Inactive)
REMARK    1  A    between atoms: N_3  and  C_11
REMARK    2  A    between atoms: C_4  and  C_19
REMARK    3  A    between atoms: C_5  and  O_35
REMARK    4  A    between atoms: N_18  and  C_22
REMARK    5  A    between atoms: C_25  and  N_29
REMARK                            x       y       z     vdW  Elec       q    Type
REMARK                         _______ _______ _______ _____ _____    ______ ____
ROOT
ATOM      1  O   UNL     1      31.617 -11.476 -26.345  0.00  0.00    -0.252 OA
ATOM      2  N   UNL     1      32.865 -13.400 -26.473  0.00  0.00    -0.255 N 
ATOM      3  N   UNL     1      33.344 -11.810 -24.815  0.00  0.00    -0.268 N 
ATOM      4  C   UNL     1      34.015 -14.252 -26.175  0.00  0.00    +0.156 C 
ATOM      5  C   UNL     1      32.679 -15.297 -27.884  0.00  0.00    +0.137 C 
ATOM      6  C   UNL     1      34.111 -15.212 -27.361  0.00  0.00    +0.061 C 
ATOM      7  C   UNL     1      32.112 -13.912 -27.615  0.00  0.00    +0.125 C 
ATOM      8  C   UNL     1      32.541 -12.160 -25.901  0.00  0.00    +0.308 C 
ATOM      9  H   UNL     1      34.045 -12.456 -24.570  0.00  0.00    +0.156 HD
ENDROOT
BRANCH   3  11
ATOM     10 CL   UNL     1      33.042  -6.911 -21.499  0.00  0.00    -0.082 Cl
ATOM     11  C   UNL     1      33.271 -10.638 -24.022  0.00  0.00    +0.052 C 
ATOM     12  C   UNL     1      34.171  -9.598 -24.240  0.00  0.00    +0.016 C 
ATOM     13  C   UNL     1      32.301 -10.533 -23.029  0.00  0.00    +0.016 C 
ATOM     14  C   UNL     1      34.100  -8.444 -23.459  0.00  0.00    +0.013 C 
ATOM     15  C   UNL     1      32.230  -9.379 -22.248  0.00  0.00    +0.013 C 
ATOM     16  C   UNL     1      33.130  -8.335 -22.463  0.00  0.00    +0.058 C 
ENDBRANCH   3  11
BRANCH   4  19
ATOM     17  O   UNL     1      33.033 -14.503 -24.028  0.00  0.00    -0.273 OA
ATOM     18  N   UNL     1      34.384 -16.225 -24.891  0.00  0.00    -0.281 N 
ATOM     19  C   UNL     1      33.742 -14.994 -24.901  0.00  0.00    +0.244 C 
ATOM     20  H   UNL     1      34.916 -16.446 -25.689  0.00  0.00    +0.155 HD
BRANCH  18  22
ATOM     21  F   UNL     1      33.318 -18.752 -25.327  0.00  0.00    -0.203 F 
ATOM     22  C   UNL     1      34.363 -17.200 -23.865  0.00  0.00    +0.078 C 
ATOM     23  C   UNL     1      33.823 -18.448 -24.123  0.00  0.00    +0.155 C 
ATOM     24  C   UNL     1      34.884 -16.881 -22.621  0.00  0.00    +0.018 C 
ATOM     25  C   UNL     1      34.324 -19.101 -21.852  0.00  0.00    +0.061 C 
ATOM     26  C   UNL     1      33.803 -19.406 -23.110  0.00  0.00    +0.046 C 
ATOM     27  C   UNL     1      34.864 -17.839 -21.608  0.00  0.00    +0.017 C 
BRANCH  25  29
ATOM     28  O   UNL     1      31.940 -20.197 -20.635  0.00  0.00    -0.269 OA
ATOM     29  N   UNL     1      34.303 -20.098 -20.797  0.00  0.00    -0.233 N 
ATOM     30  C   UNL     1      33.062 -20.586 -20.311  0.00  0.00    +0.257 C 
ATOM     31  C   UNL     1      35.495 -20.565 -20.240  0.00  0.00    +0.072 C 
ATOM     32  C   UNL     1      33.131 -21.645 -19.259  0.00  0.00    +0.059 C 
ATOM     33  C   UNL     1      35.528 -21.490 -19.276  0.00  0.00    +0.017 C 
ATOM     34  C   UNL     1      34.308 -22.050 -18.777  0.00  0.00    +0.006 C 
ENDBRANCH  25  29
ENDBRANCH  18  22
ENDBRANCH   4  19
BRANCH   5  35
ATOM     35  O   UNL     1      31.957 -16.279 -27.147  0.00  0.00    -0.352 OA
ATOM     36  C   UNL     1      30.562 -16.198 -27.401  0.00  0.00    +0.174 C 
ENDBRANCH   5  35
TORSDOF 5
ENDMDL
MODEL 5
REMARK VINA RESULT:     -11.0      6.102     12.528
REMARK  Name = 11634458
REMARK  5 active torsions:
REMARK  status: ('A' for Active; 'I' for Inactive)
REMARK    1  A    between atoms: N_3  and  C_11
REMARK    2  A    between atoms: C_4  and  C_19
REMARK    3  A    between atoms: C_5  and  O_35
REMARK    4  A    between atoms: N_18  and  C_22
REMARK    5  A    between atoms: C_25  and  N_29
REMARK                            x       y       z     vdW  Elec       q    Type
REMARK                         _______ _______ _______ _____ _____    ______ ____
ROOT
ATOM      1  O   UNL     1      31.414 -11.542 -26.325  0.00  0.00    -0.252 OA
ATOM      2  N   UNL     1      32.581 -13.511 -26.514  0.00  0.00    -0.255 N 
ATOM      3  N   UNL     1      33.257 -11.903 -24.944  0.00  0.00    -0.268 N 
ATOM      4  C   UNL     1      33.724 -14.396 -26.297  0.00  0.00    +0.156 C 
ATOM      5  C   UNL     1      32.209 -15.431 -27.856  0.00  0.00    +0.137 C 
ATOM      6  C   UNL     1      33.683 -15.385 -27.463  0.00  0.00    +0.061 C 
ATOM      7  C   UNL     1      31.713 -14.021 -27.573  0.00  0.00    +0.125 C 
ATOM      8  C   UNL     1      32.350 -12.249 -25.947  0.00  0.00    +0.308 C 
ATOM      9  H   UNL     1      33.956 -12.568 -24.746  0.00  0.00    +0.156 HD
ENDROOT
BRANCH   3  11
ATOM     10 CL   UNL     1      33.411  -6.926 -21.737  0.00  0.00    -0.082 Cl
ATOM     11  C   UNL     1      33.294 -10.713 -24.177  0.00  0.00    +0.052 C 
ATOM     12  C   UNL     1      32.345 -10.501 -23.181  0.00  0.00    +0.016 C 
ATOM     13  C   UNL     1      34.280  -9.760 -24.424  0.00  0.00    +0.016 C 
ATOM     14  C   UNL     1      32.381  -9.329 -22.425  0.00  0.00    +0.013 C 
ATOM     15  C   UNL     1      34.316  -8.589 -23.668  0.00  0.00    +0.013 C 
ATOM     16  C   UNL     1      33.366  -8.373 -22.669  0.00  0.00    +0.058 C 
ENDBRANCH   3  11
BRANCH   4  19
ATOM     17  O   UNL     1      32.893 -14.584 -24.081  0.00  0.00    -0.273 OA
ATOM     18  N   UNL     1      34.183 -16.332 -24.984  0.00  0.00    -0.281 N 
ATOM     19  C   UNL     1      33.541 -15.101 -24.986  0.00  0.00    +0.244 C 
ATOM     20  H   UNL     1      34.659 -16.576 -25.811  0.00  0.00    +0.155 HD
BRANCH  18  22
ATOM     21  F   UNL     1      35.181 -15.648 -22.485  0.00  0.00    -0.203 F 
ATOM     22  C   UNL     1      34.235 -17.276 -23.932  0.00  0.00    +0.078 C 
ATOM     23  C   UNL     1      34.739 -16.895 -22.700  0.00  0.00    +0.155 C 
ATOM     24  C   UNL     1      33.778 -18.564 -24.159  0.00  0.00    +0.018 C 
ATOM     25  C   UNL     1      34.334 -19.131 -21.877  0.00  0.00    +0.061 C 
ATOM     26  C   UNL     1      34.789 -17.829 -21.665  0.00  0.00    +0.046 C 
ATOM     27  C   UNL     1      33.828 -19.498 -23.124  0.00  0.00    +0.017 C 
BRANCH  25  29
ATOM     28  O   UNL     1      32.035 -20.314 -20.579  0.00  0.00    -0.269 OA
ATOM     29  N   UNL     1      34.386 -20.102 -20.801  0.00  0.00    -0.233 N 
ATOM     30  C   UNL     1      33.183 -20.638 -20.274  0.00  0.00    +0.257 C 
ATOM     31  C   UNL     1      35.612 -20.497 -20.262  0.00  0.00    +0.072 C 
ATOM     32  C   UNL     1      33.329 -21.668 -19.200  0.00  0.00    +0.059 C 
ATOM     33  C   UNL     1      35.714 -21.395 -19.277  0.00  0.00    +0.017 C 
ATOM     34  C   UNL     1      34.535 -22.003 -18.737  0.00  0.00    +0.006 C 
ENDBRANCH  25  29
ENDBRANCH  18  22
ENDBRANCH   4  19
BRANCH   5  35
ATOM     35  O   UNL     1      31.523 -16.370 -27.035  0.00  0.00    -0.352 OA
ATOM     36  C   UNL     1      31.846 -17.707 -27.391  0.00  0.00    +0.174 C 
ENDBRANCH   5  35
TORSDOF 5
ENDMDL
MODEL 6
REMARK VINA RESULT:     -10.2      4.962     11.160
REMARK  Name = 11634458
REMARK  5 active torsions:
REMARK  status: ('A' for Active; 'I' for Inactive)
REMARK    1  A    between atoms: N_3  and  C_11
REMARK    2  A    between atoms: C_4  and  C_19
REMARK    3  A    between atoms: C_5  and  O_35
REMARK    4  A    between atoms: N_18  and  C_22
REMARK    5  A    between atoms: C_25  and  N_29
REMARK                            x       y       z     vdW  Elec       q    Type
REMARK                         _______ _______ _______ _____ _____    ______ ____
ROOT
ATOM      1  O   UNL     1      31.771 -13.915 -25.791  0.00  0.00    -0.252 OA
ATOM      2  N   UNL     1      33.388 -15.523 -25.513  0.00  0.00    -0.255 N 
ATOM      3  N   UNL     1      33.397 -13.614 -24.147  0.00  0.00    -0.268 N 
ATOM      4  C   UNL     1      34.657 -16.049 -25.013  0.00  0.00    +0.156 C 
ATOM      5  C   UNL     1      33.706 -17.624 -26.566  0.00  0.00    +0.137 C 
ATOM      6  C   UNL     1      35.043 -17.150 -26.001  0.00  0.00    +0.061 C 
ATOM      7  C   UNL     1      32.851 -16.366 -26.578  0.00  0.00    +0.125 C 
ATOM      8  C   UNL     1      32.774 -14.303 -25.189  0.00  0.00    +0.308 C 
ATOM      9  H   UNL     1      34.191 -14.046 -23.758  0.00  0.00    +0.156 HD
ENDROOT
BRANCH   3  11
ATOM     10 CL   UNL     1      31.838  -8.411 -21.784  0.00  0.00    -0.082 Cl
ATOM     11  C   UNL     1      33.024 -12.370 -23.582  0.00  0.00    +0.052 C 
ATOM     12  C   UNL     1      32.179 -12.337 -22.476  0.00  0.00    +0.016 C 
ATOM     13  C   UNL     1      33.505 -11.186 -24.136  0.00  0.00    +0.016 C 
ATOM     14  C   UNL     1      31.812 -11.111 -21.919  0.00  0.00    +0.013 C 
ATOM     15  C   UNL     1      33.137  -9.961 -23.580  0.00  0.00    +0.013 C 
ATOM     16  C   UNL     1      32.291  -9.924 -22.471  0.00  0.00    +0.058 C 
ENDBRANCH   3  11
BRANCH   4  19
ATOM     17  O   UNL     1      33.961 -15.914 -22.747  0.00  0.00    -0.273 OA
ATOM     18  N   UNL     1      34.829 -17.939 -23.572  0.00  0.00    -0.281 N 
ATOM     19  C   UNL     1      34.434 -16.610 -23.640  0.00  0.00    +0.244 C 
ATOM     20  H   UNL     1      35.192 -18.329 -24.401  0.00  0.00    +0.155 HD
BRANCH  18  22
ATOM     21  F   UNL     1      37.112 -18.557 -22.116  0.00  0.00    -0.203 F 
ATOM     22  C   UNL     1      34.773 -18.799 -22.450  0.00  0.00    +0.078 C 
ATOM     23  C   UNL     1      35.933 -19.082 -21.750  0.00  0.00    +0.155 C 
ATOM     24  C   UNL     1      33.554 -19.340 -22.076  0.00  0.00    +0.018 C 
ATOM     25  C   UNL     1      34.655 -20.484 -20.255  0.00  0.00    +0.061 C 
ATOM     26  C   UNL     1      35.875 -19.930 -20.645  0.00  0.00    +0.046 C 
ATOM     27  C   UNL     1      33.495 -20.189 -20.971  0.00  0.00    +0.017 C 
BRANCH  25  29
ATOM     28  O   UNL     1      32.279 -21.838 -19.311  0.00  0.00    -0.269 OA
ATOM     29  N   UNL     1      34.594 -21.367 -19.106  0.00  0.00    -0.233 N 
ATOM     30  C   UNL     1      33.372 -22.004 -18.768  0.00  0.00    +0.257 C 
ATOM     31  C   UNL     1      35.724 -21.579 -18.314  0.00  0.00    +0.072 C 
ATOM     32  C   UNL     1      33.408 -22.935 -17.598  0.00  0.00    +0.059 C 
ATOM     33  C   UNL     1      35.722 -22.390 -17.252  0.00  0.00    +0.017 C 
ATOM     34  C   UNL     1      34.528 -23.094 -16.890  0.00  0.00    +0.006 C 
ENDBRANCH  25  29
ENDBRANCH  18  22
ENDBRANCH   4  19
BRANCH   5  35
ATOM     35  O   UNL     1      33.138 -18.600 -25.700  0.00  0.00    -0.352 OA
ATOM     36  C   UNL     1      31.729 -18.685 -25.863  0.00  0.00    +0.174 C 
ENDBRANCH   5  35
TORSDOF 5
ENDMDL
MODEL 7
REMARK VINA RESULT:     -10.0      9.065     14.931
REMARK  Name = 11634458
REMARK  5 active torsions:
REMARK  status: ('A' for Active; 'I' for Inactive)
REMARK    1  A    between atoms: N_3  and  C_11
REMARK    2  A    between atoms: C_4  and  C_19
REMARK    3  A    between atoms: C_5  and  O_35
REMARK    4  A    between atoms: N_18  and  C_22
REMARK    5  A    between atoms: C_25  and  N_29
REMARK                            x       y       z     vdW  Elec       q    Type
REMARK                         _______ _______ _______ _____ _____    ______ ____
ROOT
ATOM      1  O   UNL     1      33.078  -5.894 -23.423  0.00  0.00    -0.252 OA
ATOM      2  N   UNL     1      32.042  -7.818 -22.717  0.00  0.00    -0.255 N 
ATOM      3  N   UNL     1      32.767  -7.636 -24.941  0.00  0.00    -0.268 N 
ATOM      4  C   UNL     1      31.362  -9.098 -22.904  0.00  0.00    +0.156 C 
ATOM      5  C   UNL     1      31.255  -8.480 -20.579  0.00  0.00    +0.137 C 
ATOM      6  C   UNL     1      30.512  -9.280 -21.646  0.00  0.00    +0.061 C 
ATOM      7  C   UNL     1      31.865  -7.322 -21.354  0.00  0.00    +0.125 C 
ATOM      8  C   UNL     1      32.665  -7.024 -23.691  0.00  0.00    +0.308 C 
ATOM      9  H   UNL     1      32.394  -8.544 -25.009  0.00  0.00    +0.156 HD
ENDROOT
BRANCH   3  11
ATOM     10 CL   UNL     1      35.179  -5.434 -29.883  0.00  0.00    -0.082 Cl
ATOM     11  C   UNL     1      33.344  -7.109 -26.123  0.00  0.00    +0.052 C 
ATOM     12  C   UNL     1      32.562  -6.370 -27.005  0.00  0.00    +0.016 C 
ATOM     13  C   UNL     1      34.691  -7.334 -26.396  0.00  0.00    +0.016 C 
ATOM     14  C   UNL     1      33.129  -5.851 -28.170  0.00  0.00    +0.013 C 
ATOM     15  C   UNL     1      35.258  -6.816 -27.560  0.00  0.00    +0.013 C 
ATOM     16  C   UNL     1      34.478  -6.074 -28.447  0.00  0.00    +0.058 C 
ENDBRANCH   3  11
BRANCH   4  19
ATOM     17  O   UNL     1      33.521  -9.928 -23.443  0.00  0.00    -0.273 OA
ATOM     18  N   UNL     1      31.896 -11.399 -22.587  0.00  0.00    -0.281 N 
ATOM     19  C   UNL     1      32.398 -10.177 -23.015  0.00  0.00    +0.244 C 
ATOM     20  H   UNL     1      30.962 -11.402 -22.277  0.00  0.00    +0.155 HD
BRANCH  18  22
ATOM     21  F   UNL     1      32.596 -12.737 -24.917  0.00  0.00    -0.203 F 
ATOM     22  C   UNL     1      32.573 -12.641 -22.544  0.00  0.00    +0.078 C 
ATOM     23  C   UNL     1      32.904 -13.276 -23.729  0.00  0.00    +0.155 C 
ATOM     24  C   UNL     1      32.888 -13.196 -21.314  0.00  0.00    +0.018 C 
ATOM     25  C   UNL     1      33.894 -15.074 -22.453  0.00  0.00    +0.061 C 
ATOM     26  C   UNL     1      33.570 -14.501 -23.683  0.00  0.00    +0.046 C 
ATOM     27  C   UNL     1      33.553 -14.421 -21.269  0.00  0.00    +0.017 C 
BRANCH  25  29
ATOM     28  O   UNL     1      34.851 -16.369 -20.050  0.00  0.00    -0.269 OA
ATOM     29  N   UNL     1      34.586 -16.348 -22.406  0.00  0.00    -0.233 N 
ATOM     30  C   UNL     1      34.971 -16.898 -21.156  0.00  0.00    +0.257 C 
ATOM     31  C   UNL     1      34.897 -17.029 -23.585  0.00  0.00    +0.072 C 
ATOM     32  C   UNL     1      35.636 -18.236 -21.194  0.00  0.00    +0.059 C 
ATOM     33  C   UNL     1      35.524 -18.210 -23.593  0.00  0.00    +0.017 C 
ATOM     34  C   UNL     1      35.896 -18.833 -22.360  0.00  0.00    +0.006 C 
ENDBRANCH  25  29
ENDBRANCH  18  22
ENDBRANCH   4  19
BRANCH   5  35
ATOM     35  O   UNL     1      32.279  -9.284 -20.004  0.00  0.00    -0.352 OA
ATOM     36  C   UNL     1      31.738 -10.286 -19.154  0.00  0.00    +0.174 C 
ENDBRANCH   5  35
TORSDOF 5
ENDMDL
MODEL 8
REMARK VINA RESULT:      -9.7      9.015     14.915
REMARK  Name = 11634458
REMARK  5 active torsions:
REMARK  status: ('A' for Active; 'I' for Inactive)
REMARK    1  A    between atoms: N_3  and  C_11
REMARK    2  A    between atoms: C_4  and  C_19
REMARK    3  A    between atoms: C_5  and  O_35
REMARK    4  A    between atoms: N_18  and  C_22
REMARK    5  A    between atoms: C_25  and  N_29
REMARK                            x       y       z     vdW  Elec       q    Type
REMARK                         _______ _______ _______ _____ _____    ______ ____
ROOT
ATOM      1  O   UNL     1      33.017  -5.867 -23.541  0.00  0.00    -0.252 OA
ATOM      2  N   UNL     1      31.992  -7.771 -22.768  0.00  0.00    -0.255 N 
ATOM      3  N   UNL     1      32.753  -7.677 -24.986  0.00  0.00    -0.268 N 
ATOM      4  C   UNL     1      31.330  -9.067 -22.910  0.00  0.00    +0.156 C 
ATOM      5  C   UNL     1      31.176  -8.349 -20.617  0.00  0.00    +0.137 C 
ATOM      6  C   UNL     1      30.461  -9.204 -21.660  0.00  0.00    +0.061 C 
ATOM      7  C   UNL     1      31.786  -7.218 -21.432  0.00  0.00    +0.125 C 
ATOM      8  C   UNL     1      32.623  -7.013 -23.766  0.00  0.00    +0.308 C 
ATOM      9  H   UNL     1      32.392  -8.592 -25.020  0.00  0.00    +0.156 HD
ENDROOT
BRANCH   3  11
ATOM     10 CL   UNL     1      35.224  -5.664 -29.978  0.00  0.00    -0.082 Cl
ATOM     11  C   UNL     1      33.344  -7.196 -26.180  0.00  0.00    +0.052 C 
ATOM     12  C   UNL     1      34.674  -7.494 -26.464  0.00  0.00    +0.016 C 
ATOM     13  C   UNL     1      32.592  -6.426 -27.064  0.00  0.00    +0.016 C 
ATOM     14  C   UNL     1      35.257  -7.020 -27.640  0.00  0.00    +0.013 C 
ATOM     15  C   UNL     1      33.174  -5.952 -28.239  0.00  0.00    +0.013 C 
ATOM     16  C   UNL     1      34.506  -6.249 -28.527  0.00  0.00    +0.058 C 
ENDBRANCH   3  11
BRANCH   4  19
ATOM     17  O   UNL     1      33.548  -9.860 -23.216  0.00  0.00    -0.273 OA
ATOM     18  N   UNL     1      31.838 -11.384 -22.681  0.00  0.00    -0.281 N 
ATOM     19  C   UNL     1      32.381 -10.137 -22.957  0.00  0.00    +0.244 C 
ATOM     20  H   UNL     1      30.870 -11.408 -22.498  0.00  0.00    +0.155 HD
BRANCH  18  22
ATOM     21  F   UNL     1      32.396 -12.628 -20.262  0.00  0.00    -0.203 F 
ATOM     22  C   UNL     1      32.513 -12.627 -22.633  0.00  0.00    +0.078 C 
ATOM     23  C   UNL     1      32.772 -13.214 -21.407  0.00  0.00    +0.155 C 
ATOM     24  C   UNL     1      32.900 -13.229 -23.820  0.00  0.00    +0.018 C 
ATOM     25  C   UNL     1      33.836 -15.058 -22.549  0.00  0.00    +0.061 C 
ATOM     26  C   UNL     1      33.439 -14.439 -21.364  0.00  0.00    +0.046 C 
ATOM     27  C   UNL     1      33.567 -14.454 -23.776  0.00  0.00    +0.017 C 
BRANCH  25  29
ATOM     28  O   UNL     1      34.864 -16.319 -20.157  0.00  0.00    -0.269 OA
ATOM     29  N   UNL     1      34.530 -16.332 -22.504  0.00  0.00    -0.233 N 
ATOM     30  C   UNL     1      34.951 -16.863 -21.258  0.00  0.00    +0.257 C 
ATOM     31  C   UNL     1      34.807 -17.030 -23.681  0.00  0.00    +0.072 C 
ATOM     32  C   UNL     1      35.616 -18.202 -21.296  0.00  0.00    +0.059 C 
ATOM     33  C   UNL     1      35.433 -18.211 -23.691  0.00  0.00    +0.017 C 
ATOM     34  C   UNL     1      35.842 -18.816 -22.460  0.00  0.00    +0.006 C 
ENDBRANCH  25  29
ENDBRANCH  18  22
ENDBRANCH   4  19
BRANCH   5  35
ATOM     35  O   UNL     1      32.199  -9.114 -19.990  0.00  0.00    -0.352 OA
ATOM     36  C   UNL     1      31.665  -9.997 -19.014  0.00  0.00    +0.174 C 
ENDBRANCH   5  35
TORSDOF 5
ENDMDL
