MODEL 1
REMARK VINA RESULT:     -12.5      0.000      0.000
REMARK  Name = 6918314
REMARK  8 active torsions:
REMARK  status: ('A' for Active; 'I' for Inactive)
REMARK    1  A    between atoms: N_1  and  C_22
REMARK    2  A    between atoms: N_2  and  C_9
REMARK    3  A    between atoms: C_16  and  C_19
REMARK    4  A    between atoms: C_22  and  C_23
REMARK    5  A    between atoms: C_23  and  C_24
REMARK    6  A    between atoms: C_24  and  C_25
REMARK    7  A    between atoms: C_25  and  C_27
REMARK    8  A    between atoms: C_33  and  C_37
REMARK                            x       y       z     vdW  Elec       q    Type
REMARK                         _______ _______ _______ _____ _____    ______ ____
ROOT
ATOM      1  N   UNL     1      35.526 -20.827 -19.221  0.00  0.00    +0.389 N 
ATOM      2  N   UNL     1      34.875 -19.148 -21.437  0.00  0.00    -0.312 N 
ATOM      3  C   UNL     1      36.579 -20.352 -20.126  0.00  0.00    -0.055 C 
ATOM      4  C   UNL     1      34.280 -21.034 -19.968  0.00  0.00    -0.055 C 
ATOM      5  C   UNL     1      36.183 -19.027 -20.782  0.00  0.00    +0.068 C 
ATOM      6  C   UNL     1      33.807 -19.733 -20.620  0.00  0.00    +0.068 C 
ATOM      7  H   UNL     1      35.365 -20.121 -18.503  0.00  0.00    -0.080 HD
ENDROOT
BRANCH   2   9
ATOM      8  O   UNL     1      33.537 -15.623 -25.478  0.00  0.00    -0.449 OA
ATOM      9  C   UNL     1      34.555 -18.227 -22.442  0.00  0.00    +0.048 C 
ATOM     10  C   UNL     1      33.782 -18.624 -23.561  0.00  0.00    +0.018 C 
ATOM     11  C   UNL     1      34.999 -16.888 -22.359  0.00  0.00    +0.018 C 
ATOM     12  C   UNL     1      33.469 -17.687 -24.562  0.00  0.00    +0.039 C 
ATOM     13  C   UNL     1      33.935 -16.384 -24.420  0.00  0.00    +0.146 C 
ATOM     14  C   UNL     1      34.699 -15.940 -23.342  0.00  0.00    +0.039 C 
ATOM     15  C   UNL     1      32.745 -17.708 -25.782  0.00  0.00    +0.045 C 
ATOM     16  C   UNL     1      32.816 -16.434 -26.297  0.00  0.00    +0.198 C 
BRANCH  16  19
ATOM     17  O   UNL     1      32.963 -15.313 -28.387  0.00  0.00    -0.267 OA
ATOM     18  N   UNL     1      30.891 -15.913 -27.682  0.00  0.00    -0.323 N 
ATOM     19  C   UNL     1      32.282 -15.871 -27.490  0.00  0.00    +0.277 C 
ATOM     20  H   UNL     1      30.495 -15.530 -28.497  0.00  0.00    +0.145 HD
ATOM     21  H   UNL     1      30.313 -16.325 -27.000  0.00  0.00    +0.145 HD
ENDBRANCH  16  19
ENDBRANCH   2   9
BRANCH   1  22
ATOM     22  C   UNL     1      35.939 -22.065 -18.559  0.00  0.00    -0.077 C 
BRANCH  22  23
ATOM     23  C   UNL     1      36.591 -21.755 -17.213  0.00  0.00    -0.022 C 
BRANCH  23  24
ATOM     24  C   UNL     1      35.840 -22.432 -16.066  0.00  0.00    +0.003 C 
BRANCH  24  25
ATOM     25  C   UNL     1      34.546 -23.088 -16.556  0.00  0.00    +0.028 C 
BRANCH  25  27
ATOM     26  N   UNL     1      33.235 -24.714 -13.561  0.00  0.00    -0.312 N 
ATOM     27  C   UNL     1      33.750 -23.688 -15.436  0.00  0.00    -0.006 C 
ATOM     28  C   UNL     1      32.344 -23.701 -15.338  0.00  0.00    +0.011 C 
ATOM     29  C   UNL     1      34.281 -24.309 -14.345  0.00  0.00    +0.058 C 
ATOM     30  C   UNL     1      32.039 -24.355 -14.142  0.00  0.00    +0.048 C 
ATOM     31  C   UNL     1      31.286 -23.224 -16.139  0.00  0.00    +0.011 C 
ATOM     32  C   UNL     1      30.725 -24.559 -13.707  0.00  0.00    +0.015 C 
ATOM     33  C   UNL     1      29.967 -23.421 -15.715  0.00  0.00    +0.069 C 
ATOM     34  C   UNL     1      29.692 -24.078 -14.517  0.00  0.00    +0.012 C 
ATOM     35  H   UNL     1      33.323 -25.192 -12.705  0.00  0.00    +0.152 HD
BRANCH  33  37
ATOM     36  N   UNL     1      28.014 -22.552 -17.180  0.00  0.00    -0.191 NA
ATOM     37  C   UNL     1      28.889 -22.941 -16.523  0.00  0.00    +0.100 C 
ENDBRANCH  33  37
ENDBRANCH  25  27
ENDBRANCH  24  25
ENDBRANCH  23  24
ENDBRANCH  22  23
ENDBRANCH   1  22
TORSDOF 8
ENDMDL
MODEL 2
REMARK VINA RESULT:     -12.4      2.421      4.319
REMARK  Name = 6918314
REMARK  8 active torsions:
REMARK  status: ('A' for Active; 'I' for Inactive)
REMARK    1  A    between atoms: N_1  and  C_22
REMARK    2  A    between atoms: N_2  and  C_9
REMARK    3  A    between atoms: C_16  and  C_19
REMARK    4  A    between atoms: C_22  and  C_23
REMARK    5  A    between atoms: C_23  and  C_24
REMARK    6  A    between atoms: C_24  and  C_25
REMARK    7  A    between atoms: C_25  and  C_27
REMARK    8  A    between atoms: C_33  and  C_37
REMARK                            x       y       z     vdW  Elec       q    Type
REMARK                         _______ _______ _______ _____ _____    ______ ____
ROOT
ATOM      1  N   UNL     1      35.632 -20.152 -19.875  0.00  0.00    +0.389 N 
ATOM      2  N   UNL     1      34.812 -19.072 -22.388  0.00  0.00    -0.312 N 
ATOM      3  C   UNL     1      36.632 -19.709 -20.853  0.00  0.00    -0.055 C 
ATOM      4  C   UNL     1      34.460 -20.695 -20.569  0.00  0.00    -0.055 C 
ATOM      5  C   UNL     1      36.062 -18.620 -21.766  0.00  0.00    +0.068 C 
ATOM      6  C   UNL     1      33.817 -19.641 -21.473  0.00  0.00    +0.068 C 
ATOM      7  H   UNL     1      35.341 -19.350 -19.315  0.00  0.00    -0.080 HD
ENDROOT
BRANCH   2   9
ATOM      8  O   UNL     1      33.150 -16.413 -26.939  0.00  0.00    -0.449 OA
ATOM      9  C   UNL     1      34.391 -18.432 -23.560  0.00  0.00    +0.048 C 
ATOM     10  C   UNL     1      34.146 -17.036 -23.569  0.00  0.00    +0.018 C 
ATOM     11  C   UNL     1      34.203 -19.165 -24.752  0.00  0.00    +0.018 C 
ATOM     12  C   UNL     1      33.725 -16.409 -24.754  0.00  0.00    +0.039 C 
ATOM     13  C   UNL     1      33.559 -17.188 -25.895  0.00  0.00    +0.146 C 
ATOM     14  C   UNL     1      33.785 -18.562 -25.943  0.00  0.00    +0.039 C 
ATOM     15  C   UNL     1      33.394 -15.084 -25.140  0.00  0.00    +0.045 C 
ATOM     16  C   UNL     1      33.053 -15.141 -26.471  0.00  0.00    +0.198 C 
BRANCH  16  19
ATOM     17  O   UNL     1      33.415 -13.405 -28.054  0.00  0.00    -0.267 OA
ATOM     18  N   UNL     1      31.261 -13.892 -27.532  0.00  0.00    -0.323 N 
ATOM     19  C   UNL     1      32.637 -14.128 -27.381  0.00  0.00    +0.277 C 
ATOM     20  H   UNL     1      30.946 -13.197 -28.154  0.00  0.00    +0.145 HD
ATOM     21  H   UNL     1      30.612 -14.421 -27.015  0.00  0.00    +0.145 HD
ENDBRANCH  16  19
ENDBRANCH   2   9
BRANCH   1  22
ATOM     22  C   UNL     1      36.205 -21.152 -18.974  0.00  0.00    -0.077 C 
BRANCH  22  23
ATOM     23  C   UNL     1      35.099 -22.013 -18.365  0.00  0.00    -0.022 C 
BRANCH  23  24
ATOM     24  C   UNL     1      35.426 -22.391 -16.920  0.00  0.00    +0.003 C 
BRANCH  24  25
ATOM     25  C   UNL     1      34.536 -23.537 -16.428  0.00  0.00    +0.028 C 
BRANCH  25  27
ATOM     26  N   UNL     1      34.404 -24.019 -12.811  0.00  0.00    -0.312 N 
ATOM     27  C   UNL     1      34.748 -23.840 -14.975  0.00  0.00    -0.006 C 
ATOM     28  C   UNL     1      35.910 -24.405 -14.411  0.00  0.00    +0.011 C 
ATOM     29  C   UNL     1      33.837 -23.610 -13.988  0.00  0.00    +0.058 C 
ATOM     30  C   UNL     1      35.670 -24.510 -13.039  0.00  0.00    +0.048 C 
ATOM     31  C   UNL     1      37.150 -24.843 -14.918  0.00  0.00    +0.011 C 
ATOM     32  C   UNL     1      36.612 -25.031 -12.146  0.00  0.00    +0.015 C 
ATOM     33  C   UNL     1      38.102 -25.367 -14.036  0.00  0.00    +0.069 C 
ATOM     34  C   UNL     1      37.835 -25.460 -12.672  0.00  0.00    +0.012 C 
ATOM     35  H   UNL     1      33.970 -23.970 -11.928  0.00  0.00    +0.152 HD
BRANCH  33  37
ATOM     36  N   UNL     1      40.385 -26.175 -14.956  0.00  0.00    -0.191 NA
ATOM     37  C   UNL     1      39.362 -25.813 -14.544  0.00  0.00    +0.100 C 
ENDBRANCH  33  37
ENDBRANCH  25  27
ENDBRANCH  24  25
ENDBRANCH  23  24
ENDBRANCH  22  23
ENDBRANCH   1  22
TORSDOF 8
ENDMDL
MODEL 3
REMARK VINA RESULT:     -12.3      2.416      4.373
REMARK  Name = 6918314
REMARK  8 active torsions:
REMARK  status: ('A' for Active; 'I' for Inactive)
REMARK    1  A    between atoms: N_1  and  C_22
REMARK    2  A    between atoms: N_2  and  C_9
REMARK    3  A    between atoms: C_16  and  C_19
REMARK    4  A    between atoms: C_22  and  C_23
REMARK    5  A    between atoms: C_23  and  C_24
REMARK    6  A    between atoms: C_24  and  C_25
REMARK    7  A    between atoms: C_25  and  C_27
REMARK    8  A    between atoms: C_33  and  C_37
REMARK                            x       y       z     vdW  Elec       q    Type
REMARK                         _______ _______ _______ _____ _____    ______ ____
ROOT
ATOM      1  N   UNL     1      35.341 -20.718 -20.564  0.00  0.00    +0.389 N 
ATOM      2  N   UNL     1      34.726 -18.295 -21.944  0.00  0.00    -0.312 N 
ATOM      3  C   UNL     1      33.959 -20.230 -20.627  0.00  0.00    -0.055 C 
ATOM      4  C   UNL     1      36.270 -19.583 -20.521  0.00  0.00    -0.055 C 
ATOM      5  C   UNL     1      33.734 -19.374 -21.875  0.00  0.00    +0.068 C 
ATOM      6  C   UNL     1      36.123 -18.704 -21.765  0.00  0.00    +0.068 C 
ATOM      7  H   UNL     1      35.535 -21.269 -21.400  0.00  0.00    -0.080 HD
ENDROOT
BRANCH   2   9
ATOM      8  O   UNL     1      33.498 -13.965 -25.152  0.00  0.00    -0.449 OA
ATOM      9  C   UNL     1      34.426 -17.174 -22.728  0.00  0.00    +0.048 C 
ATOM     10  C   UNL     1      33.939 -17.331 -24.049  0.00  0.00    +0.018 C 
ATOM     11  C   UNL     1      34.603 -15.869 -22.216  0.00  0.00    +0.018 C 
ATOM     12  C   UNL     1      33.642 -16.196 -24.824  0.00  0.00    +0.039 C 
ATOM     13  C   UNL     1      33.838 -14.939 -24.261  0.00  0.00    +0.146 C 
ATOM     14  C   UNL     1      34.313 -14.726 -22.968  0.00  0.00    +0.039 C 
ATOM     15  C   UNL     1      33.154 -15.960 -26.135  0.00  0.00    +0.045 C 
ATOM     16  C   UNL     1      33.086 -14.594 -26.284  0.00  0.00    +0.198 C 
BRANCH  16  19
ATOM     17  O   UNL     1      33.432 -13.038 -28.047  0.00  0.00    -0.267 OA
ATOM     18  N   UNL     1      31.316 -13.798 -27.743  0.00  0.00    -0.323 N 
ATOM     19  C   UNL     1      32.673 -13.786 -27.381  0.00  0.00    +0.277 C 
ATOM     20  H   UNL     1      31.003 -13.249 -28.498  0.00  0.00    +0.145 HD
ATOM     21  H   UNL     1      30.678 -14.356 -27.242  0.00  0.00    +0.145 HD
ENDBRANCH  16  19
ENDBRANCH   2   9
BRANCH   1  22
ATOM     22  C   UNL     1      35.529 -21.579 -19.397  0.00  0.00    -0.077 C 
BRANCH  22  23
ATOM     23  C   UNL     1      34.281 -22.427 -19.156  0.00  0.00    -0.022 C 
BRANCH  23  24
ATOM     24  C   UNL     1      34.026 -22.622 -17.660  0.00  0.00    +0.003 C 
BRANCH  24  25
ATOM     25  C   UNL     1      35.336 -22.626 -16.867  0.00  0.00    +0.028 C 
BRANCH  25  27
ATOM     26  N   UNL     1      34.301 -23.848 -13.585  0.00  0.00    -0.312 N 
ATOM     27  C   UNL     1      35.176 -23.238 -15.507  0.00  0.00    -0.006 C 
ATOM     28  C   UNL     1      36.160 -23.970 -14.812  0.00  0.00    +0.011 C 
ATOM     29  C   UNL     1      34.046 -23.171 -14.748  0.00  0.00    +0.058 C 
ATOM     30  C   UNL     1      35.584 -24.347 -13.597  0.00  0.00    +0.048 C 
ATOM     31  C   UNL     1      37.488 -24.358 -15.082  0.00  0.00    +0.011 C 
ATOM     32  C   UNL     1      36.272 -25.094 -12.634  0.00  0.00    +0.015 C 
ATOM     33  C   UNL     1      38.188 -25.106 -14.128  0.00  0.00    +0.069 C 
ATOM     34  C   UNL     1      37.588 -25.468 -12.924  0.00  0.00    +0.012 C 
ATOM     35  H   UNL     1      33.659 -23.962 -12.847  0.00  0.00    +0.152 HD
BRANCH  33  37
ATOM     36  N   UNL     1      40.631 -25.823 -14.612  0.00  0.00    -0.191 NA
ATOM     37  C   UNL     1      39.536 -25.502 -14.396  0.00  0.00    +0.100 C 
ENDBRANCH  33  37
ENDBRANCH  25  27
ENDBRANCH  24  25
ENDBRANCH  23  24
ENDBRANCH  22  23
ENDBRANCH   1  22
TORSDOF 8
ENDMDL
MODEL 4
REMARK VINA RESULT:     -12.0      2.844      4.889
REMARK  Name = 6918314
REMARK  8 active torsions:
REMARK  status: ('A' for Active; 'I' for Inactive)
REMARK    1  A    between atoms: N_1  and  C_22
REMARK    2  A    between atoms: N_2  and  C_9
REMARK    3  A    between atoms: C_16  and  C_19
REMARK    4  A    between atoms: C_22  and  C_23
REMARK    5  A    between atoms: C_23  and  C_24
REMARK    6  A    between atoms: C_24  and  C_25
REMARK    7  A    between atoms: C_25  and  C_27
REMARK    8  A    between atoms: C_33  and  C_37
REMARK                            x       y       z     vdW  Elec       q    Type
REMARK                         _______ _______ _______ _____ _____    ______ ____
ROOT
ATOM      1  N   UNL     1      35.178 -21.109 -20.056  0.00  0.00    +0.389 N 
ATOM      2  N   UNL     1      34.741 -18.664 -21.466  0.00  0.00    -0.312 N 
ATOM      3  C   UNL     1      33.822 -20.567 -20.197  0.00  0.00    -0.055 C 
ATOM      4  C   UNL     1      36.148 -20.012 -19.958  0.00  0.00    -0.055 C 
ATOM      5  C   UNL     1      33.704 -19.703 -21.455  0.00  0.00    +0.068 C 
ATOM      6  C   UNL     1      36.108 -19.129 -21.207  0.00  0.00    +0.068 C 
ATOM      7  H   UNL     1      35.397 -21.668 -20.880  0.00  0.00    -0.080 HD
ENDROOT
BRANCH   2   9
ATOM      8  O   UNL     1      33.922 -14.113 -24.492  0.00  0.00    -0.449 OA
ATOM      9  C   UNL     1      34.531 -17.534 -22.264  0.00  0.00    +0.048 C 
ATOM     10  C   UNL     1      34.491 -16.242 -21.684  0.00  0.00    +0.018 C 
ATOM     11  C   UNL     1      34.355 -17.661 -23.660  0.00  0.00    +0.018 C 
ATOM     12  C   UNL     1      34.279 -15.116 -22.499  0.00  0.00    +0.039 C 
ATOM     13  C   UNL     1      34.114 -15.309 -23.867  0.00  0.00    +0.146 C 
ATOM     14  C   UNL     1      34.144 -16.555 -24.491  0.00  0.00    +0.039 C 
ATOM     15  C   UNL     1      34.180 -13.716 -22.292  0.00  0.00    +0.045 C 
ATOM     16  C   UNL     1      33.964 -13.155 -23.530  0.00  0.00    +0.198 C 
BRANCH  16  19
ATOM     17  O   UNL     1      32.888 -11.036 -23.497  0.00  0.00    -0.267 OA
ATOM     18  N   UNL     1      34.658 -11.273 -24.898  0.00  0.00    -0.323 N 
ATOM     19  C   UNL     1      33.786 -11.801 -23.931  0.00  0.00    +0.277 C 
ATOM     20  H   UNL     1      34.557 -10.340 -25.194  0.00  0.00    +0.145 HD
ATOM     21  H   UNL     1      35.368 -11.837 -25.280  0.00  0.00    +0.145 HD
ENDBRANCH  16  19
ENDBRANCH   2   9
BRANCH   1  22
ATOM     22  C   UNL     1      35.264 -21.976 -18.881  0.00  0.00    -0.077 C 
BRANCH  22  23
ATOM     23  C   UNL     1      36.461 -21.581 -18.017  0.00  0.00    -0.022 C 
BRANCH  23  24
ATOM     24  C   UNL     1      36.243 -21.980 -16.556  0.00  0.00    +0.003 C 
BRANCH  24  25
ATOM     25  C   UNL     1      35.085 -22.972 -16.415  0.00  0.00    +0.028 C 
BRANCH  25  27
ATOM     26  N   UNL     1      34.419 -24.368 -13.107  0.00  0.00    -0.312 N 
ATOM     27  C   UNL     1      35.077 -23.653 -15.079  0.00  0.00    -0.006 C 
ATOM     28  C   UNL     1      36.134 -24.410 -14.533  0.00  0.00    +0.011 C 
ATOM     29  C   UNL     1      34.036 -23.636 -14.199  0.00  0.00    +0.058 C 
ATOM     30  C   UNL     1      35.695 -24.854 -13.284  0.00  0.00    +0.048 C 
ATOM     31  C   UNL     1      37.425 -24.772 -14.966  0.00  0.00    +0.011 C 
ATOM     32  C   UNL     1      36.487 -25.642 -12.442  0.00  0.00    +0.015 C 
ATOM     33  C   UNL     1      38.228 -25.561 -14.134  0.00  0.00    +0.069 C 
ATOM     34  C   UNL     1      37.764 -25.988 -12.892  0.00  0.00    +0.012 C 
ATOM     35  H   UNL     1      33.862 -24.525 -12.310  0.00  0.00    +0.152 HD
BRANCH  33  37
ATOM     36  N   UNL     1      40.606 -26.230 -14.917  0.00  0.00    -0.191 NA
ATOM     37  C   UNL     1      39.541 -25.931 -14.566  0.00  0.00    +0.100 C 
ENDBRANCH  33  37
ENDBRANCH  25  27
ENDBRANCH  24  25
ENDBRANCH  23  24
ENDBRANCH  22  23
ENDBRANCH   1  22
TORSDOF 8
ENDMDL
MODEL 5
REMARK VINA RESULT:     -11.8      4.792     12.125
REMARK  Name = 6918314
REMARK  8 active torsions:
REMARK  status: ('A' for Active; 'I' for Inactive)
REMARK    1  A    between atoms: N_1  and  C_22
REMARK    2  A    between atoms: N_2  and  C_9
REMARK    3  A    between atoms: C_16  and  C_19
REMARK    4  A    between atoms: C_22  and  C_23
REMARK    5  A    between atoms: C_23  and  C_24
REMARK    6  A    between atoms: C_24  and  C_25
REMARK    7  A    between atoms: C_25  and  C_27
REMARK    8  A    between atoms: C_33  and  C_37
REMARK                            x       y       z     vdW  Elec       q    Type
REMARK                         _______ _______ _______ _____ _____    ______ ____
ROOT
ATOM      1  N   UNL     1      34.048 -20.755 -20.813  0.00  0.00    +0.389 N 
ATOM      2  N   UNL     1      35.038 -21.735 -18.320  0.00  0.00    -0.312 N 
ATOM      3  C   UNL     1      35.320 -20.260 -20.275  0.00  0.00    -0.055 C 
ATOM      4  C   UNL     1      33.124 -21.057 -19.715  0.00  0.00    -0.055 C 
ATOM      5  C   UNL     1      35.974 -21.303 -19.365  0.00  0.00    +0.068 C 
ATOM      6  C   UNL     1      33.704 -22.126 -18.786  0.00  0.00    +0.068 C 
ATOM      7  H   UNL     1      34.224 -21.611 -21.340  0.00  0.00    -0.080 HD
ENDROOT
BRANCH   2   9
ATOM      8  O   UNL     1      36.986 -24.063 -13.703  0.00  0.00    -0.449 OA
ATOM      9  C   UNL     1      35.568 -22.315 -17.162  0.00  0.00    +0.048 C 
ATOM     10  C   UNL     1      34.713 -22.906 -16.199  0.00  0.00    +0.018 C 
ATOM     11  C   UNL     1      36.961 -22.321 -16.932  0.00  0.00    +0.018 C 
ATOM     12  C   UNL     1      35.260 -23.486 -15.041  0.00  0.00    +0.039 C 
ATOM     13  C   UNL     1      36.641 -23.459 -14.874  0.00  0.00    +0.146 C 
ATOM     14  C   UNL     1      37.528 -22.892 -15.788  0.00  0.00    +0.039 C 
ATOM     15  C   UNL     1      34.746 -24.148 -13.895  0.00  0.00    +0.045 C 
ATOM     16  C   UNL     1      35.832 -24.477 -13.117  0.00  0.00    +0.198 C 
BRANCH  16  19
ATOM     17  O   UNL     1      36.450 -26.274 -11.690  0.00  0.00    -0.267 OA
ATOM     18  N   UNL     1      35.370 -24.521 -10.734  0.00  0.00    -0.323 N 
ATOM     19  C   UNL     1      35.923 -25.145 -11.864  0.00  0.00    +0.277 C 
ATOM     20  H   UNL     1      35.419 -24.961  -9.855  0.00  0.00    +0.145 HD
ATOM     21  H   UNL     1      34.933 -23.643 -10.821  0.00  0.00    +0.145 HD
ENDBRANCH  16  19
ENDBRANCH   2   9
BRANCH   1  22
ATOM     22  C   UNL     1      33.460 -19.772 -21.723  0.00  0.00    -0.077 C 
BRANCH  22  23
ATOM     23  C   UNL     1      34.494 -18.712 -22.100  0.00  0.00    -0.022 C 
BRANCH  23  24
ATOM     24  C   UNL     1      35.002 -18.917 -23.528  0.00  0.00    +0.003 C 
BRANCH  24  25
ATOM     25  C   UNL     1      34.778 -17.667 -24.385  0.00  0.00    +0.028 C 
BRANCH  25  27
ATOM     26  N   UNL     1      31.732 -18.565 -26.187  0.00  0.00    -0.312 N 
ATOM     27  C   UNL     1      33.543 -17.768 -25.229  0.00  0.00    -0.006 C 
ATOM     28  C   UNL     1      33.016 -16.746 -26.044  0.00  0.00    +0.011 C 
ATOM     29  C   UNL     1      32.750 -18.872 -25.324  0.00  0.00    +0.058 C 
ATOM     30  C   UNL     1      31.868 -17.272 -26.641  0.00  0.00    +0.048 C 
ATOM     31  C   UNL     1      33.389 -15.420 -26.343  0.00  0.00    +0.011 C 
ATOM     32  C   UNL     1      31.073 -16.537 -27.527  0.00  0.00    +0.015 C 
ATOM     33  C   UNL     1      32.602 -14.673 -27.228  0.00  0.00    +0.069 C 
ATOM     34  C   UNL     1      31.463 -15.224 -27.809  0.00  0.00    +0.012 C 
ATOM     35  H   UNL     1      31.006 -19.179 -26.444  0.00  0.00    +0.152 HD
BRANCH  33  37
ATOM     36  N   UNL     1      33.279 -12.235 -27.788  0.00  0.00    -0.191 NA
ATOM     37  C   UNL     1      32.975 -13.327 -27.537  0.00  0.00    +0.100 C 
ENDBRANCH  33  37
ENDBRANCH  25  27
ENDBRANCH  24  25
ENDBRANCH  23  24
ENDBRANCH  22  23
ENDBRANCH   1  22
TORSDOF 8
ENDMDL
MODEL 6
REMARK VINA RESULT:     -11.7      1.942      2.661
REMARK  Name = 6918314
REMARK  8 active torsions:
REMARK  status: ('A' for Active; 'I' for Inactive)
REMARK    1  A    between atoms: N_1  and  C_22
REMARK    2  A    between atoms: N_2  and  C_9
REMARK    3  A    between atoms: C_16  and  C_19
REMARK    4  A    between atoms: C_22  and  C_23
REMARK    5  A    between atoms: C_23  and  C_24
REMARK    6  A    between atoms: C_24  and  C_25
REMARK    7  A    between atoms: C_25  and  C_27
REMARK    8  A    between atoms: C_33  and  C_37
REMARK                            x       y       z     vdW  Elec       q    Type
REMARK                         _______ _______ _______ _____ _____    ______ ____
ROOT
ATOM      1  N   UNL     1      35.192 -20.647 -20.643  0.00  0.00    +0.389 N 
ATOM      2  N   UNL     1      34.575 -18.275 -22.108  0.00  0.00    -0.312 N 
ATOM      3  C   UNL     1      33.800 -20.208 -20.791  0.00  0.00    -0.055 C 
ATOM      4  C   UNL     1      36.080 -19.481 -20.576  0.00  0.00    -0.055 C 
ATOM      5  C   UNL     1      33.616 -19.385 -22.068  0.00  0.00    +0.068 C 
ATOM      6  C   UNL     1      35.973 -18.633 -21.845  0.00  0.00    +0.068 C 
ATOM      7  H   UNL     1      35.449 -21.209 -21.456  0.00  0.00    -0.080 HD
ENDROOT
BRANCH   2   9
ATOM      8  O   UNL     1      33.448 -13.865 -25.242  0.00  0.00    -0.449 OA
ATOM      9  C   UNL     1      34.282 -17.181 -22.932  0.00  0.00    +0.048 C 
ATOM     10  C   UNL     1      34.370 -15.860 -22.430  0.00  0.00    +0.018 C 
ATOM     11  C   UNL     1      33.892 -17.376 -24.275  0.00  0.00    +0.018 C 
ATOM     12  C   UNL     1      34.072 -14.772 -23.270  0.00  0.00    +0.039 C 
ATOM     13  C   UNL     1      33.695 -15.032 -24.583  0.00  0.00    +0.146 C 
ATOM     14  C   UNL     1      33.591 -16.310 -25.129  0.00  0.00    +0.039 C 
ATOM     15  C   UNL     1      34.050 -13.359 -23.134  0.00  0.00    +0.045 C 
ATOM     16  C   UNL     1      33.665 -12.858 -24.355  0.00  0.00    +0.198 C 
BRANCH  16  19
ATOM     17  O   UNL     1      33.216 -10.543 -24.058  0.00  0.00    -0.267 OA
ATOM     18  N   UNL     1      33.547 -11.266 -26.184  0.00  0.00    -0.323 N 
ATOM     19  C   UNL     1      33.472 -11.522 -24.805  0.00  0.00    +0.277 C 
ATOM     20  H   UNL     1      33.417 -10.350 -26.523  0.00  0.00    +0.145 HD
ATOM     21  H   UNL     1      33.730 -12.001 -26.812  0.00  0.00    +0.145 HD
ENDBRANCH  16  19
ENDBRANCH   2   9
BRANCH   1  22
ATOM     22  C   UNL     1      35.344 -21.478 -19.449  0.00  0.00    -0.077 C 
BRANCH  22  23
ATOM     23  C   UNL     1      33.974 -21.842 -18.878  0.00  0.00    -0.022 C 
BRANCH  23  24
ATOM     24  C   UNL     1      34.050 -23.109 -18.024  0.00  0.00    +0.003 C 
BRANCH  24  25
ATOM     25  C   UNL     1      34.497 -22.791 -16.593  0.00  0.00    +0.028 C 
BRANCH  25  27
ATOM     26  N   UNL     1      33.237 -24.869 -13.867  0.00  0.00    -0.312 N 
ATOM     27  C   UNL     1      33.720 -23.564 -15.569  0.00  0.00    -0.006 C 
ATOM     28  C   UNL     1      32.315 -23.611 -15.463  0.00  0.00    +0.011 C 
ATOM     29  C   UNL     1      34.271 -24.335 -14.590  0.00  0.00    +0.058 C 
ATOM     30  C   UNL     1      32.031 -24.442 -14.377  0.00  0.00    +0.048 C 
ATOM     31  C   UNL     1      31.244 -23.033 -16.173  0.00  0.00    +0.011 C 
ATOM     32  C   UNL     1      30.725 -24.728 -13.967  0.00  0.00    +0.015 C 
ATOM     33  C   UNL     1      29.931 -23.310 -15.773  0.00  0.00    +0.069 C 
ATOM     34  C   UNL     1      29.678 -24.144 -14.686  0.00  0.00    +0.012 C 
ATOM     35  H   UNL     1      33.341 -25.469 -13.094  0.00  0.00    +0.152 HD
BRANCH  33  37
ATOM     36  N   UNL     1      27.953 -22.255 -17.072  0.00  0.00    -0.191 NA
ATOM     37  C   UNL     1      28.839 -22.728 -16.490  0.00  0.00    +0.100 C 
ENDBRANCH  33  37
ENDBRANCH  25  27
ENDBRANCH  24  25
ENDBRANCH  23  24
ENDBRANCH  22  23
ENDBRANCH   1  22
TORSDOF 8
ENDMDL
MODEL 7
REMARK VINA RESULT:     -11.7      4.706     11.724
REMARK  Name = 6918314
REMARK  8 active torsions:
REMARK  status: ('A' for Active; 'I' for Inactive)
REMARK    1  A    between atoms: N_1  and  C_22
REMARK    2  A    between atoms: N_2  and  C_9
REMARK    3  A    between atoms: C_16  and  C_19
REMARK    4  A    between atoms: C_22  and  C_23
REMARK    5  A    between atoms: C_23  and  C_24
REMARK    6  A    between atoms: C_24  and  C_25
REMARK    7  A    between atoms: C_25  and  C_27
REMARK    8  A    between atoms: C_33  and  C_37
REMARK                            x       y       z     vdW  Elec       q    Type
REMARK                         _______ _______ _______ _____ _____    ______ ____
ROOT
ATOM      1  N   UNL     1      33.513 -15.622 -26.117  0.00  0.00    +0.389 N 
ATOM      2  N   UNL     1      34.066 -17.361 -23.920  0.00  0.00    -0.312 N 
ATOM      3  C   UNL     1      33.469 -15.115 -24.741  0.00  0.00    -0.055 C 
ATOM      4  C   UNL     1      33.073 -17.021 -26.149  0.00  0.00    -0.055 C 
ATOM      5  C   UNL     1      34.384 -15.931 -23.825  0.00  0.00    +0.068 C 
ATOM      6  C   UNL     1      33.974 -17.902 -25.280  0.00  0.00    +0.068 C 
ATOM      7  H   UNL     1      34.474 -15.572 -26.456  0.00  0.00    -0.080 HD
ENDROOT
BRANCH   2   9
ATOM      8  O   UNL     1      35.479 -20.705 -19.754  0.00  0.00    -0.449 OA
ATOM      9  C   UNL     1      34.460 -18.194 -22.866  0.00  0.00    +0.048 C 
ATOM     10  C   UNL     1      33.529 -19.072 -22.258  0.00  0.00    +0.018 C 
ATOM     11  C   UNL     1      35.790 -18.173 -22.390  0.00  0.00    +0.018 C 
ATOM     12  C   UNL     1      33.941 -19.903 -21.201  0.00  0.00    +0.039 C 
ATOM     13  C   UNL     1      35.265 -19.835 -20.780  0.00  0.00    +0.146 C 
ATOM     14  C   UNL     1      36.221 -18.990 -21.341  0.00  0.00    +0.039 C 
ATOM     15  C   UNL     1      33.322 -20.877 -20.374  0.00  0.00    +0.045 C 
ATOM     16  C   UNL     1      34.296 -21.332 -19.515  0.00  0.00    +0.198 C 
BRANCH  16  19
ATOM     17  O   UNL     1      35.182 -22.511 -17.652  0.00  0.00    -0.267 OA
ATOM     18  N   UNL     1      33.110 -23.108 -18.361  0.00  0.00    -0.323 N 
ATOM     19  C   UNL     1      34.255 -22.302 -18.475  0.00  0.00    +0.277 C 
ATOM     20  H   UNL     1      33.055 -23.787 -17.650  0.00  0.00    +0.145 HD
ATOM     21  H   UNL     1      32.363 -22.994 -18.991  0.00  0.00    +0.145 HD
ENDBRANCH  16  19
ENDBRANCH   2   9
BRANCH   1  22
ATOM     22  C   UNL     1      32.677 -14.801 -26.993  0.00  0.00    -0.077 C 
BRANCH  22  23
ATOM     23  C   UNL     1      33.500 -13.666 -27.601  0.00  0.00    -0.022 C 
BRANCH  23  24
ATOM     24  C   UNL     1      32.947 -12.301 -27.190  0.00  0.00    +0.003 C 
BRANCH  24  25
ATOM     25  C   UNL     1      33.922 -11.557 -26.272  0.00  0.00    +0.028 C 
BRANCH  25  27
ATOM     26  N   UNL     1      32.461  -8.457 -25.012  0.00  0.00    -0.312 N 
ATOM     27  C   UNL     1      33.259 -10.441 -25.521  0.00  0.00    -0.006 C 
ATOM     28  C   UNL     1      32.690 -10.536 -24.235  0.00  0.00    +0.011 C 
ATOM     29  C   UNL     1      33.112  -9.167 -25.984  0.00  0.00    +0.058 C 
ATOM     30  C   UNL     1      32.190  -9.268 -23.932  0.00  0.00    +0.048 C 
ATOM     31  C   UNL     1      32.542 -11.568 -23.287  0.00  0.00    +0.011 C 
ATOM     32  C   UNL     1      31.549  -8.979 -22.723  0.00  0.00    +0.015 C 
ATOM     33  C   UNL     1      31.902 -11.293 -22.073  0.00  0.00    +0.069 C 
ATOM     34  C   UNL     1      31.413 -10.018 -21.797  0.00  0.00    +0.012 C 
ATOM     35  H   UNL     1      32.220  -7.504 -25.074  0.00  0.00    +0.152 HD
BRANCH  33  37
ATOM     36  N   UNL     1      31.626 -13.181 -20.320  0.00  0.00    -0.191 NA
ATOM     37  C   UNL     1      31.750 -12.335 -21.105  0.00  0.00    +0.100 C 
ENDBRANCH  33  37
ENDBRANCH  25  27
ENDBRANCH  24  25
ENDBRANCH  23  24
ENDBRANCH  22  23
ENDBRANCH   1  22
TORSDOF 8
ENDMDL
MODEL 8
REMARK VINA RESULT:     -11.6      5.544      9.655
REMARK  Name = 6918314
REMARK  8 active torsions:
REMARK  status: ('A' for Active; 'I' for Inactive)
REMARK    1  A    between atoms: N_1  and  C_22
REMARK    2  A    between atoms: N_2  and  C_9
REMARK    3  A    between atoms: C_16  and  C_19
REMARK    4  A    between atoms: C_22  and  C_23
REMARK    5  A    between atoms: C_23  and  C_24
REMARK    6  A    between atoms: C_24  and  C_25
REMARK    7  A    between atoms: C_25  and  C_27
REMARK    8  A    between atoms: C_33  and  C_37
REMARK                            x       y       z     vdW  Elec       q    Type
REMARK                         _______ _______ _______ _____ _____    ______ ____
ROOT
ATOM      1  N   UNL     1      32.654 -14.357 -26.284  0.00  0.00    +0.389 N 
ATOM      2  N   UNL     1      33.151 -11.917 -24.886  0.00  0.00    -0.312 N 
ATOM      3  C   UNL     1      33.181 -14.381 -24.915  0.00  0.00    -0.055 C 
ATOM      4  C   UNL     1      33.171 -13.184 -26.998  0.00  0.00    -0.055 C 
ATOM      5  C   UNL     1      32.767 -13.125 -24.145  0.00  0.00    +0.068 C 
ATOM      6  C   UNL     1      32.758 -11.888 -26.298  0.00  0.00    +0.068 C 
ATOM      7  H   UNL     1      31.636 -14.295 -26.245  0.00  0.00    -0.080 HD
ENDROOT
BRANCH   2   9
ATOM      8  O   UNL     1      33.502  -7.224 -21.989  0.00  0.00    -0.449 OA
ATOM      9  C   UNL     1      33.271 -10.718 -24.172  0.00  0.00    +0.048 C 
ATOM     10  C   UNL     1      32.351 -10.399 -23.143  0.00  0.00    +0.018 C 
ATOM     11  C   UNL     1      34.309  -9.806 -24.467  0.00  0.00    +0.018 C 
ATOM     12  C   UNL     1      32.485  -9.191 -22.436  0.00  0.00    +0.039 C 
ATOM     13  C   UNL     1      33.530  -8.337 -22.775  0.00  0.00    +0.146 C 
ATOM     14  C   UNL     1      34.462  -8.600 -23.777  0.00  0.00    +0.039 C 
ATOM     15  C   UNL     1      31.788  -8.549 -21.380  0.00  0.00    +0.045 C 
ATOM     16  C   UNL     1      32.443  -7.362 -21.147  0.00  0.00    +0.198 C 
BRANCH  16  19
ATOM     17  O   UNL     1      32.710  -6.239 -19.070  0.00  0.00    -0.267 OA
ATOM     18  N   UNL     1      31.292  -5.303 -20.574  0.00  0.00    -0.323 N 
ATOM     19  C   UNL     1      32.194  -6.317 -20.214  0.00  0.00    +0.277 C 
ATOM     20  H   UNL     1      31.101  -4.569 -19.947  0.00  0.00    +0.145 HD
ATOM     21  H   UNL     1      30.849  -5.327 -21.453  0.00  0.00    +0.145 HD
ENDBRANCH  16  19
ENDBRANCH   2   9
BRANCH   1  22
ATOM     22  C   UNL     1      33.009 -15.586 -26.992  0.00  0.00    -0.077 C 
BRANCH  22  23
ATOM     23  C   UNL     1      32.055 -16.716 -26.607  0.00  0.00    -0.022 C 
BRANCH  23  24
ATOM     24  C   UNL     1      32.821 -17.995 -26.267  0.00  0.00    +0.003 C 
BRANCH  24  25
ATOM     25  C   UNL     1      32.584 -18.418 -24.814  0.00  0.00    +0.028 C 
BRANCH  25  27
ATOM     26  N   UNL     1      35.855 -17.800 -23.314  0.00  0.00    -0.312 N 
ATOM     27  C   UNL     1      33.830 -18.331 -23.984  0.00  0.00    -0.006 C 
ATOM     28  C   UNL     1      34.034 -18.951 -22.735  0.00  0.00    +0.011 C 
ATOM     29  C   UNL     1      34.949 -17.631 -24.326  0.00  0.00    +0.058 C 
ATOM     30  C   UNL     1      35.323 -18.601 -22.328  0.00  0.00    +0.048 C 
ATOM     31  C   UNL     1      33.260 -19.778 -21.896  0.00  0.00    +0.011 C 
ATOM     32  C   UNL     1      35.880 -19.040 -21.122  0.00  0.00    +0.015 C 
ATOM     33  C   UNL     1      33.803 -20.224 -20.686  0.00  0.00    +0.069 C 
ATOM     34  C   UNL     1      35.093 -19.859 -20.306  0.00  0.00    +0.012 C 
ATOM     35  H   UNL     1      36.757 -17.405 -23.293  0.00  0.00    +0.152 HD
BRANCH  33  37
ATOM     36  N   UNL     1      32.390 -21.746 -19.137  0.00  0.00    -0.191 NA
ATOM     37  C   UNL     1      33.024 -21.064 -19.831  0.00  0.00    +0.100 C 
ENDBRANCH  33  37
ENDBRANCH  25  27
ENDBRANCH  24  25
ENDBRANCH  23  24
ENDBRANCH  22  23
ENDBRANCH   1  22
TORSDOF 8
ENDMDL
MODEL 9
REMARK VINA RESULT:     -11.6      2.822      4.147
REMARK  Name = 6918314
REMARK  8 active torsions:
REMARK  status: ('A' for Active; 'I' for Inactive)
REMARK    1  A    between atoms: N_1  and  C_22
REMARK    2  A    between atoms: N_2  and  C_9
REMARK    3  A    between atoms: C_16  and  C_19
REMARK    4  A    between atoms: C_22  and  C_23
REMARK    5  A    between atoms: C_23  and  C_24
REMARK    6  A    between atoms: C_24  and  C_25
REMARK    7  A    between atoms: C_25  and  C_27
REMARK    8  A    between atoms: C_33  and  C_37
REMARK                            x       y       z     vdW  Elec       q    Type
REMARK                         _______ _______ _______ _____ _____    ______ ____
ROOT
ATOM      1  N   UNL     1      35.564 -20.963 -20.131  0.00  0.00    +0.389 N 
ATOM      2  N   UNL     1      34.860 -18.699 -21.722  0.00  0.00    -0.312 N 
ATOM      3  C   UNL     1      34.163 -20.537 -20.238  0.00  0.00    -0.055 C 
ATOM      4  C   UNL     1      36.447 -19.793 -20.189  0.00  0.00    -0.055 C 
ATOM      5  C   UNL     1      33.910 -19.806 -21.557  0.00  0.00    +0.068 C 
ATOM      6  C   UNL     1      36.271 -19.035 -21.506  0.00  0.00    +0.068 C 
ATOM      7  H   UNL     1      35.782 -21.579 -20.914  0.00  0.00    -0.080 HD
ENDROOT
BRANCH   2   9
ATOM      8  O   UNL     1      33.458 -14.724 -25.297  0.00  0.00    -0.449 OA
ATOM      9  C   UNL     1      34.519 -17.665 -22.604  0.00  0.00    +0.048 C 
ATOM     10  C   UNL     1      33.891 -17.953 -23.840  0.00  0.00    +0.018 C 
ATOM     11  C   UNL     1      34.797 -16.319 -22.276  0.00  0.00    +0.018 C 
ATOM     12  C   UNL     1      33.555 -16.904 -24.714  0.00  0.00    +0.039 C 
ATOM     13  C   UNL     1      33.854 -15.601 -24.332  0.00  0.00    +0.146 C 
ATOM     14  C   UNL     1      34.471 -15.260 -23.129  0.00  0.00    +0.039 C 
ATOM     15  C   UNL     1      32.940 -16.802 -25.989  0.00  0.00    +0.045 C 
ATOM     16  C   UNL     1      32.906 -15.461 -26.296  0.00  0.00    +0.198 C 
BRANCH  16  19
ATOM     17  O   UNL     1      32.911 -13.722 -27.915  0.00  0.00    -0.267 OA
ATOM     18  N   UNL     1      31.260 -15.271 -28.072  0.00  0.00    -0.323 N 
ATOM     19  C   UNL     1      32.409 -14.770 -27.437  0.00  0.00    +0.277 C 
ATOM     20  H   UNL     1      30.895 -14.812 -28.862  0.00  0.00    +0.145 HD
ATOM     21  H   UNL     1      30.820 -16.080 -27.726  0.00  0.00    +0.145 HD
ENDBRANCH  16  19
ENDBRANCH   2   9
BRANCH   1  22
ATOM     22  C   UNL     1      35.780 -21.708 -18.891  0.00  0.00    -0.077 C 
BRANCH  22  23
ATOM     23  C   UNL     1      34.445 -22.170 -18.309  0.00  0.00    -0.022 C 
BRANCH  23  24
ATOM     24  C   UNL     1      34.644 -22.892 -16.975  0.00  0.00    +0.003 C 
BRANCH  24  25
ATOM     25  C   UNL     1      35.653 -22.157 -16.088  0.00  0.00    +0.028 C 
BRANCH  25  27
ATOM     26  N   UNL     1      38.665 -24.172 -15.635  0.00  0.00    -0.312 N 
ATOM     27  C   UNL     1      36.776 -23.047 -15.645  0.00  0.00    -0.006 C 
ATOM     28  C   UNL     1      36.857 -23.718 -14.407  0.00  0.00    +0.011 C 
ATOM     29  C   UNL     1      37.885 -23.332 -16.384  0.00  0.00    +0.058 C 
ATOM     30  C   UNL     1      38.062 -24.424 -14.422  0.00  0.00    +0.048 C 
ATOM     31  C   UNL     1      36.035 -23.804 -13.266  0.00  0.00    +0.011 C 
ATOM     32  C   UNL     1      38.486 -25.216 -13.350  0.00  0.00    +0.015 C 
ATOM     33  C   UNL     1      36.447 -24.592 -12.186  0.00  0.00    +0.069 C 
ATOM     34  C   UNL     1      37.654 -25.287 -12.228  0.00  0.00    +0.012 C 
ATOM     35  H   UNL     1      39.531 -24.542 -15.920  0.00  0.00    +0.152 HD
BRANCH  33  37
ATOM     36  N   UNL     1      34.942 -24.760 -10.083  0.00  0.00    -0.191 NA
ATOM     37  C   UNL     1      35.616 -24.685 -11.025  0.00  0.00    +0.100 C 
ENDBRANCH  33  37
ENDBRANCH  25  27
ENDBRANCH  24  25
ENDBRANCH  23  24
ENDBRANCH  22  23
ENDBRANCH   1  22
TORSDOF 8
ENDMDL
