MODEL 1
REMARK VINA RESULT:     -15.2      0.000      0.000
REMARK  Name = 76958312
REMARK  3 active torsions:
REMARK  status: ('A' for Active; 'I' for Inactive)
REMARK    1  A    between atoms: C_16  and  C_21
REMARK    2  A    between atoms: C_26  and  N_28
REMARK    3  A    between atoms: N_29  and  C_34
REMARK                            x       y       z     vdW  Elec       q    Type
REMARK                         _______ _______ _______ _____ _____    ______ ____
ROOT
ATOM      1  O   UNL     1      30.074 -22.901 -13.531  0.00  0.00    -0.350 OA
ATOM      2  O   UNL     1      38.012 -25.039 -12.928  0.00  0.00    -0.350 OA
ATOM      3  N   UNL     1      31.327 -24.413 -15.569  0.00  0.00    -0.231 N 
ATOM      4  N   UNL     1      33.578 -24.464 -15.078  0.00  0.00    -0.246 NA
ATOM      5  N   UNL     1      32.740 -23.265 -16.981  0.00  0.00    -0.260 NA
ATOM      6  N   UNL     1      35.874 -24.460 -14.658  0.00  0.00    -0.228 N 
ATOM      7  N   UNL     1      35.094 -23.284 -16.516  0.00  0.00    -0.260 NA
ATOM      8  C   UNL     1      31.000 -25.047 -14.291  0.00  0.00    +0.114 C 
ATOM      9  C   UNL     1      30.162 -23.586 -15.889  0.00  0.00    +0.114 C 
ATOM     10  C   UNL     1      29.557 -25.520 -14.540  0.00  0.00    +0.025 C 
ATOM     11  C   UNL     1      29.004 -24.555 -15.596  0.00  0.00    +0.025 C 
ATOM     12  C   UNL     1      30.171 -22.420 -14.882  0.00  0.00    +0.163 C 
ATOM     13  C   UNL     1      31.035 -23.928 -13.234  0.00  0.00    +0.163 C 
ATOM     14  C   UNL     1      32.598 -24.033 -15.889  0.00  0.00    +0.224 C 
ATOM     15  C   UNL     1      34.799 -24.050 -15.453  0.00  0.00    +0.224 C 
ATOM     16  C   UNL     1      34.015 -22.929 -17.232  0.00  0.00    +0.163 C 
ATOM     17  C   UNL     1      37.238 -24.048 -15.003  0.00  0.00    +0.135 C 
ATOM     18  C   UNL     1      35.631 -24.684 -13.225  0.00  0.00    +0.135 C 
ATOM     19  C   UNL     1      36.721 -25.583 -12.654  0.00  0.00    +0.164 C 
ATOM     20  C   UNL     1      38.243 -24.981 -14.335  0.00  0.00    +0.164 C 
ENDROOT
BRANCH  16  21
ATOM     21  C   UNL     1      34.252 -22.105 -18.389  0.00  0.00    +0.087 C 
ATOM     22  C   UNL     1      35.557 -21.786 -18.764  0.00  0.00    +0.013 C 
ATOM     23  C   UNL     1      33.175 -21.624 -19.134  0.00  0.00    +0.013 C 
ATOM     24  C   UNL     1      35.785 -20.987 -19.884  0.00  0.00    +0.015 C 
ATOM     25  C   UNL     1      33.404 -20.825 -20.254  0.00  0.00    +0.015 C 
ATOM     26  C   UNL     1      34.709 -20.507 -20.629  0.00  0.00    +0.052 C 
BRANCH  26  28
ATOM     27  O   UNL     1      32.788 -19.393 -22.626  0.00  0.00    -0.252 OA
ATOM     28  N   UNL     1      34.937 -19.708 -21.750  0.00  0.00    -0.268 N 
ATOM     29  N   UNL     1      34.656 -18.436 -23.658  0.00  0.00    -0.268 N 
ATOM     30  C   UNL     1      33.998 -19.196 -22.678  0.00  0.00    +0.308 C 
ATOM     31  H   UNL     1      35.878 -19.468 -21.918  0.00  0.00    +0.156 HD
ATOM     32  H   UNL     1      35.634 -18.369 -23.567  0.00  0.00    +0.156 HD
BRANCH  29  34
ATOM     33  N   UNL     1      32.962 -16.415 -26.939  0.00  0.00    -0.242 NA
ATOM     34  C   UNL     1      34.087 -17.756 -24.760  0.00  0.00    +0.055 C 
ATOM     35  C   UNL     1      33.167 -18.402 -25.579  0.00  0.00    +0.035 C 
ATOM     36  C   UNL     1      34.445 -16.441 -25.030  0.00  0.00    +0.035 C 
ATOM     37  C   UNL     1      32.638 -17.695 -26.645  0.00  0.00    +0.100 C 
ATOM     38  C   UNL     1      33.859 -15.820 -26.122  0.00  0.00    +0.100 C 
ENDBRANCH  29  34
ENDBRANCH  26  28
ENDBRANCH  16  21
TORSDOF 3
ENDMDL
MODEL 2
REMARK VINA RESULT:     -14.7      1.020      4.623
REMARK  Name = 76958312
REMARK  3 active torsions:
REMARK  status: ('A' for Active; 'I' for Inactive)
REMARK    1  A    between atoms: C_16  and  C_21
REMARK    2  A    between atoms: C_26  and  N_28
REMARK    3  A    between atoms: N_29  and  C_34
REMARK                            x       y       z     vdW  Elec       q    Type
REMARK                         _______ _______ _______ _____ _____    ______ ____
ROOT
ATOM      1  O   UNL     1      37.402 -26.903 -14.439  0.00  0.00    -0.350 OA
ATOM      2  O   UNL     1      29.439 -24.817 -14.013  0.00  0.00    -0.350 OA
ATOM      3  N   UNL     1      36.625 -24.195 -14.174  0.00  0.00    -0.231 N 
ATOM      4  N   UNL     1      34.335 -24.127 -14.421  0.00  0.00    -0.246 NA
ATOM      5  N   UNL     1      35.798 -23.171 -16.065  0.00  0.00    -0.260 NA
ATOM      6  N   UNL     1      32.028 -24.013 -14.754  0.00  0.00    -0.228 N 
ATOM      7  N   UNL     1      33.421 -23.074 -16.374  0.00  0.00    -0.260 NA
ATOM      8  C   UNL     1      36.509 -25.099 -13.029  0.00  0.00    +0.114 C 
ATOM      9  C   UNL     1      37.913 -24.525 -14.786  0.00  0.00    +0.114 C 
ATOM     10  C   UNL     1      37.904 -24.977 -12.394  0.00  0.00    +0.025 C 
ATOM     11  C   UNL     1      38.832 -24.597 -13.554  0.00  0.00    +0.025 C 
ATOM     12  C   UNL     1      37.742 -25.916 -15.426  0.00  0.00    +0.163 C 
ATOM     13  C   UNL     1      36.293 -26.508 -13.613  0.00  0.00    +0.163 C 
ATOM     14  C   UNL     1      35.544 -23.815 -14.915  0.00  0.00    +0.224 C 
ATOM     15  C   UNL     1      33.320 -23.725 -15.203  0.00  0.00    +0.224 C 
ATOM     16  C   UNL     1      34.689 -22.832 -16.741  0.00  0.00    +0.163 C 
ATOM     17  C   UNL     1      30.868 -23.606 -15.555  0.00  0.00    +0.135 C 
ATOM     18  C   UNL     1      31.830 -25.215 -13.932  0.00  0.00    +0.135 C 
ATOM     19  C   UNL     1      30.534 -25.088 -13.139  0.00  0.00    +0.164 C 
ATOM     20  C   UNL     1      29.623 -23.566 -14.675  0.00  0.00    +0.164 C 
ENDROOT
BRANCH  16  21
ATOM     21  C   UNL     1      34.878 -22.136 -17.988  0.00  0.00    +0.087 C 
ATOM     22  C   UNL     1      36.146 -21.677 -18.345  0.00  0.00    +0.013 C 
ATOM     23  C   UNL     1      33.792 -21.922 -18.837  0.00  0.00    +0.013 C 
ATOM     24  C   UNL     1      36.328 -21.004 -19.554  0.00  0.00    +0.015 C 
ATOM     25  C   UNL     1      33.975 -21.248 -20.045  0.00  0.00    +0.015 C 
ATOM     26  C   UNL     1      35.243 -20.789 -20.403  0.00  0.00    +0.052 C 
BRANCH  26  28
ATOM     27  O   UNL     1      33.281 -19.306 -22.097  0.00  0.00    -0.252 OA
ATOM     28  N   UNL     1      35.425 -20.115 -21.611  0.00  0.00    -0.268 N 
ATOM     29  N   UNL     1      35.077 -18.887 -23.536  0.00  0.00    -0.268 N 
ATOM     30  C   UNL     1      34.468 -19.420 -22.389  0.00  0.00    +0.308 C 
ATOM     31  H   UNL     1      36.342 -20.124 -21.971  0.00  0.00    +0.156 HD
ATOM     32  H   UNL     1      36.041 -19.062 -23.634  0.00  0.00    +0.156 HD
BRANCH  29  34
ATOM     33  N   UNL     1      33.290 -16.631 -26.608  0.00  0.00    -0.242 NA
ATOM     34  C   UNL     1      34.476 -18.128 -24.568  0.00  0.00    +0.055 C 
ATOM     35  C   UNL     1      33.714 -18.759 -25.544  0.00  0.00    +0.035 C 
ATOM     36  C   UNL     1      34.647 -16.749 -24.611  0.00  0.00    +0.035 C 
ATOM     37  C   UNL     1      33.147 -17.973 -26.534  0.00  0.00    +0.100 C 
ATOM     38  C   UNL     1      34.037 -16.052 -25.642  0.00  0.00    +0.100 C 
ENDBRANCH  29  34
ENDBRANCH  26  28
ENDBRANCH  16  21
TORSDOF 3
ENDMDL
