MODEL 1
REMARK VINA RESULT:     -11.3      0.000      0.000
REMARK  Name = 115368
REMARK  5 active torsions:
REMARK  status: ('A' for Active; 'I' for Inactive)
REMARK    1  A    between atoms: N_2  and  C_17
REMARK    2  A    between atoms: C_17  and  C_18
REMARK    3  A    between atoms: C_18  and  C_19
REMARK    4  A    between atoms: C_19  and  C_20
REMARK    5  A    between atoms: C_20  and  N_23
REMARK                            x       y       z     vdW  Elec       q    Type
REMARK                         _______ _______ _______ _____ _____    ______ ____
ROOT
ATOM      1  S   UNL     1      35.712 -24.786 -12.191  0.00  0.00    +0.014 S 
ATOM      2  N   UNL     1      34.352 -22.029 -18.053  0.00  0.00    +0.389 N 
ATOM      3  N   UNL     1      35.146 -23.156 -15.550  0.00  0.00    -0.297 N 
ATOM      4  N   UNL     1      34.850 -23.921 -13.309  0.00  0.00    -0.194 NA
ATOM      5  C   UNL     1      35.756 -21.988 -17.626  0.00  0.00    -0.055 C 
ATOM      6  C   UNL     1      33.700 -23.239 -17.536  0.00  0.00    -0.055 C 
ATOM      7  C   UNL     1      35.874 -22.007 -16.100  0.00  0.00    +0.069 C 
ATOM      8  C   UNL     1      33.757 -23.271 -16.008  0.00  0.00    +0.069 C 
ATOM      9  C   UNL     1      35.579 -23.818 -14.422  0.00  0.00    +0.140 A 
ATOM     10  C   UNL     1      36.876 -24.440 -14.413  0.00  0.00    +0.040 A 
ATOM     11  C   UNL     1      37.098 -25.048 -13.176  0.00  0.00    +0.050 A 
ATOM     12  C   UNL     1      37.887 -24.524 -15.396  0.00  0.00    +0.003 C 
ATOM     13  C   UNL     1      38.286 -25.734 -12.883  0.00  0.00    +0.008 C 
ATOM     14  C   UNL     1      39.074 -25.206 -15.114  0.00  0.00    +0.000 C 
ATOM     15  C   UNL     1      39.270 -25.801 -13.873  0.00  0.00    +0.001 C 
ATOM     16  H   UNL     1      33.872 -21.213 -17.674  0.00  0.00    -0.080 HD
ENDROOT
BRANCH   2  17
ATOM     17  C   UNL     1      34.256 -21.977 -19.512  0.00  0.00    -0.077 C 
BRANCH  17  18
ATOM     18  C   UNL     1      32.934 -21.340 -19.935  0.00  0.00    -0.021 C 
BRANCH  18  19
ATOM     19  C   UNL     1      33.170 -20.058 -20.740  0.00  0.00    +0.020 C 
BRANCH  19  20
ATOM     20  C   UNL     1      34.645 -19.823 -21.048  0.00  0.00    +0.101 C 
BRANCH  20  23
ATOM     21  O   UNL     1      34.774 -16.891 -20.670  0.00  0.00    -0.274 OA
ATOM     22  O   UNL     1      34.967 -20.150 -23.945  0.00  0.00    -0.274 OA
ATOM     23  N   UNL     1      34.842 -18.788 -22.044  0.00  0.00    -0.230 N 
ATOM     24  C   UNL     1      35.356 -16.752 -23.029  0.00  0.00    +0.086 C 
ATOM     25  C   UNL     1      34.909 -17.731 -24.121  0.00  0.00    +0.086 C 
ATOM     26  C   UNL     1      34.868 -15.316 -23.173  0.00  0.00    +0.010 C 
ATOM     27  C   UNL     1      33.490 -17.497 -24.649  0.00  0.00    +0.010 C 
ATOM     28  C   UNL     1      33.418 -15.212 -23.627  0.00  0.00    +0.001 C 
ATOM     29  C   UNL     1      33.186 -16.026 -24.893  0.00  0.00    +0.001 C 
ATOM     30  C   UNL     1      34.932 -17.440 -21.749  0.00  0.00    +0.231 C 
ATOM     31  C   UNL     1      34.939 -19.058 -23.396  0.00  0.00    +0.231 C 
ENDBRANCH  20  23
ENDBRANCH  19  20
ENDBRANCH  18  19
ENDBRANCH  17  18
ENDBRANCH   2  17
TORSDOF 5
ENDMDL
MODEL 2
REMARK VINA RESULT:     -11.2      4.926     11.534
REMARK  Name = 115368
REMARK  5 active torsions:
REMARK  status: ('A' for Active; 'I' for Inactive)
REMARK    1  A    between atoms: N_2  and  C_17
REMARK    2  A    between atoms: C_17  and  C_18
REMARK    3  A    between atoms: C_18  and  C_19
REMARK    4  A    between atoms: C_19  and  C_20
REMARK    5  A    between atoms: C_20  and  N_23
REMARK                            x       y       z     vdW  Elec       q    Type
REMARK                         _______ _______ _______ _____ _____    ______ ____
ROOT
ATOM      1  S   UNL     1      32.341  -9.645 -23.754  0.00  0.00    +0.014 S 
ATOM      2  N   UNL     1      34.163 -15.980 -24.364  0.00  0.00    +0.389 N 
ATOM      3  N   UNL     1      33.421 -13.261 -23.888  0.00  0.00    -0.297 N 
ATOM      4  N   UNL     1      33.062 -10.968 -24.442  0.00  0.00    -0.194 NA
ATOM      5  C   UNL     1      34.182 -15.427 -23.005  0.00  0.00    -0.055 C 
ATOM      6  C   UNL     1      33.101 -15.343 -25.156  0.00  0.00    -0.055 C 
ATOM      7  C   UNL     1      34.411 -13.912 -23.024  0.00  0.00    +0.069 C 
ATOM      8  C   UNL     1      33.322 -13.832 -25.237  0.00  0.00    +0.069 C 
ATOM      9  C   UNL     1      32.929 -12.005 -23.612  0.00  0.00    +0.140 A 
ATOM     10  C   UNL     1      32.234 -11.766 -22.375  0.00  0.00    +0.040 A 
ATOM     11  C   UNL     1      31.827 -10.432 -22.313  0.00  0.00    +0.050 A 
ATOM     12  C   UNL     1      31.920 -12.617 -21.292  0.00  0.00    +0.003 C 
ATOM     13  C   UNL     1      31.124  -9.915 -21.215  0.00  0.00    +0.008 C 
ATOM     14  C   UNL     1      31.219 -12.112 -20.193  0.00  0.00    +0.000 C 
ATOM     15  C   UNL     1      30.827 -10.778 -20.157  0.00  0.00    +0.001 C 
ATOM     16  H   UNL     1      35.060 -15.786 -24.809  0.00  0.00    -0.080 HD
ENDROOT
BRANCH   2  17
ATOM     17  C   UNL     1      33.976 -17.430 -24.327  0.00  0.00    -0.077 C 
BRANCH  17  18
ATOM     18  C   UNL     1      34.717 -18.031 -23.133  0.00  0.00    -0.021 C 
BRANCH  18  19
ATOM     19  C   UNL     1      33.863 -19.091 -22.430  0.00  0.00    +0.020 C 
BRANCH  19  20
ATOM     20  C   UNL     1      33.968 -19.015 -20.911  0.00  0.00    +0.101 C 
BRANCH  20  23
ATOM     21  O   UNL     1      32.143 -20.952 -19.617  0.00  0.00    -0.274 OA
ATOM     22  O   UNL     1      36.599 -20.288 -20.661  0.00  0.00    -0.274 OA
ATOM     23  N   UNL     1      34.283 -20.298 -20.314  0.00  0.00    -0.230 N 
ATOM     24  C   UNL     1      34.057 -22.448 -19.472  0.00  0.00    +0.086 C 
ATOM     25  C   UNL     1      35.523 -22.017 -19.343  0.00  0.00    +0.086 C 
ATOM     26  C   UNL     1      33.484 -23.240 -18.304  0.00  0.00    +0.010 C 
ATOM     27  C   UNL     1      35.954 -21.631 -17.924  0.00  0.00    +0.010 C 
ATOM     28  C   UNL     1      33.919 -22.712 -16.943  0.00  0.00    +0.001 C 
ATOM     29  C   UNL     1      35.435 -22.595 -16.866  0.00  0.00    +0.001 C 
ATOM     30  C   UNL     1      33.338 -21.150 -19.772  0.00  0.00    +0.231 C 
ATOM     31  C   UNL     1      35.574 -20.780 -20.212  0.00  0.00    +0.231 C 
ENDBRANCH  20  23
ENDBRANCH  19  20
ENDBRANCH  18  19
ENDBRANCH  17  18
ENDBRANCH   2  17
TORSDOF 5
ENDMDL
MODEL 3
REMARK VINA RESULT:     -11.2      9.735     12.684
REMARK  Name = 115368
REMARK  5 active torsions:
REMARK  status: ('A' for Active; 'I' for Inactive)
REMARK    1  A    between atoms: N_2  and  C_17
REMARK    2  A    between atoms: C_17  and  C_18
REMARK    3  A    between atoms: C_18  and  C_19
REMARK    4  A    between atoms: C_19  and  C_20
REMARK    5  A    between atoms: C_20  and  N_23
REMARK                            x       y       z     vdW  Elec       q    Type
REMARK                         _______ _______ _______ _____ _____    ______ ____
ROOT
ATOM      1  S   UNL     1      31.434 -16.724 -27.387  0.00  0.00    +0.014 S 
ATOM      2  N   UNL     1      34.243 -10.947 -25.792  0.00  0.00    +0.389 N 
ATOM      3  N   UNL     1      33.048 -13.498 -26.271  0.00  0.00    -0.297 N 
ATOM      4  N   UNL     1      31.672 -15.086 -27.402  0.00  0.00    -0.194 NA
ATOM      5  C   UNL     1      34.110 -11.925 -24.706  0.00  0.00    -0.055 C 
ATOM      6  C   UNL     1      34.436 -11.636 -27.075  0.00  0.00    -0.055 C 
ATOM      7  C   UNL     1      32.929 -12.870 -24.951  0.00  0.00    +0.069 C 
ATOM      8  C   UNL     1      33.252 -12.555 -27.377  0.00  0.00    +0.069 C 
ATOM      9  C   UNL     1      32.614 -14.784 -26.506  0.00  0.00    +0.140 A 
ATOM     10  C   UNL     1      33.183 -15.877 -25.764  0.00  0.00    +0.040 A 
ATOM     11  C   UNL     1      32.596 -17.077 -26.168  0.00  0.00    +0.050 A 
ATOM     12  C   UNL     1      34.178 -15.918 -24.761  0.00  0.00    +0.003 C 
ATOM     13  C   UNL     1      32.960 -18.312 -25.611  0.00  0.00    +0.008 C 
ATOM     14  C   UNL     1      34.548 -17.143 -24.200  0.00  0.00    +0.000 C 
ATOM     15  C   UNL     1      33.945 -18.324 -24.620  0.00  0.00    +0.001 C 
ATOM     16  H   UNL     1      33.384 -10.398 -25.843  0.00  0.00    -0.080 HD
ENDROOT
BRANCH   2  17
ATOM     17  C   UNL     1      35.354 -10.032 -25.527  0.00  0.00    -0.077 C 
BRANCH  17  18
ATOM     18  C   UNL     1      34.825  -8.664 -25.101  0.00  0.00    -0.021 C 
BRANCH  18  19
ATOM     19  C   UNL     1      34.835  -8.518 -23.575  0.00  0.00    +0.020 C 
BRANCH  19  20
ATOM     20  C   UNL     1      33.717  -7.615 -23.065  0.00  0.00    +0.101 C 
BRANCH  20  23
ATOM     21  O   UNL     1      33.060  -7.738 -20.183  0.00  0.00    -0.274 OA
ATOM     22  O   UNL     1      31.743  -9.406 -24.290  0.00  0.00    -0.274 OA
ATOM     23  N   UNL     1      32.662  -8.360 -22.407  0.00  0.00    -0.230 N 
ATOM     24  C   UNL     1      31.110  -9.046 -20.825  0.00  0.00    +0.086 C 
ATOM     25  C   UNL     1      31.013  -9.967 -22.046  0.00  0.00    +0.086 C 
ATOM     26  C   UNL     1      30.981  -9.717 -19.464  0.00  0.00    +0.010 C 
ATOM     27  C   UNL     1      31.645 -11.350 -21.856  0.00  0.00    +0.010 C 
ATOM     28  C   UNL     1      31.719 -11.046 -19.372  0.00  0.00    +0.001 C 
ATOM     29  C   UNL     1      31.310 -11.973 -20.509  0.00  0.00    +0.001 C 
ATOM     30  C   UNL     1      32.415  -8.309 -21.048  0.00  0.00    +0.231 C 
ATOM     31  C   UNL     1      31.812  -9.213 -23.085  0.00  0.00    +0.231 C 
ENDBRANCH  20  23
ENDBRANCH  19  20
ENDBRANCH  18  19
ENDBRANCH  17  18
ENDBRANCH   2  17
TORSDOF 5
ENDMDL
MODEL 4
REMARK VINA RESULT:     -11.0      4.021     11.105
REMARK  Name = 115368
REMARK  5 active torsions:
REMARK  status: ('A' for Active; 'I' for Inactive)
REMARK    1  A    between atoms: N_2  and  C_17
REMARK    2  A    between atoms: C_17  and  C_18
REMARK    3  A    between atoms: C_18  and  C_19
REMARK    4  A    between atoms: C_19  and  C_20
REMARK    5  A    between atoms: C_20  and  N_23
REMARK                            x       y       z     vdW  Elec       q    Type
REMARK                         _______ _______ _______ _____ _____    ______ ____
ROOT
ATOM      1  S   UNL     1      33.373 -15.135 -26.739  0.00  0.00    +0.014 S 
ATOM      2  N   UNL     1      34.700 -19.347 -21.808  0.00  0.00    +0.389 N 
ATOM      3  N   UNL     1      34.232 -17.374 -23.822  0.00  0.00    -0.297 N 
ATOM      4  N   UNL     1      33.812 -16.564 -26.027  0.00  0.00    -0.194 NA
ATOM      5  C   UNL     1      35.137 -17.959 -21.612  0.00  0.00    -0.055 C 
ATOM      6  C   UNL     1      33.478 -19.383 -22.623  0.00  0.00    -0.055 C 
ATOM      7  C   UNL     1      35.406 -17.267 -22.951  0.00  0.00    +0.069 C 
ATOM      8  C   UNL     1      33.722 -18.740 -23.989  0.00  0.00    +0.069 C 
ATOM      9  C   UNL     1      33.889 -16.376 -24.708  0.00  0.00    +0.140 A 
ATOM     10  C   UNL     1      33.595 -15.057 -24.217  0.00  0.00    +0.040 A 
ATOM     11  C   UNL     1      33.275 -14.217 -25.286  0.00  0.00    +0.050 A 
ATOM     12  C   UNL     1      33.581 -14.519 -22.911  0.00  0.00    +0.003 C 
ATOM     13  C   UNL     1      32.943 -12.867 -25.103  0.00  0.00    +0.008 C 
ATOM     14  C   UNL     1      33.251 -13.174 -22.718  0.00  0.00    +0.000 C 
ATOM     15  C   UNL     1      32.937 -12.360 -23.801  0.00  0.00    +0.001 C 
ATOM     16  H   UNL     1      35.435 -19.854 -22.301  0.00  0.00    -0.080 HD
ENDROOT
BRANCH   2  17
ATOM     17  C   UNL     1      34.479 -20.003 -20.519  0.00  0.00    -0.077 C 
BRANCH  17  18
ATOM     18  C   UNL     1      33.068 -20.585 -20.455  0.00  0.00    -0.021 C 
BRANCH  18  19
ATOM     19  C   UNL     1      32.866 -21.407 -19.178  0.00  0.00    +0.020 C 
BRANCH  19  20
ATOM     20  C   UNL     1      33.895 -22.524 -19.031  0.00  0.00    +0.101 C 
BRANCH  20  23
ATOM     21  O   UNL     1      36.573 -22.056 -17.864  0.00  0.00    -0.274 OA
ATOM     22  O   UNL     1      32.316 -23.477 -16.751  0.00  0.00    -0.274 OA
ATOM     23  N   UNL     1      34.329 -22.698 -17.659  0.00  0.00    -0.230 N 
ATOM     24  C   UNL     1      35.558 -22.516 -15.701  0.00  0.00    +0.086 C 
ATOM     25  C   UNL     1      34.364 -23.445 -15.451  0.00  0.00    +0.086 C 
ATOM     26  C   UNL     1      36.875 -22.925 -15.052  0.00  0.00    +0.010 C 
ATOM     27  C   UNL     1      34.714 -24.936 -15.395  0.00  0.00    +0.010 C 
ATOM     28  C   UNL     1      37.150 -24.421 -15.130  0.00  0.00    +0.001 C 
ATOM     29  C   UNL     1      35.972 -25.218 -14.587  0.00  0.00    +0.001 C 
ATOM     30  C   UNL     1      35.603 -22.404 -17.210  0.00  0.00    +0.231 C 
ATOM     31  C   UNL     1      33.504 -23.200 -16.671  0.00  0.00    +0.231 C 
ENDBRANCH  20  23
ENDBRANCH  19  20
ENDBRANCH  18  19
ENDBRANCH  17  18
ENDBRANCH   2  17
TORSDOF 5
ENDMDL
MODEL 5
REMARK VINA RESULT:     -11.0      4.596     10.841
REMARK  Name = 115368
REMARK  5 active torsions:
REMARK  status: ('A' for Active; 'I' for Inactive)
REMARK    1  A    between atoms: N_2  and  C_17
REMARK    2  A    between atoms: C_17  and  C_18
REMARK    3  A    between atoms: C_18  and  C_19
REMARK    4  A    between atoms: C_19  and  C_20
REMARK    5  A    between atoms: C_20  and  N_23
REMARK                            x       y       z     vdW  Elec       q    Type
REMARK                         _______ _______ _______ _____ _____    ______ ____
ROOT
ATOM      1  S   UNL     1      33.177 -16.235 -25.907  0.00  0.00    +0.014 S 
ATOM      2  N   UNL     1      35.541 -20.067 -21.055  0.00  0.00    +0.389 N 
ATOM      3  N   UNL     1      34.661 -18.258 -23.086  0.00  0.00    -0.297 N 
ATOM      4  N   UNL     1      33.706 -17.624 -25.178  0.00  0.00    -0.194 NA
ATOM      5  C   UNL     1      36.098 -18.712 -21.142  0.00  0.00    -0.055 C 
ATOM      6  C   UNL     1      34.143 -20.070 -21.507  0.00  0.00    -0.055 C 
ATOM      7  C   UNL     1      36.033 -18.175 -22.575  0.00  0.00    +0.069 C 
ATOM      8  C   UNL     1      34.043 -19.583 -22.954  0.00  0.00    +0.069 C 
ATOM      9  C   UNL     1      34.152 -17.322 -23.957  0.00  0.00    +0.140 A 
ATOM     10  C   UNL     1      34.084 -15.941 -23.561  0.00  0.00    +0.040 A 
ATOM     11  C   UNL     1      33.535 -15.180 -24.596  0.00  0.00    +0.050 A 
ATOM     12  C   UNL     1      34.459 -15.283 -22.368  0.00  0.00    +0.003 C 
ATOM     13  C   UNL     1      33.349 -13.794 -24.487  0.00  0.00    +0.008 C 
ATOM     14  C   UNL     1      34.277 -13.903 -22.250  0.00  0.00    +0.000 C 
ATOM     15  C   UNL     1      33.730 -13.169 -23.297  0.00  0.00    +0.001 C 
ATOM     16  H   UNL     1      36.081 -20.682 -21.664  0.00  0.00    -0.080 HD
ENDROOT
BRANCH   2  17
ATOM     17  C   UNL     1      35.640 -20.578 -19.688  0.00  0.00    -0.077 C 
BRANCH  17  18
ATOM     18  C   UNL     1      35.006 -21.964 -19.591  0.00  0.00    -0.021 C 
BRANCH  18  19
ATOM     19  C   UNL     1      34.586 -22.281 -18.152  0.00  0.00    +0.020 C 
BRANCH  19  20
ATOM     20  C   UNL     1      33.489 -23.338 -18.080  0.00  0.00    +0.101 C 
BRANCH  20  23
ATOM     21  O   UNL     1      34.100 -24.174 -15.309  0.00  0.00    -0.274 OA
ATOM     22  O   UNL     1      30.793 -22.203 -17.870  0.00  0.00    -0.274 OA
ATOM     23  N   UNL     1      32.670 -23.204 -16.892  0.00  0.00    -0.230 N 
ATOM     24  C   UNL     1      32.025 -23.075 -14.667  0.00  0.00    +0.086 C 
ATOM     25  C   UNL     1      30.783 -22.920 -15.553  0.00  0.00    +0.086 C 
ATOM     26  C   UNL     1      31.851 -23.908 -13.404  0.00  0.00    +0.010 C 
ATOM     27  C   UNL     1      29.887 -24.161 -15.620  0.00  0.00    +0.010 C 
ATOM     28  C   UNL     1      31.008 -25.158 -13.615  0.00  0.00    +0.001 C 
ATOM     29  C   UNL     1      29.673 -24.810 -14.261  0.00  0.00    +0.001 C 
ATOM     30  C   UNL     1      33.075 -23.591 -15.628  0.00  0.00    +0.231 C 
ATOM     31  C   UNL     1      31.388 -22.690 -16.920  0.00  0.00    +0.231 C 
ENDBRANCH  20  23
ENDBRANCH  19  20
ENDBRANCH  18  19
ENDBRANCH  17  18
ENDBRANCH   2  17
TORSDOF 5
ENDMDL
MODEL 6
REMARK VINA RESULT:     -10.9      9.489     13.140
REMARK  Name = 115368
REMARK  5 active torsions:
REMARK  status: ('A' for Active; 'I' for Inactive)
REMARK    1  A    between atoms: N_2  and  C_17
REMARK    2  A    between atoms: C_17  and  C_18
REMARK    3  A    between atoms: C_18  and  C_19
REMARK    4  A    between atoms: C_19  and  C_20
REMARK    5  A    between atoms: C_20  and  N_23
REMARK                            x       y       z     vdW  Elec       q    Type
REMARK                         _______ _______ _______ _____ _____    ______ ____
ROOT
ATOM      1  S   UNL     1      31.586 -17.204 -27.285  0.00  0.00    +0.014 S 
ATOM      2  N   UNL     1      33.978 -11.125 -26.215  0.00  0.00    +0.389 N 
ATOM      3  N   UNL     1      32.959 -13.784 -26.462  0.00  0.00    -0.297 N 
ATOM      4  N   UNL     1      31.725 -15.563 -27.464  0.00  0.00    -0.194 NA
ATOM      5  C   UNL     1      33.863 -11.994 -25.038  0.00  0.00    -0.055 C 
ATOM      6  C   UNL     1      34.261 -11.928 -27.413  0.00  0.00    -0.055 C 
ATOM      7  C   UNL     1      32.752 -13.032 -25.220  0.00  0.00    +0.069 C 
ATOM      8  C   UNL     1      33.147 -12.948 -27.654  0.00  0.00    +0.069 C 
ATOM      9  C   UNL     1      32.612 -15.112 -26.575  0.00  0.00    +0.140 A 
ATOM     10  C   UNL     1      33.218 -16.084 -25.705  0.00  0.00    +0.040 A 
ATOM     11  C   UNL     1      32.720 -17.355 -25.999  0.00  0.00    +0.050 A 
ATOM     12  C   UNL     1      34.174 -15.959 -24.673  0.00  0.00    +0.003 C 
ATOM     13  C   UNL     1      33.137 -18.501 -25.305  0.00  0.00    +0.008 C 
ATOM     14  C   UNL     1      34.596 -17.094 -23.975  0.00  0.00    +0.000 C 
ATOM     15  C   UNL     1      34.082 -18.348 -24.288  0.00  0.00    +0.001 C 
ATOM     16  H   UNL     1      33.091 -10.640 -26.351  0.00  0.00    -0.080 HD
ENDROOT
BRANCH   2  17
ATOM     17  C   UNL     1      35.021 -10.119 -26.012  0.00  0.00    -0.077 C 
BRANCH  17  18
ATOM     18  C   UNL     1      35.238  -9.872 -24.521  0.00  0.00    -0.021 C 
BRANCH  18  19
ATOM     19  C   UNL     1      34.828  -8.449 -24.131  0.00  0.00    +0.020 C 
BRANCH  19  20
ATOM     20  C   UNL     1      33.481  -8.044 -24.722  0.00  0.00    +0.101 C 
BRANCH  20  23
ATOM     21  O   UNL     1      32.503  -5.426 -23.749  0.00  0.00    -0.274 OA
ATOM     22  O   UNL     1      31.995  -9.975 -23.091  0.00  0.00    -0.274 OA
ATOM     23  N   UNL     1      32.490  -7.769 -23.701  0.00  0.00    -0.230 N 
ATOM     24  C   UNL     1      30.888  -6.678 -22.426  0.00  0.00    +0.086 C 
ATOM     25  C   UNL     1      31.095  -8.088 -21.861  0.00  0.00    +0.086 C 
ATOM     26  C   UNL     1      30.703  -5.564 -21.404  0.00  0.00    +0.010 C 
ATOM     27  C   UNL     1      31.917  -8.145 -20.569  0.00  0.00    +0.010 C 
ATOM     28  C   UNL     1      31.632  -5.684 -20.203  0.00  0.00    +0.001 C 
ATOM     29  C   UNL     1      31.525  -7.066 -19.571  0.00  0.00    +0.001 C 
ATOM     30  C   UNL     1      32.071  -6.498 -23.354  0.00  0.00    +0.231 C 
ATOM     31  C   UNL     1      31.882  -8.765 -22.961  0.00  0.00    +0.231 C 
ENDBRANCH  20  23
ENDBRANCH  19  20
ENDBRANCH  18  19
ENDBRANCH  17  18
ENDBRANCH   2  17
TORSDOF 5
ENDMDL
MODEL 7
REMARK VINA RESULT:     -10.8      4.198     10.366
REMARK  Name = 115368
REMARK  5 active torsions:
REMARK  status: ('A' for Active; 'I' for Inactive)
REMARK    1  A    between atoms: N_2  and  C_17
REMARK    2  A    between atoms: C_17  and  C_18
REMARK    3  A    between atoms: C_18  and  C_19
REMARK    4  A    between atoms: C_19  and  C_20
REMARK    5  A    between atoms: C_20  and  N_23
REMARK                            x       y       z     vdW  Elec       q    Type
REMARK                         _______ _______ _______ _____ _____    ______ ____
ROOT
ATOM      1  S   UNL     1      34.662 -15.266 -23.596  0.00  0.00    +0.014 S 
ATOM      2  N   UNL     1      34.984 -20.606 -19.698  0.00  0.00    +0.389 N 
ATOM      3  N   UNL     1      34.661 -18.383 -21.465  0.00  0.00    -0.297 N 
ATOM      4  N   UNL     1      34.921 -16.130 -22.208  0.00  0.00    -0.194 NA
ATOM      5  C   UNL     1      33.874 -20.568 -20.658  0.00  0.00    -0.055 C 
ATOM      6  C   UNL     1      36.155 -19.910 -20.250  0.00  0.00    -0.055 C 
ATOM      7  C   UNL     1      33.486 -19.128 -21.003  0.00  0.00    +0.069 C 
ATOM      8  C   UNL     1      35.818 -18.452 -20.564  0.00  0.00    +0.069 C 
ATOM      9  C   UNL     1      34.568 -17.399 -22.424  0.00  0.00    +0.140 A 
ATOM     10  C   UNL     1      34.068 -17.723 -23.733  0.00  0.00    +0.040 A 
ATOM     11  C   UNL     1      34.064 -16.579 -24.533  0.00  0.00    +0.050 A 
ATOM     12  C   UNL     1      33.614 -18.938 -24.294  0.00  0.00    +0.003 C 
ATOM     13  C   UNL     1      33.625 -16.600 -25.866  0.00  0.00    +0.008 C 
ATOM     14  C   UNL     1      33.175 -18.969 -25.621  0.00  0.00    +0.000 C 
ATOM     15  C   UNL     1      33.181 -17.814 -26.395  0.00  0.00    +0.001 C 
ATOM     16  H   UNL     1      34.694 -20.127 -18.845  0.00  0.00    -0.080 HD
ENDROOT
BRANCH   2  17
ATOM     17  C   UNL     1      35.321 -21.987 -19.354  0.00  0.00    -0.077 C 
BRANCH  17  18
ATOM     18  C   UNL     1      36.124 -22.031 -18.055  0.00  0.00    -0.021 C 
BRANCH  18  19
ATOM     19  C   UNL     1      35.215 -22.303 -16.852  0.00  0.00    +0.020 C 
BRANCH  19  20
ATOM     20  C   UNL     1      34.178 -23.385 -17.134  0.00  0.00    +0.101 C 
BRANCH  20  23
ATOM     21  O   UNL     1      33.763 -23.976 -14.265  0.00  0.00    -0.274 OA
ATOM     22  O   UNL     1      31.553 -22.420 -18.017  0.00  0.00    -0.274 OA
ATOM     23  N   UNL     1      32.977 -23.220 -16.339  0.00  0.00    -0.230 N 
ATOM     24  C   UNL     1      31.560 -22.973 -14.519  0.00  0.00    +0.086 C 
ATOM     25  C   UNL     1      30.723 -22.966 -15.804  0.00  0.00    +0.086 C 
ATOM     26  C   UNL     1      30.966 -23.723 -13.333  0.00  0.00    +0.010 C 
ATOM     27  C   UNL     1      29.957 -24.265 -16.076  0.00  0.00    +0.010 C 
ATOM     28  C   UNL     1      30.303 -25.039 -13.719  0.00  0.00    +0.001 C 
ATOM     29  C   UNL     1      29.285 -24.827 -14.832  0.00  0.00    +0.001 C 
ATOM     30  C   UNL     1      32.906 -23.487 -14.984  0.00  0.00    +0.231 C 
ATOM     31  C   UNL     1      31.776 -22.796 -16.875  0.00  0.00    +0.231 C 
ENDBRANCH  20  23
ENDBRANCH  19  20
ENDBRANCH  18  19
ENDBRANCH  17  18
ENDBRANCH   2  17
TORSDOF 5
ENDMDL
MODEL 8
REMARK VINA RESULT:     -10.6      7.594     12.647
REMARK  Name = 115368
REMARK  5 active torsions:
REMARK  status: ('A' for Active; 'I' for Inactive)
REMARK    1  A    between atoms: N_2  and  C_17
REMARK    2  A    between atoms: C_17  and  C_18
REMARK    3  A    between atoms: C_18  and  C_19
REMARK    4  A    between atoms: C_19  and  C_20
REMARK    5  A    between atoms: C_20  and  N_23
REMARK                            x       y       z     vdW  Elec       q    Type
REMARK                         _______ _______ _______ _____ _____    ______ ____
ROOT
ATOM      1  S   UNL     1      31.477  -7.465 -21.886  0.00  0.00    +0.014 S 
ATOM      2  N   UNL     1      33.771 -11.536 -26.574  0.00  0.00    +0.389 N 
ATOM      3  N   UNL     1      32.878  -9.907 -24.403  0.00  0.00    -0.297 N 
ATOM      4  N   UNL     1      32.148  -7.902 -23.336  0.00  0.00    -0.194 NA
ATOM      5  C   UNL     1      34.062 -11.915 -25.186  0.00  0.00    -0.055 C 
ATOM      6  C   UNL     1      32.486 -10.828 -26.648  0.00  0.00    -0.055 C 
ATOM      7  C   UNL     1      34.113 -10.686 -24.274  0.00  0.00    +0.069 C 
ATOM      8  C   UNL     1      32.515  -9.567 -25.784  0.00  0.00    +0.069 C 
ATOM      9  C   UNL     1      32.335  -9.223 -23.338  0.00  0.00    +0.140 A 
ATOM     10  C   UNL     1      31.941  -9.940 -22.155  0.00  0.00    +0.040 A 
ATOM     11  C   UNL     1      31.420  -9.048 -21.215  0.00  0.00    +0.050 A 
ATOM     12  C   UNL     1      31.996 -11.312 -21.822  0.00  0.00    +0.003 C 
ATOM     13  C   UNL     1      30.955  -9.471 -19.961  0.00  0.00    +0.008 C 
ATOM     14  C   UNL     1      31.534 -11.743 -20.576  0.00  0.00    +0.000 C 
ATOM     15  C   UNL     1      31.021 -10.833 -19.658  0.00  0.00    +0.001 C 
ATOM     16  H   UNL     1      34.507 -10.910 -26.903  0.00  0.00    -0.080 HD
ENDROOT
BRANCH   2  17
ATOM     17  C   UNL     1      33.758 -12.717 -27.438  0.00  0.00    -0.077 C 
BRANCH  17  18
ATOM     18  C   UNL     1      32.554 -13.599 -27.113  0.00  0.00    -0.021 C 
BRANCH  18  19
ATOM     19  C   UNL     1      32.997 -14.957 -26.560  0.00  0.00    +0.020 C 
BRANCH  19  20
ATOM     20  C   UNL     1      32.749 -15.090 -25.061  0.00  0.00    +0.101 C 
BRANCH  20  23
ATOM     21  O   UNL     1      32.865 -18.035 -25.317  0.00  0.00    -0.274 OA
ATOM     22  O   UNL     1      34.911 -14.484 -23.175  0.00  0.00    -0.274 OA
ATOM     23  N   UNL     1      33.664 -16.019 -24.429  0.00  0.00    -0.230 N 
ATOM     24  C   UNL     1      34.899 -17.931 -23.983  0.00  0.00    +0.086 C 
ATOM     25  C   UNL     1      35.217 -16.877 -22.917  0.00  0.00    +0.086 C 
ATOM     26  C   UNL     1      34.775 -19.368 -23.491  0.00  0.00    +0.010 C 
ATOM     27  C   UNL     1      34.559 -17.124 -21.555  0.00  0.00    +0.010 C 
ATOM     28  C   UNL     1      34.032 -19.494 -22.169  0.00  0.00    +0.001 C 
ATOM     29  C   UNL     1      34.641 -18.578 -21.115  0.00  0.00    +0.001 C 
ATOM     30  C   UNL     1      33.658 -17.383 -24.656  0.00  0.00    +0.231 C 
ATOM     31  C   UNL     1      34.622 -15.622 -23.516  0.00  0.00    +0.231 C 
ENDBRANCH  20  23
ENDBRANCH  19  20
ENDBRANCH  18  19
ENDBRANCH  17  18
ENDBRANCH   2  17
TORSDOF 5
ENDMDL
MODEL 9
REMARK VINA RESULT:     -10.6      4.905      8.528
REMARK  Name = 115368
REMARK  5 active torsions:
REMARK  status: ('A' for Active; 'I' for Inactive)
REMARK    1  A    between atoms: N_2  and  C_17
REMARK    2  A    between atoms: C_17  and  C_18
REMARK    3  A    between atoms: C_18  and  C_19
REMARK    4  A    between atoms: C_19  and  C_20
REMARK    5  A    between atoms: C_20  and  N_23
REMARK                            x       y       z     vdW  Elec       q    Type
REMARK                         _______ _______ _______ _____ _____    ______ ____
ROOT
ATOM      1  S   UNL     1      36.763 -20.475 -19.850  0.00  0.00    +0.014 S 
ATOM      2  N   UNL     1      34.134 -16.541 -24.479  0.00  0.00    +0.389 N 
ATOM      3  N   UNL     1      35.123 -18.391 -22.537  0.00  0.00    -0.297 N 
ATOM      4  N   UNL     1      36.742 -19.374 -21.086  0.00  0.00    -0.194 NA
ATOM      5  C   UNL     1      33.491 -17.847 -24.295  0.00  0.00    -0.055 C 
ATOM      6  C   UNL     1      34.688 -16.065 -23.203  0.00  0.00    -0.055 C 
ATOM      7  C   UNL     1      34.483 -18.885 -23.761  0.00  0.00    +0.069 C 
ATOM      8  C   UNL     1      35.719 -17.056 -22.660  0.00  0.00    +0.069 C 
ATOM      9  C   UNL     1      35.485 -19.238 -21.513  0.00  0.00    +0.140 A 
ATOM     10  C   UNL     1      34.481 -20.028 -20.852  0.00  0.00    +0.040 A 
ATOM     11  C   UNL     1      35.074 -20.803 -19.854  0.00  0.00    +0.050 A 
ATOM     12  C   UNL     1      33.085 -20.130 -21.043  0.00  0.00    +0.003 C 
ATOM     13  C   UNL     1      34.331 -21.675 -19.043  0.00  0.00    +0.008 C 
ATOM     14  C   UNL     1      32.336 -20.995 -20.241  0.00  0.00    +0.000 C 
ATOM     15  C   UNL     1      32.953 -21.757 -19.255  0.00  0.00    +0.001 C 
ATOM     16  H   UNL     1      34.898 -16.644 -25.147  0.00  0.00    -0.080 HD
ENDROOT
BRANCH   2  17
ATOM     17  C   UNL     1      33.183 -15.571 -25.020  0.00  0.00    -0.077 C 
BRANCH  17  18
ATOM     18  C   UNL     1      33.673 -14.147 -24.764  0.00  0.00    -0.021 C 
BRANCH  18  19
ATOM     19  C   UNL     1      32.591 -13.303 -24.083  0.00  0.00    +0.020 C 
BRANCH  19  20
ATOM     20  C   UNL     1      33.035 -12.762 -22.728  0.00  0.00    +0.101 C 
BRANCH  20  23
ATOM     21  O   UNL     1      32.703 -10.012 -23.768  0.00  0.00    -0.274 OA
ATOM     22  O   UNL     1      31.212 -12.846 -20.432  0.00  0.00    -0.274 OA
ATOM     23  N   UNL     1      32.167 -11.708 -22.242  0.00  0.00    -0.230 N 
ATOM     24  C   UNL     1      30.896  -9.769 -22.155  0.00  0.00    +0.086 C 
ATOM     25  C   UNL     1      30.802 -10.485 -20.802  0.00  0.00    +0.086 C 
ATOM     26  C   UNL     1      31.002  -8.250 -22.107  0.00  0.00    +0.010 C 
ATOM     27  C   UNL     1      31.634  -9.850 -19.684  0.00  0.00    +0.010 C 
ATOM     28  C   UNL     1      31.921  -7.742 -21.004  0.00  0.00    +0.001 C 
ATOM     29  C   UNL     1      31.529  -8.333 -19.656  0.00  0.00    +0.001 C 
ATOM     30  C   UNL     1      32.056 -10.464 -22.836  0.00  0.00    +0.231 C 
ATOM     31  C   UNL     1      31.378 -11.847 -21.117  0.00  0.00    +0.231 C 
ENDBRANCH  20  23
ENDBRANCH  19  20
ENDBRANCH  18  19
ENDBRANCH  17  18
ENDBRANCH   2  17
TORSDOF 5
ENDMDL
