MODEL 1
REMARK VINA RESULT:     -12.0      0.000      0.000
REMARK  Name = 16045418
REMARK  6 active torsions:
REMARK  status: ('A' for Active; 'I' for Inactive)
REMARK    1  A    between atoms: C_2  and  O_8
REMARK    2  A    between atoms: C_4  and  O_23
REMARK    3  A    between atoms: O_8  and  C_9
REMARK    4  A    between atoms: C_9  and  C_14
REMARK    5  A    between atoms: O_23  and  C_25
REMARK    6  A    between atoms: C_28  and  C_32
REMARK                            x       y       z     vdW  Elec       q    Type
REMARK                         _______ _______ _______ _____ _____    ______ ____
ROOT
ATOM      1 CL   UNL     1      30.430 -23.647 -13.489  0.00  0.00    -0.079 Cl
ATOM      2  C   UNL     1      32.963 -23.106 -17.179  0.00  0.00    +0.142 C 
ATOM      3  C   UNL     1      33.572 -23.459 -15.978  0.00  0.00    +0.075 C 
ATOM      4  C   UNL     1      32.795 -23.629 -14.831  0.00  0.00    +0.159 C 
ATOM      5  C   UNL     1      31.585 -22.921 -17.243  0.00  0.00    +0.038 C 
ATOM      6  C   UNL     1      31.414 -23.445 -14.890  0.00  0.00    +0.092 C 
ATOM      7  C   UNL     1      30.809 -23.090 -16.096  0.00  0.00    +0.018 C 
ENDROOT
BRANCH   2   8
ATOM      8  O   UNL     1      33.724 -22.939 -18.303  0.00  0.00    -0.469 OA
BRANCH   8   9
ATOM      9  C   UNL     1      33.259 -21.976 -19.251  0.00  0.00    +0.249 C 
BRANCH   9  14
ATOM     10  N   UNL     1      35.609 -21.186 -19.108  0.00  0.00    -0.227 N 
ATOM     11  N   UNL     1      36.522 -20.338 -19.628  0.00  0.00    -0.115 NA
ATOM     12  N   UNL     1      36.302 -18.731 -21.432  0.00  0.00    -0.335 NA
ATOM     13  N   UNL     1      35.683 -17.289 -23.226  0.00  0.00    -0.332 N 
ATOM     14  C   UNL     1      34.374 -21.123 -19.693  0.00  0.00    +0.097 C 
ATOM     15  C   UNL     1      34.496 -20.165 -20.662  0.00  0.00    +0.090 C 
ATOM     16  C   UNL     1      35.845 -19.701 -20.591  0.00  0.00    +0.105 C 
ATOM     17  C   UNL     1      33.495 -19.747 -21.526  0.00  0.00    +0.016 C 
ATOM     18  C   UNL     1      33.984 -18.754 -22.380  0.00  0.00    +0.049 C 
ATOM     19  C   UNL     1      35.325 -18.306 -22.295  0.00  0.00    +0.189 C 
ATOM     20  H   UNL     1      35.816 -21.800 -18.366  0.00  0.00    +0.175 HD
ATOM     21  H   UNL     1      36.598 -16.925 -23.230  0.00  0.00    +0.145 HD
ATOM     22  H   UNL     1      35.015 -16.949 -23.866  0.00  0.00    +0.145 HD
ENDBRANCH   9  14
ENDBRANCH   8   9
ENDBRANCH   2   8
BRANCH   4  23
ATOM     23  O   UNL     1      33.413 -23.976 -13.667  0.00  0.00    -0.452 OA
BRANCH  23  25
ATOM     24 CL   UNL     1      36.779 -27.176 -15.746  0.00  0.00    -0.082 Cl
ATOM     25  C   UNL     1      34.724 -24.415 -13.742  0.00  0.00    +0.147 C 
ATOM     26  C   UNL     1      35.685 -23.808 -12.952  0.00  0.00    +0.048 C 
ATOM     27  C   UNL     1      35.042 -25.449 -14.604  0.00  0.00    +0.049 C 
ATOM     28  C   UNL     1      37.005 -24.251 -13.027  0.00  0.00    +0.072 C 
ATOM     29  C   UNL     1      36.362 -25.892 -14.680  0.00  0.00    +0.061 C 
ATOM     30  C   UNL     1      37.344 -25.292 -13.891  0.00  0.00    +0.022 C 
BRANCH  28  32
ATOM     31  N   UNL     1      38.832 -23.135 -11.562  0.00  0.00    -0.191 NA
ATOM     32  C   UNL     1      38.011 -23.636 -12.219  0.00  0.00    +0.101 C 
ENDBRANCH  28  32
ENDBRANCH  23  25
ENDBRANCH   4  23
TORSDOF 6
ENDMDL
MODEL 2
REMARK VINA RESULT:     -12.0      6.834     11.903
REMARK  Name = 16045418
REMARK  6 active torsions:
REMARK  status: ('A' for Active; 'I' for Inactive)
REMARK    1  A    between atoms: C_2  and  O_8
REMARK    2  A    between atoms: C_4  and  O_23
REMARK    3  A    between atoms: O_8  and  C_9
REMARK    4  A    between atoms: C_9  and  C_14
REMARK    5  A    between atoms: O_23  and  C_25
REMARK    6  A    between atoms: C_28  and  C_32
REMARK                            x       y       z     vdW  Elec       q    Type
REMARK                         _______ _______ _______ _____ _____    ______ ____
ROOT
ATOM      1 CL   UNL     1      30.891 -16.423 -27.607  0.00  0.00    -0.079 Cl
ATOM      2  C   UNL     1      34.146 -17.871 -24.844  0.00  0.00    +0.142 C 
ATOM      3  C   UNL     1      34.232 -16.593 -25.391  0.00  0.00    +0.075 C 
ATOM      4  C   UNL     1      33.229 -16.137 -26.246  0.00  0.00    +0.159 C 
ATOM      5  C   UNL     1      33.067 -18.696 -25.146  0.00  0.00    +0.038 C 
ATOM      6  C   UNL     1      32.145 -16.960 -26.552  0.00  0.00    +0.092 C 
ATOM      7  C   UNL     1      32.065 -18.239 -26.002  0.00  0.00    +0.018 C 
ENDROOT
BRANCH   2   8
ATOM      8  O   UNL     1      35.130 -18.318 -24.006  0.00  0.00    -0.469 OA
BRANCH   8   9
ATOM      9  C   UNL     1      35.199 -17.702 -22.718  0.00  0.00    +0.249 C 
BRANCH   9  14
ATOM     10  N   UNL     1      36.589 -18.997 -21.119  0.00  0.00    -0.227 N 
ATOM     11  N   UNL     1      36.577 -19.963 -20.177  0.00  0.00    -0.115 NA
ATOM     12  N   UNL     1      34.728 -21.284 -19.328  0.00  0.00    -0.335 NA
ATOM     13  N   UNL     1      32.675 -22.359 -18.769  0.00  0.00    -0.332 N 
ATOM     14  C   UNL     1      35.369 -18.727 -21.676  0.00  0.00    +0.097 C 
ATOM     15  C   UNL     1      34.503 -19.579 -21.047  0.00  0.00    +0.090 C 
ATOM     16  C   UNL     1      35.292 -20.331 -20.124  0.00  0.00    +0.105 C 
ATOM     17  C   UNL     1      33.140 -19.675 -21.280  0.00  0.00    +0.016 C 
ATOM     18  C   UNL     1      32.581 -20.656 -20.454  0.00  0.00    +0.049 C 
ATOM     19  C   UNL     1      33.378 -21.392 -19.543  0.00  0.00    +0.189 C 
ATOM     20  H   UNL     1      37.412 -18.524 -21.385  0.00  0.00    +0.175 HD
ATOM     21  H   UNL     1      33.159 -22.910 -18.113  0.00  0.00    +0.145 HD
ATOM     22  H   UNL     1      31.704 -22.474 -18.889  0.00  0.00    +0.145 HD
ENDBRANCH   9  14
ENDBRANCH   8   9
ENDBRANCH   2   8
BRANCH   4  23
ATOM     23  O   UNL     1      33.333 -14.882 -26.768  0.00  0.00    -0.452 OA
BRANCH  23  25
ATOM     24 CL   UNL     1      33.099  -9.838 -26.140  0.00  0.00    -0.082 Cl
ATOM     25  C   UNL     1      33.197 -13.812 -25.900  0.00  0.00    +0.147 C 
ATOM     26  C   UNL     1      33.046 -14.057 -24.546  0.00  0.00    +0.048 C 
ATOM     27  C   UNL     1      33.215 -12.525 -26.406  0.00  0.00    +0.049 C 
ATOM     28  C   UNL     1      32.910 -12.980 -23.671  0.00  0.00    +0.072 C 
ATOM     29  C   UNL     1      33.079 -11.447 -25.532  0.00  0.00    +0.061 C 
ATOM     30  C   UNL     1      32.926 -11.675 -24.164  0.00  0.00    +0.022 C 
BRANCH  28  32
ATOM     31  N   UNL     1      32.625 -13.405 -21.129  0.00  0.00    -0.191 NA
ATOM     32  C   UNL     1      32.753 -13.213 -22.270  0.00  0.00    +0.101 C 
ENDBRANCH  28  32
ENDBRANCH  23  25
ENDBRANCH   4  23
TORSDOF 6
ENDMDL
MODEL 3
REMARK VINA RESULT:     -12.0      2.027      2.376
REMARK  Name = 16045418
REMARK  6 active torsions:
REMARK  status: ('A' for Active; 'I' for Inactive)
REMARK    1  A    between atoms: C_2  and  O_8
REMARK    2  A    between atoms: C_4  and  O_23
REMARK    3  A    between atoms: O_8  and  C_9
REMARK    4  A    between atoms: C_9  and  C_14
REMARK    5  A    between atoms: O_23  and  C_25
REMARK    6  A    between atoms: C_28  and  C_32
REMARK                            x       y       z     vdW  Elec       q    Type
REMARK                         _______ _______ _______ _____ _____    ______ ____
ROOT
ATOM      1 CL   UNL     1      30.834 -23.927 -12.746  0.00  0.00    -0.079 Cl
ATOM      2  C   UNL     1      31.750 -23.036 -17.069  0.00  0.00    +0.142 C 
ATOM      3  C   UNL     1      32.769 -23.486 -16.234  0.00  0.00    +0.075 C 
ATOM      4  C   UNL     1      32.494 -23.765 -14.895  0.00  0.00    +0.159 C 
ATOM      5  C   UNL     1      30.460 -22.862 -16.577  0.00  0.00    +0.038 C 
ATOM      6  C   UNL     1      31.203 -23.592 -14.397  0.00  0.00    +0.092 C 
ATOM      7  C   UNL     1      30.186 -23.140 -15.238  0.00  0.00    +0.018 C 
ENDROOT
BRANCH   2   8
ATOM      8  O   UNL     1      32.020 -22.762 -18.382  0.00  0.00    -0.469 OA
BRANCH   8   9
ATOM      9  C   UNL     1      33.345 -22.321 -18.682  0.00  0.00    +0.249 C 
BRANCH   9  14
ATOM     10  N   UNL     1      32.133 -20.844 -20.267  0.00  0.00    -0.227 N 
ATOM     11  N   UNL     1      32.269 -19.875 -21.197  0.00  0.00    -0.115 NA
ATOM     12  N   UNL     1      34.272 -18.786 -22.027  0.00  0.00    -0.335 NA
ATOM     13  N   UNL     1      36.445 -17.971 -22.569  0.00  0.00    -0.332 N 
ATOM     14  C   UNL     1      33.308 -21.271 -19.712  0.00  0.00    +0.097 C 
ATOM     15  C   UNL     1      34.275 -20.524 -20.327  0.00  0.00    +0.090 C 
ATOM     16  C   UNL     1      33.591 -19.669 -21.243  0.00  0.00    +0.105 C 
ATOM     17  C   UNL     1      35.639 -20.603 -20.090  0.00  0.00    +0.016 C 
ATOM     18  C   UNL     1      36.319 -19.689 -20.902  0.00  0.00    +0.049 C 
ATOM     19  C   UNL     1      35.624 -18.849 -21.805  0.00  0.00    +0.189 C 
ATOM     20  H   UNL     1      31.257 -21.213 -20.009  0.00  0.00    +0.175 HD
ATOM     21  H   UNL     1      36.036 -17.355 -23.219  0.00  0.00    +0.145 HD
ATOM     22  H   UNL     1      37.423 -17.980 -22.447  0.00  0.00    +0.145 HD
ENDBRANCH   9  14
ENDBRANCH   8   9
ENDBRANCH   2   8
BRANCH   4  23
ATOM     23  O   UNL     1      33.507 -24.206 -14.096  0.00  0.00    -0.452 OA
BRANCH  23  25
ATOM     24 CL   UNL     1      36.788 -21.364 -16.752  0.00  0.00    -0.082 Cl
ATOM     25  C   UNL     1      34.803 -24.019 -14.542  0.00  0.00    +0.147 C 
ATOM     26  C   UNL     1      35.776 -24.940 -14.194  0.00  0.00    +0.048 C 
ATOM     27  C   UNL     1      35.096 -22.917 -15.326  0.00  0.00    +0.049 C 
ATOM     28  C   UNL     1      37.083 -24.752 -14.645  0.00  0.00    +0.072 C 
ATOM     29  C   UNL     1      36.402 -22.729 -15.777  0.00  0.00    +0.061 C 
ATOM     30  C   UNL     1      37.396 -23.646 -15.435  0.00  0.00    +0.022 C 
BRANCH  28  32
ATOM     31  N   UNL     1      38.931 -26.457 -14.010  0.00  0.00    -0.191 NA
ATOM     32  C   UNL     1      38.101 -25.691 -14.294  0.00  0.00    +0.101 C 
ENDBRANCH  28  32
ENDBRANCH  23  25
ENDBRANCH   4  23
TORSDOF 6
ENDMDL
MODEL 4
REMARK VINA RESULT:     -11.9      6.559     12.109
REMARK  Name = 16045418
REMARK  6 active torsions:
REMARK  status: ('A' for Active; 'I' for Inactive)
REMARK    1  A    between atoms: C_2  and  O_8
REMARK    2  A    between atoms: C_4  and  O_23
REMARK    3  A    between atoms: O_8  and  C_9
REMARK    4  A    between atoms: C_9  and  C_14
REMARK    5  A    between atoms: O_23  and  C_25
REMARK    6  A    between atoms: C_28  and  C_32
REMARK                            x       y       z     vdW  Elec       q    Type
REMARK                         _______ _______ _______ _____ _____    ______ ____
ROOT
ATOM      1 CL   UNL     1      30.841 -16.431 -27.528  0.00  0.00    -0.079 Cl
ATOM      2  C   UNL     1      34.171 -17.837 -24.834  0.00  0.00    +0.142 C 
ATOM      3  C   UNL     1      34.193 -16.534 -25.325  0.00  0.00    +0.075 C 
ATOM      4  C   UNL     1      33.166 -16.091 -26.159  0.00  0.00    +0.159 C 
ATOM      5  C   UNL     1      33.132 -18.700 -25.170  0.00  0.00    +0.038 C 
ATOM      6  C   UNL     1      32.123 -16.951 -26.499  0.00  0.00    +0.092 C 
ATOM      7  C   UNL     1      32.106 -18.256 -26.005  0.00  0.00    +0.018 C 
ENDROOT
BRANCH   2   8
ATOM      8  O   UNL     1      35.178 -18.271 -24.017  0.00  0.00    -0.469 OA
BRANCH   8   9
ATOM      9  C   UNL     1      35.234 -17.694 -22.711  0.00  0.00    +0.249 C 
BRANCH   9  14
ATOM     10  N   UNL     1      36.573 -19.096 -21.159  0.00  0.00    -0.227 N 
ATOM     11  N   UNL     1      36.520 -20.083 -20.240  0.00  0.00    -0.115 NA
ATOM     12  N   UNL     1      34.615 -21.329 -19.402  0.00  0.00    -0.335 NA
ATOM     13  N   UNL     1      32.516 -22.312 -18.847  0.00  0.00    -0.332 N 
ATOM     14  C   UNL     1      35.362 -18.751 -21.695  0.00  0.00    +0.097 C 
ATOM     15  C   UNL     1      34.461 -19.574 -21.078  0.00  0.00    +0.090 C 
ATOM     16  C   UNL     1      35.219 -20.387 -20.181  0.00  0.00    +0.105 C 
ATOM     17  C   UNL     1      33.092 -19.596 -21.299  0.00  0.00    +0.016 C 
ATOM     18  C   UNL     1      32.492 -20.567 -20.490  0.00  0.00    +0.049 C 
ATOM     19  C   UNL     1      33.260 -21.364 -19.606  0.00  0.00    +0.189 C 
ATOM     20  H   UNL     1      37.415 -18.659 -21.422  0.00  0.00    +0.175 HD
ATOM     21  H   UNL     1      32.978 -22.904 -18.210  0.00  0.00    +0.145 HD
ATOM     22  H   UNL     1      31.540 -22.376 -18.959  0.00  0.00    +0.145 HD
ENDBRANCH   9  14
ENDBRANCH   8   9
ENDBRANCH   2   8
BRANCH   4  23
ATOM     23  O   UNL     1      33.208 -14.811 -26.626  0.00  0.00    -0.452 OA
BRANCH  23  25
ATOM     24 CL   UNL     1      32.806 -13.432 -21.745  0.00  0.00    -0.082 Cl
ATOM     25  C   UNL     1      33.131 -13.786 -25.699  0.00  0.00    +0.147 C 
ATOM     26  C   UNL     1      33.164 -12.474 -26.138  0.00  0.00    +0.048 C 
ATOM     27  C   UNL     1      33.021 -14.098 -24.355  0.00  0.00    +0.049 C 
ATOM     28  C   UNL     1      33.085 -11.442 -25.204  0.00  0.00    +0.072 C 
ATOM     29  C   UNL     1      32.942 -13.066 -23.421  0.00  0.00    +0.061 C 
ATOM     30  C   UNL     1      32.975 -11.738 -23.845  0.00  0.00    +0.022 C 
BRANCH  28  32
ATOM     31  N   UNL     1      33.148  -8.973 -25.995  0.00  0.00    -0.191 NA
ATOM     32  C   UNL     1      33.120 -10.081 -25.639  0.00  0.00    +0.101 C 
ENDBRANCH  28  32
ENDBRANCH  23  25
ENDBRANCH   4  23
TORSDOF 6
ENDMDL
MODEL 5
REMARK VINA RESULT:     -11.7      5.385     11.091
REMARK  Name = 16045418
REMARK  6 active torsions:
REMARK  status: ('A' for Active; 'I' for Inactive)
REMARK    1  A    between atoms: C_2  and  O_8
REMARK    2  A    between atoms: C_4  and  O_23
REMARK    3  A    between atoms: O_8  and  C_9
REMARK    4  A    between atoms: C_9  and  C_14
REMARK    5  A    between atoms: O_23  and  C_25
REMARK    6  A    between atoms: C_28  and  C_32
REMARK                            x       y       z     vdW  Elec       q    Type
REMARK                         _______ _______ _______ _____ _____    ______ ____
ROOT
ATOM      1 CL   UNL     1      34.132 -16.541 -25.465  0.00  0.00    -0.079 Cl
ATOM      2  C   UNL     1      34.486 -18.745 -21.548  0.00  0.00    +0.142 C 
ATOM      3  C   UNL     1      34.927 -17.427 -21.633  0.00  0.00    +0.075 C 
ATOM      4  C   UNL     1      34.821 -16.737 -22.841  0.00  0.00    +0.159 C 
ATOM      5  C   UNL     1      33.941 -19.379 -22.660  0.00  0.00    +0.038 C 
ATOM      6  C   UNL     1      34.275 -17.369 -23.959  0.00  0.00    +0.092 C 
ATOM      7  C   UNL     1      33.835 -18.689 -23.868  0.00  0.00    +0.018 C 
ENDROOT
BRANCH   2   8
ATOM      8  O   UNL     1      34.591 -19.420 -20.364  0.00  0.00    -0.469 OA
BRANCH   8   9
ATOM      9  C   UNL     1      35.173 -20.724 -20.423  0.00  0.00    +0.249 C 
BRANCH   9  14
ATOM     10  N   UNL     1      33.333 -22.113 -19.500  0.00  0.00    -0.227 N 
ATOM     11  N   UNL     1      32.945 -22.882 -18.461  0.00  0.00    -0.115 NA
ATOM     12  N   UNL     1      34.135 -23.468 -16.431  0.00  0.00    -0.335 NA
ATOM     13  N   UNL     1      35.619 -23.805 -14.595  0.00  0.00    -0.332 N 
ATOM     14  C   UNL     1      34.591 -21.586 -19.382  0.00  0.00    +0.097 C 
ATOM     15  C   UNL     1      35.050 -22.050 -18.180  0.00  0.00    +0.090 C 
ATOM     16  C   UNL     1      34.000 -22.851 -17.638  0.00  0.00    +0.105 C 
ATOM     17  C   UNL     1      36.291 -21.779 -17.623  0.00  0.00    +0.016 C 
ATOM     18  C   UNL     1      36.410 -22.422 -16.387  0.00  0.00    +0.049 C 
ATOM     19  C   UNL     1      35.358 -23.213 -15.864  0.00  0.00    +0.189 C 
ATOM     20  H   UNL     1      32.756 -21.944 -20.281  0.00  0.00    +0.175 HD
ATOM     21  H   UNL     1      34.937 -24.369 -14.166  0.00  0.00    +0.145 HD
ATOM     22  H   UNL     1      36.483 -23.650 -14.148  0.00  0.00    +0.145 HD
ENDBRANCH   9  14
ENDBRANCH   8   9
ENDBRANCH   2   8
BRANCH   4  23
ATOM     23  O   UNL     1      35.258 -15.448 -22.901  0.00  0.00    -0.452 OA
BRANCH  23  25
ATOM     24 CL   UNL     1      31.698 -13.034 -20.181  0.00  0.00    -0.082 Cl
ATOM     25  C   UNL     1      34.306 -14.444 -22.841  0.00  0.00    +0.147 C 
ATOM     26  C   UNL     1      34.107 -13.637 -23.947  0.00  0.00    +0.048 C 
ATOM     27  C   UNL     1      33.576 -14.274 -21.678  0.00  0.00    +0.049 C 
ATOM     28  C   UNL     1      33.147 -12.627 -23.887  0.00  0.00    +0.072 C 
ATOM     29  C   UNL     1      32.617 -13.264 -21.618  0.00  0.00    +0.061 C 
ATOM     30  C   UNL     1      32.402 -12.440 -22.723  0.00  0.00    +0.022 C 
BRANCH  28  32
ATOM     31  N   UNL     1      32.749 -11.095 -25.942  0.00  0.00    -0.191 NA
ATOM     32  C   UNL     1      32.928 -11.782 -25.019  0.00  0.00    +0.101 C 
ENDBRANCH  28  32
ENDBRANCH  23  25
ENDBRANCH   4  23
TORSDOF 6
ENDMDL
MODEL 6
REMARK VINA RESULT:     -11.6      7.425     12.523
REMARK  Name = 16045418
REMARK  6 active torsions:
REMARK  status: ('A' for Active; 'I' for Inactive)
REMARK    1  A    between atoms: C_2  and  O_8
REMARK    2  A    between atoms: C_4  and  O_23
REMARK    3  A    between atoms: O_8  and  C_9
REMARK    4  A    between atoms: C_9  and  C_14
REMARK    5  A    between atoms: O_23  and  C_25
REMARK    6  A    between atoms: C_28  and  C_32
REMARK                            x       y       z     vdW  Elec       q    Type
REMARK                         _______ _______ _______ _____ _____    ______ ____
ROOT
ATOM      1 CL   UNL     1      31.946 -12.373 -20.341  0.00  0.00    -0.079 Cl
ATOM      2  C   UNL     1      34.535 -15.239 -22.666  0.00  0.00    +0.142 C 
ATOM      3  C   UNL     1      33.803 -14.272 -23.349  0.00  0.00    +0.075 C 
ATOM      4  C   UNL     1      32.999 -13.380 -22.637  0.00  0.00    +0.159 C 
ATOM      5  C   UNL     1      34.471 -15.323 -21.279  0.00  0.00    +0.038 C 
ATOM      6  C   UNL     1      32.931 -13.460 -21.246  0.00  0.00    +0.092 C 
ATOM      7  C   UNL     1      33.667 -14.432 -20.567  0.00  0.00    +0.018 C 
ENDROOT
BRANCH   2   8
ATOM      8  O   UNL     1      35.322 -16.113 -23.364  0.00  0.00    -0.469 OA
BRANCH   8   9
ATOM      9  C   UNL     1      34.810 -17.436 -23.533  0.00  0.00    +0.249 C 
BRANCH   9  14
ATOM     10  N   UNL     1      36.639 -18.351 -22.124  0.00  0.00    -0.227 N 
ATOM     11  N   UNL     1      36.939 -19.208 -21.125  0.00  0.00    -0.115 NA
ATOM     12  N   UNL     1      35.494 -20.682 -19.853  0.00  0.00    -0.335 NA
ATOM     13  N   UNL     1      33.760 -21.973 -18.847  0.00  0.00    -0.332 N 
ATOM     14  C   UNL     1      35.314 -18.314 -22.465  0.00  0.00    +0.097 C 
ATOM     15  C   UNL     1      34.714 -19.212 -21.626  0.00  0.00    +0.090 C 
ATOM     16  C   UNL     1      35.756 -19.746 -20.809  0.00  0.00    +0.105 C 
ATOM     17  C   UNL     1      33.363 -19.523 -21.596  0.00  0.00    +0.016 C 
ATOM     18  C   UNL     1      33.114 -20.482 -20.610  0.00  0.00    +0.049 C 
ATOM     19  C   UNL     1      34.161 -21.001 -19.808  0.00  0.00    +0.189 C 
ATOM     20  H   UNL     1      37.320 -17.796 -22.572  0.00  0.00    +0.175 HD
ATOM     21  H   UNL     1      34.430 -22.381 -18.252  0.00  0.00    +0.145 HD
ATOM     22  H   UNL     1      32.814 -22.237 -18.777  0.00  0.00    +0.145 HD
ENDBRANCH   9  14
ENDBRANCH   8   9
ENDBRANCH   2   8
BRANCH   4  23
ATOM     23  O   UNL     1      32.292 -12.441 -23.327  0.00  0.00    -0.452 OA
BRANCH  23  25
ATOM     24 CL   UNL     1      36.000  -9.772 -25.569  0.00  0.00    -0.082 Cl
ATOM     25  C   UNL     1      32.892 -11.211 -23.534  0.00  0.00    +0.147 C 
ATOM     26  C   UNL     1      32.362 -10.089 -22.920  0.00  0.00    +0.048 C 
ATOM     27  C   UNL     1      34.007 -11.132 -24.349  0.00  0.00    +0.049 C 
ATOM     28  C   UNL     1      32.967  -8.850 -23.128  0.00  0.00    +0.072 C 
ATOM     29  C   UNL     1      34.612  -9.893 -24.557  0.00  0.00    +0.061 C 
ATOM     30  C   UNL     1      34.092  -8.752 -23.947  0.00  0.00    +0.022 C 
BRANCH  28  32
ATOM     31  N   UNL     1      31.998  -6.728 -21.995  0.00  0.00    -0.191 NA
ATOM     32  C   UNL     1      32.433  -7.681 -22.503  0.00  0.00    +0.101 C 
ENDBRANCH  28  32
ENDBRANCH  23  25
ENDBRANCH   4  23
TORSDOF 6
ENDMDL
MODEL 7
REMARK VINA RESULT:     -11.5      5.583     11.368
REMARK  Name = 16045418
REMARK  6 active torsions:
REMARK  status: ('A' for Active; 'I' for Inactive)
REMARK    1  A    between atoms: C_2  and  O_8
REMARK    2  A    between atoms: C_4  and  O_23
REMARK    3  A    between atoms: O_8  and  C_9
REMARK    4  A    between atoms: C_9  and  C_14
REMARK    5  A    between atoms: O_23  and  C_25
REMARK    6  A    between atoms: C_28  and  C_32
REMARK                            x       y       z     vdW  Elec       q    Type
REMARK                         _______ _______ _______ _____ _____    ______ ____
ROOT
ATOM      1 CL   UNL     1      33.687 -13.195 -23.818  0.00  0.00    -0.079 Cl
ATOM      2  C   UNL     1      35.066 -16.766 -21.437  0.00  0.00    +0.142 C 
ATOM      3  C   UNL     1      35.110 -16.813 -22.827  0.00  0.00    +0.075 C 
ATOM      4  C   UNL     1      34.686 -15.712 -23.572  0.00  0.00    +0.159 C 
ATOM      5  C   UNL     1      34.601 -15.628 -20.785  0.00  0.00    +0.038 C 
ATOM      6  C   UNL     1      34.219 -14.569 -22.923  0.00  0.00    +0.092 C 
ATOM      7  C   UNL     1      34.176 -14.528 -21.530  0.00  0.00    +0.018 C 
ENDROOT
BRANCH   2   8
ATOM      8  O   UNL     1      35.481 -17.845 -20.707  0.00  0.00    -0.469 OA
BRANCH   8   9
ATOM      9  C   UNL     1      35.413 -19.117 -21.355  0.00  0.00    +0.249 C 
BRANCH   9  14
ATOM     10  N   UNL     1      33.014 -19.750 -21.253  0.00  0.00    -0.227 N 
ATOM     11  N   UNL     1      32.107 -20.547 -20.649  0.00  0.00    -0.115 NA
ATOM     12  N   UNL     1      32.410 -22.200 -18.900  0.00  0.00    -0.335 NA
ATOM     13  N   UNL     1      33.120 -23.714 -17.200  0.00  0.00    -0.332 N 
ATOM     14  C   UNL     1      34.298 -19.905 -20.806  0.00  0.00    +0.097 C 
ATOM     15  C   UNL     1      34.216 -20.872 -19.842  0.00  0.00    +0.090 C 
ATOM     16  C   UNL     1      32.839 -21.246 -19.774  0.00  0.00    +0.105 C 
ATOM     17  C   UNL     1      35.273 -21.371 -19.096  0.00  0.00    +0.016 C 
ATOM     18  C   UNL     1      34.813 -22.348 -18.208  0.00  0.00    +0.049 C 
ATOM     19  C   UNL     1      33.443 -22.707 -18.154  0.00  0.00    +0.189 C 
ATOM     20  H   UNL     1      32.770 -19.109 -21.960  0.00  0.00    +0.175 HD
ATOM     21  H   UNL     1      32.188 -24.018 -17.102  0.00  0.00    +0.145 HD
ATOM     22  H   UNL     1      33.827 -24.108 -16.640  0.00  0.00    +0.145 HD
ENDBRANCH   9  14
ENDBRANCH   8   9
ENDBRANCH   2   8
BRANCH   4  23
ATOM     23  O   UNL     1      34.740 -15.781 -24.932  0.00  0.00    -0.452 OA
BRANCH  23  25
ATOM     24 CL   UNL     1      32.059 -19.932 -26.149  0.00  0.00    -0.082 Cl
ATOM     25  C   UNL     1      33.649 -16.323 -25.591  0.00  0.00    +0.147 C 
ATOM     26  C   UNL     1      32.796 -15.484 -26.287  0.00  0.00    +0.048 C 
ATOM     27  C   UNL     1      33.439 -17.689 -25.538  0.00  0.00    +0.049 C 
ATOM     28  C   UNL     1      31.698 -16.030 -26.951  0.00  0.00    +0.072 C 
ATOM     29  C   UNL     1      32.341 -18.235 -26.202  0.00  0.00    +0.061 C 
ATOM     30  C   UNL     1      31.470 -17.405 -26.908  0.00  0.00    +0.022 C 
BRANCH  28  32
ATOM     31  N   UNL     1      30.080 -14.485 -28.263  0.00  0.00    -0.191 NA
ATOM     32  C   UNL     1      30.806 -15.179 -27.674  0.00  0.00    +0.101 C 
ENDBRANCH  28  32
ENDBRANCH  23  25
ENDBRANCH   4  23
TORSDOF 6
ENDMDL
MODEL 8
REMARK VINA RESULT:     -11.2      7.745     11.753
REMARK  Name = 16045418
REMARK  6 active torsions:
REMARK  status: ('A' for Active; 'I' for Inactive)
REMARK    1  A    between atoms: C_2  and  O_8
REMARK    2  A    between atoms: C_4  and  O_23
REMARK    3  A    between atoms: O_8  and  C_9
REMARK    4  A    between atoms: C_9  and  C_14
REMARK    5  A    between atoms: O_23  and  C_25
REMARK    6  A    between atoms: C_28  and  C_32
REMARK                            x       y       z     vdW  Elec       q    Type
REMARK                         _______ _______ _______ _____ _____    ______ ____
ROOT
ATOM      1 CL   UNL     1      32.066 -19.044 -25.921  0.00  0.00    -0.079 Cl
ATOM      2  C   UNL     1      32.497 -14.760 -27.258  0.00  0.00    +0.142 C 
ATOM      3  C   UNL     1      33.574 -15.397 -26.646  0.00  0.00    +0.075 C 
ATOM      4  C   UNL     1      33.449 -16.723 -26.230  0.00  0.00    +0.159 C 
ATOM      5  C   UNL     1      31.298 -15.437 -27.456  0.00  0.00    +0.038 C 
ATOM      6  C   UNL     1      32.249 -17.406 -26.426  0.00  0.00    +0.092 C 
ATOM      7  C   UNL     1      31.173 -16.763 -27.039  0.00  0.00    +0.018 C 
ENDROOT
BRANCH   2   8
ATOM      8  O   UNL     1      32.619 -13.460 -27.665  0.00  0.00    -0.469 OA
BRANCH   8   9
ATOM      9  C   UNL     1      33.785 -12.761 -27.223  0.00  0.00    +0.249 C 
BRANCH   9  14
ATOM     10  N   UNL     1      33.467 -10.382 -26.588  0.00  0.00    -0.227 N 
ATOM     11  N   UNL     1      33.092  -9.545 -25.597  0.00  0.00    -0.115 NA
ATOM     12  N   UNL     1      32.339 -10.038 -23.345  0.00  0.00    -0.335 NA
ATOM     13  N   UNL     1      31.655 -10.931 -21.243  0.00  0.00    -0.332 N 
ATOM     14  C   UNL     1      33.411 -11.710 -26.263  0.00  0.00    +0.097 C 
ATOM     15  C   UNL     1      32.967 -11.734 -24.970  0.00  0.00    +0.090 C 
ATOM     16  C   UNL     1      32.780 -10.370 -24.591  0.00  0.00    +0.105 C 
ATOM     17  C   UNL     1      32.752 -12.869 -24.203  0.00  0.00    +0.016 C 
ATOM     18  C   UNL     1      32.299 -12.508 -22.930  0.00  0.00    +0.049 C 
ATOM     19  C   UNL     1      32.119 -11.149 -22.572  0.00  0.00    +0.189 C 
ATOM     20  H   UNL     1      33.757 -10.061 -27.473  0.00  0.00    +0.175 HD
ATOM     21  H   UNL     1      31.506 -10.014 -20.918  0.00  0.00    +0.145 HD
ATOM     22  H   UNL     1      31.484 -11.698 -20.649  0.00  0.00    +0.145 HD
ENDBRANCH   9  14
ENDBRANCH   8   9
ENDBRANCH   2   8
BRANCH   4  23
ATOM     23  O   UNL     1      34.517 -17.326 -25.635  0.00  0.00    -0.452 OA
BRANCH  23  25
ATOM     24 CL   UNL     1      34.593 -14.452 -21.436  0.00  0.00    -0.082 Cl
ATOM     25  C   UNL     1      34.599 -17.267 -24.254  0.00  0.00    +0.147 C 
ATOM     26  C   UNL     1      34.722 -18.443 -23.535  0.00  0.00    +0.048 C 
ATOM     27  C   UNL     1      34.559 -16.034 -23.627  0.00  0.00    +0.049 C 
ATOM     28  C   UNL     1      34.806 -18.384 -22.144  0.00  0.00    +0.072 C 
ATOM     29  C   UNL     1      34.643 -15.975 -22.236  0.00  0.00    +0.061 C 
ATOM     30  C   UNL     1      34.766 -17.150 -21.495  0.00  0.00    +0.022 C 
BRANCH  28  32
ATOM     31  N   UNL     1      35.033 -20.570 -20.767  0.00  0.00    -0.191 NA
ATOM     32  C   UNL     1      34.932 -19.588 -21.384  0.00  0.00    +0.101 C 
ENDBRANCH  28  32
ENDBRANCH  23  25
ENDBRANCH   4  23
TORSDOF 6
ENDMDL
MODEL 9
REMARK VINA RESULT:     -11.1     10.671     14.385
REMARK  Name = 16045418
REMARK  6 active torsions:
REMARK  status: ('A' for Active; 'I' for Inactive)
REMARK    1  A    between atoms: C_2  and  O_8
REMARK    2  A    between atoms: C_4  and  O_23
REMARK    3  A    between atoms: O_8  and  C_9
REMARK    4  A    between atoms: C_9  and  C_14
REMARK    5  A    between atoms: O_23  and  C_25
REMARK    6  A    between atoms: C_28  and  C_32
REMARK                            x       y       z     vdW  Elec       q    Type
REMARK                         _______ _______ _______ _____ _____    ______ ____
ROOT
ATOM      1 CL   UNL     1      34.981  -8.161 -23.609  0.00  0.00    -0.079 Cl
ATOM      2  C   UNL     1      33.649 -11.275 -26.585  0.00  0.00    +0.142 C 
ATOM      3  C   UNL     1      32.692 -10.564 -25.866  0.00  0.00    +0.075 C 
ATOM      4  C   UNL     1      33.096  -9.598 -24.943  0.00  0.00    +0.159 C 
ATOM      5  C   UNL     1      35.005 -11.028 -26.390  0.00  0.00    +0.038 C 
ATOM      6  C   UNL     1      34.453  -9.348 -24.743  0.00  0.00    +0.092 C 
ATOM      7  C   UNL     1      35.408 -10.063 -25.467  0.00  0.00    +0.018 C 
ENDROOT
BRANCH   2   8
ATOM      8  O   UNL     1      33.254 -12.221 -27.489  0.00  0.00    -0.469 OA
BRANCH   8   9
ATOM      9  C   UNL     1      32.221 -13.114 -27.067  0.00  0.00    +0.249 C 
BRANCH   9  14
ATOM     10  N   UNL     1      32.949 -15.479 -27.276  0.00  0.00    -0.227 N 
ATOM     11  N   UNL     1      33.507 -16.524 -26.628  0.00  0.00    -0.115 NA
ATOM     12  N   UNL     1      34.296 -16.693 -24.341  0.00  0.00    -0.335 NA
ATOM     13  N   UNL     1      34.946 -16.454 -22.059  0.00  0.00    -0.332 N 
ATOM     14  C   UNL     1      32.811 -14.347 -26.520  0.00  0.00    +0.097 C 
ATOM     15  C   UNL     1      33.316 -14.683 -25.295  0.00  0.00    +0.090 C 
ATOM     16  C   UNL     1      33.739 -16.043 -25.401  0.00  0.00    +0.105 C 
ATOM     17  C   UNL     1      33.391 -13.851 -24.188  0.00  0.00    +0.016 C 
ATOM     18  C   UNL     1      33.966 -14.536 -23.112  0.00  0.00    +0.049 C 
ATOM     19  C   UNL     1      34.379 -15.885 -23.236  0.00  0.00    +0.189 C 
ATOM     20  H   UNL     1      32.664 -15.529 -28.218  0.00  0.00    +0.175 HD
ATOM     21  H   UNL     1      35.257 -17.388 -22.065  0.00  0.00    +0.145 HD
ATOM     22  H   UNL     1      35.025 -15.914 -21.240  0.00  0.00    +0.145 HD
ENDBRANCH   9  14
ENDBRANCH   8   9
ENDBRANCH   2   8
BRANCH   4  23
ATOM     23  O   UNL     1      32.141  -8.914 -24.251  0.00  0.00    -0.452 OA
BRANCH  23  25
ATOM     24 CL   UNL     1      31.542 -12.536 -20.726  0.00  0.00    -0.082 Cl
ATOM     25  C   UNL     1      31.963  -9.235 -22.916  0.00  0.00    +0.147 C 
ATOM     26  C   UNL     1      31.895  -8.217 -21.980  0.00  0.00    +0.048 C 
ATOM     27  C   UNL     1      31.857 -10.565 -22.549  0.00  0.00    +0.049 C 
ATOM     28  C   UNL     1      31.715  -8.540 -20.636  0.00  0.00    +0.072 C 
ATOM     29  C   UNL     1      31.676 -10.888 -21.205  0.00  0.00    +0.061 C 
ATOM     30  C   UNL     1      31.606  -9.876 -20.248  0.00  0.00    +0.022 C 
BRANCH  28  32
ATOM     31  N   UNL     1      31.584  -6.658 -18.857  0.00  0.00    -0.191 NA
ATOM     32  C   UNL     1      31.644  -7.503 -19.656  0.00  0.00    +0.101 C 
ENDBRANCH  28  32
ENDBRANCH  23  25
ENDBRANCH   4  23
TORSDOF 6
ENDMDL
