MODEL 1
REMARK VINA RESULT:     -12.8      0.000      0.000
REMARK  Name = 3815
REMARK  0 active torsions:
REMARK  status: ('A' for Active; 'I' for Inactive)
REMARK                            x       y       z     vdW  Elec       q    Type
REMARK                         _______ _______ _______ _____ _____    ______ ____
ROOT
ATOM      1  O   UNL     1      30.896 -22.680 -17.326  0.00  0.00    -0.270 OA
ATOM      2  N   UNL     1      37.228 -23.416 -15.784  0.00  0.00    -0.352 N 
ATOM      3  N   UNL     1      36.298 -22.047 -18.028  0.00  0.00    -0.352 N 
ATOM      4  N   UNL     1      31.238 -23.903 -15.352  0.00  0.00    -0.297 N 
ATOM      5  C   UNL     1      33.520 -23.828 -15.339  0.00  0.00    +0.003 A 
ATOM      6  C   UNL     1      34.905 -23.876 -15.181  0.00  0.00    +0.016 A 
ATOM      7  C   UNL     1      34.013 -22.568 -17.326  0.00  0.00    +0.022 A 
ATOM      8  C   UNL     1      35.902 -23.306 -16.035  0.00  0.00    +0.072 A 
ATOM      9  C   UNL     1      33.071 -23.137 -16.468  0.00  0.00    +0.053 A 
ATOM     10  C   UNL     1      35.436 -22.620 -17.159  0.00  0.00    +0.073 A 
ATOM     11  C   UNL     1      32.364 -24.359 -14.559  0.00  0.00    +0.117 C 
ATOM     12  C   UNL     1      35.859 -24.442 -14.222  0.00  0.00    +0.017 A 
ATOM     13  C   UNL     1      34.059 -21.788 -18.573  0.00  0.00    +0.017 A 
ATOM     14  C   UNL     1      37.210 -24.153 -14.607  0.00  0.00    +0.057 A 
ATOM     15  C   UNL     1      35.416 -21.504 -18.949  0.00  0.00    +0.057 A 
ATOM     16  C   UNL     1      31.614 -23.182 -16.483  0.00  0.00    +0.246 C 
ATOM     17  C   UNL     1      35.659 -25.191 -13.038  0.00  0.00    +0.001 C 
ATOM     18  C   UNL     1      33.039 -21.295 -19.421  0.00  0.00    +0.001 C 
ATOM     19  C   UNL     1      38.300 -24.591 -13.843  0.00  0.00    +0.017 C 
ATOM     20  C   UNL     1      35.723 -20.771 -20.106  0.00  0.00    +0.017 C 
ATOM     21  C   UNL     1      36.755 -25.623 -12.283  0.00  0.00    +0.000 C 
ATOM     22  C   UNL     1      33.356 -20.566 -20.572  0.00  0.00    +0.000 C 
ATOM     23  C   UNL     1      38.053 -25.327 -12.682  0.00  0.00    +0.001 C 
ATOM     24  C   UNL     1      34.680 -20.309 -20.907  0.00  0.00    +0.001 C 
ATOM     25  H   UNL     1      37.995 -23.069 -16.294  0.00  0.00    +0.166 HD
ATOM     26  H   UNL     1      37.282 -22.021 -18.011  0.00  0.00    +0.166 HD
ATOM     27  H   UNL     1      30.300 -24.085 -15.115  0.00  0.00    +0.150 HD
ENDROOT
TORSDOF 0
ENDMDL
MODEL 2
REMARK VINA RESULT:     -12.5      0.929      5.961
REMARK  Name = 3815
REMARK  0 active torsions:
REMARK  status: ('A' for Active; 'I' for Inactive)
REMARK                            x       y       z     vdW  Elec       q    Type
REMARK                         _______ _______ _______ _____ _____    ______ ____
ROOT
ATOM      1  O   UNL     1      32.372 -24.971 -13.706  0.00  0.00    -0.270 OA
ATOM      2  N   UNL     1      36.323 -22.020 -18.029  0.00  0.00    -0.352 N 
ATOM      3  N   UNL     1      37.202 -23.383 -15.762  0.00  0.00    -0.352 N 
ATOM      4  N   UNL     1      31.217 -23.939 -15.469  0.00  0.00    -0.297 N 
ATOM      5  C   UNL     1      33.034 -23.126 -16.589  0.00  0.00    +0.003 A 
ATOM      6  C   UNL     1      34.028 -22.564 -17.389  0.00  0.00    +0.016 A 
ATOM      7  C   UNL     1      34.865 -23.868 -15.220  0.00  0.00    +0.022 A 
ATOM      8  C   UNL     1      35.444 -22.605 -17.182  0.00  0.00    +0.072 A 
ATOM      9  C   UNL     1      33.492 -23.806 -15.457  0.00  0.00    +0.053 A 
ATOM     10  C   UNL     1      35.884 -23.288 -16.046  0.00  0.00    +0.073 A 
ATOM     11  C   UNL     1      31.545 -23.174 -16.659  0.00  0.00    +0.117 C 
ATOM     12  C   UNL     1      34.098 -21.784 -18.629  0.00  0.00    +0.017 A 
ATOM     13  C   UNL     1      35.804 -24.425 -14.233  0.00  0.00    +0.017 A 
ATOM     14  C   UNL     1      35.457 -21.483 -18.973  0.00  0.00    +0.057 A 
ATOM     15  C   UNL     1      37.162 -24.119 -14.587  0.00  0.00    +0.057 A 
ATOM     16  C   UNL     1      32.337 -24.328 -14.737  0.00  0.00    +0.246 C 
ATOM     17  C   UNL     1      33.081 -21.308 -19.490  0.00  0.00    +0.001 C 
ATOM     18  C   UNL     1      35.601 -25.177 -13.051  0.00  0.00    +0.001 C 
ATOM     19  C   UNL     1      35.777 -20.745 -20.121  0.00  0.00    +0.017 C 
ATOM     20  C   UNL     1      38.244 -24.542 -13.800  0.00  0.00    +0.017 C 
ATOM     21  C   UNL     1      33.412 -20.572 -20.633  0.00  0.00    +0.000 C 
ATOM     22  C   UNL     1      36.687 -25.593 -12.273  0.00  0.00    +0.000 C 
ATOM     23  C   UNL     1      34.738 -20.297 -20.941  0.00  0.00    +0.001 C 
ATOM     24  C   UNL     1      37.988 -25.279 -12.644  0.00  0.00    +0.001 C 
ATOM     25  H   UNL     1      37.306 -21.984 -17.989  0.00  0.00    +0.166 HD
ATOM     26  H   UNL     1      37.977 -23.028 -16.253  0.00  0.00    +0.166 HD
ATOM     27  H   UNL     1      30.295 -24.161 -15.206  0.00  0.00    +0.150 HD
ENDROOT
TORSDOF 0
ENDMDL
MODEL 3
REMARK VINA RESULT:     -12.5      2.204      4.766
REMARK  Name = 3815
REMARK  0 active torsions:
REMARK  status: ('A' for Active; 'I' for Inactive)
REMARK                            x       y       z     vdW  Elec       q    Type
REMARK                         _______ _______ _______ _____ _____    ______ ____
ROOT
ATOM      1  O   UNL     1      37.198 -22.719 -16.383  0.00  0.00    -0.270 OA
ATOM      2  N   UNL     1      30.723 -23.043 -17.368  0.00  0.00    -0.352 N 
ATOM      3  N   UNL     1      32.517 -21.757 -19.072  0.00  0.00    -0.352 N 
ATOM      4  N   UNL     1      36.058 -23.895 -14.702  0.00  0.00    -0.297 N 
ATOM      5  C   UNL     1      33.951 -23.680 -15.555  0.00  0.00    +0.003 A 
ATOM      6  C   UNL     1      32.610 -23.641 -15.936  0.00  0.00    +0.016 A 
ATOM      7  C   UNL     1      34.328 -22.413 -17.563  0.00  0.00    +0.022 A 
ATOM      8  C   UNL     1      32.048 -23.019 -17.097  0.00  0.00    +0.072 A 
ATOM      9  C   UNL     1      34.837 -23.031 -16.421  0.00  0.00    +0.053 A 
ATOM     10  C   UNL     1      32.948 -22.375 -17.950  0.00  0.00    +0.073 A 
ATOM     11  C   UNL     1      34.689 -24.271 -14.402  0.00  0.00    +0.117 C 
ATOM     12  C   UNL     1      31.330 -24.135 -15.418  0.00  0.00    +0.017 A 
ATOM     13  C   UNL     1      34.806 -21.643 -18.722  0.00  0.00    +0.017 A 
ATOM     14  C   UNL     1      30.247 -23.766 -16.282  0.00  0.00    +0.057 A 
ATOM     15  C   UNL     1      33.714 -21.278 -19.582  0.00  0.00    +0.057 A 
ATOM     16  C   UNL     1      36.185 -23.165 -15.882  0.00  0.00    +0.246 C 
ATOM     17  C   UNL     1      31.019 -24.880 -14.256  0.00  0.00    +0.001 C 
ATOM     18  C   UNL     1      36.101 -21.223 -19.113  0.00  0.00    +0.001 C 
ATOM     19  C   UNL     1      28.923 -24.127 -15.995  0.00  0.00    +0.017 C 
ATOM     20  C   UNL     1      33.914 -20.538 -20.757  0.00  0.00    +0.017 C 
ATOM     21  C   UNL     1      29.695 -25.235 -13.980  0.00  0.00    +0.000 C 
ATOM     22  C   UNL     1      36.289 -20.484 -20.286  0.00  0.00    +0.000 C 
ATOM     23  C   UNL     1      28.666 -24.863 -14.837  0.00  0.00    +0.001 C 
ATOM     24  C   UNL     1      35.210 -20.149 -21.095  0.00  0.00    +0.001 C 
ATOM     25  H   UNL     1      30.230 -22.654 -18.127  0.00  0.00    +0.166 HD
ATOM     26  H   UNL     1      31.604 -21.672 -19.431  0.00  0.00    +0.166 HD
ATOM     27  H   UNL     1      36.823 -24.133 -14.129  0.00  0.00    +0.150 HD
ENDROOT
TORSDOF 0
ENDMDL
MODEL 4
REMARK VINA RESULT:     -12.4      2.068      6.495
REMARK  Name = 3815
REMARK  0 active torsions:
REMARK  status: ('A' for Active; 'I' for Inactive)
REMARK                            x       y       z     vdW  Elec       q    Type
REMARK                         _______ _______ _______ _____ _____    ______ ____
ROOT
ATOM      1  O   UNL     1      34.997 -24.472 -13.928  0.00  0.00    -0.270 OA
ATOM      2  N   UNL     1      32.465 -21.589 -19.247  0.00  0.00    -0.352 N 
ATOM      3  N   UNL     1      30.971 -22.953 -17.329  0.00  0.00    -0.352 N 
ATOM      4  N   UNL     1      36.609 -23.436 -15.283  0.00  0.00    -0.297 N 
ATOM      5  C   UNL     1      35.195 -22.649 -16.893  0.00  0.00    +0.003 A 
ATOM      6  C   UNL     1      34.475 -22.102 -17.954  0.00  0.00    +0.016 A 
ATOM      7  C   UNL     1      33.049 -23.407 -16.118  0.00  0.00    +0.022 A 
ATOM      8  C   UNL     1      33.061 -22.159 -18.174  0.00  0.00    +0.072 A 
ATOM      9  C   UNL     1      34.430 -23.329 -15.940  0.00  0.00    +0.053 A 
ATOM     10  C   UNL     1      32.313 -22.843 -17.212  0.00  0.00    +0.073 A 
ATOM     11  C   UNL     1      36.639 -22.681 -16.521  0.00  0.00    +0.117 C 
ATOM     12  C   UNL     1      34.766 -21.329 -19.166  0.00  0.00    +0.017 A 
ATOM     13  C   UNL     1      31.867 -23.973 -15.449  0.00  0.00    +0.017 A 
ATOM     14  C   UNL     1      33.565 -21.047 -19.898  0.00  0.00    +0.057 A 
ATOM     15  C   UNL     1      30.671 -23.685 -16.190  0.00  0.00    +0.057 A 
ATOM     16  C   UNL     1      35.328 -23.835 -14.909  0.00  0.00    +0.246 C 
ATOM     17  C   UNL     1      35.987 -20.846 -19.694  0.00  0.00    +0.001 C 
ATOM     18  C   UNL     1      31.721 -24.718 -14.254  0.00  0.00    +0.001 C 
ATOM     19  C   UNL     1      33.591 -20.318 -21.095  0.00  0.00    +0.017 C 
ATOM     20  C   UNL     1      29.410 -24.120 -15.755  0.00  0.00    +0.017 C 
ATOM     21  C   UNL     1      36.000 -20.119 -20.889  0.00  0.00    +0.000 C 
ATOM     22  C   UNL     1      30.459 -25.147 -13.829  0.00  0.00    +0.000 C 
ATOM     23  C   UNL     1      34.820 -19.862 -21.577  0.00  0.00    +0.001 C 
ATOM     24  C   UNL     1      29.322 -24.851 -14.570  0.00  0.00    +0.001 C 
ATOM     25  H   UNL     1      31.514 -21.565 -19.498  0.00  0.00    +0.166 HD
ATOM     26  H   UNL     1      30.371 -22.609 -18.028  0.00  0.00    +0.166 HD
ATOM     27  H   UNL     1      37.415 -23.646 -14.757  0.00  0.00    +0.150 HD
ENDROOT
TORSDOF 0
ENDMDL
MODEL 5
REMARK VINA RESULT:     -12.0      8.303     13.258
REMARK  Name = 3815
REMARK  0 active torsions:
REMARK  status: ('A' for Active; 'I' for Inactive)
REMARK                            x       y       z     vdW  Elec       q    Type
REMARK                         _______ _______ _______ _____ _____    ______ ____
ROOT
ATOM      1  O   UNL     1      32.509 -18.056 -26.804  0.00  0.00    -0.270 OA
ATOM      2  N   UNL     1      34.167 -12.654 -23.477  0.00  0.00    -0.352 N 
ATOM      3  N   UNL     1      34.648 -15.257 -22.601  0.00  0.00    -0.352 N 
ATOM      4  N   UNL     1      31.918 -16.068 -27.902  0.00  0.00    -0.297 N 
ATOM      5  C   UNL     1      32.711 -14.608 -26.337  0.00  0.00    +0.003 A 
ATOM      6  C   UNL     1      33.139 -13.588 -25.488  0.00  0.00    +0.016 A 
ATOM      7  C   UNL     1      33.597 -16.078 -24.654  0.00  0.00    +0.022 A 
ATOM      8  C   UNL     1      33.794 -13.721 -24.222  0.00  0.00    +0.072 A 
ATOM      9  C   UNL     1      32.961 -15.906 -25.883  0.00  0.00    +0.053 A 
ATOM     10  C   UNL     1      34.035 -15.025 -23.783  0.00  0.00    +0.073 A 
ATOM     11  C   UNL     1      32.026 -14.641 -27.662  0.00  0.00    +0.117 C 
ATOM     12  C   UNL     1      33.127 -12.121 -25.477  0.00  0.00    +0.017 A 
ATOM     13  C   UNL     1      34.060 -17.166 -23.778  0.00  0.00    +0.017 A 
ATOM     14  C   UNL     1      33.737 -11.609 -24.285  0.00  0.00    +0.057 A 
ATOM     15  C   UNL     1      34.669 -16.643 -22.587  0.00  0.00    +0.057 A 
ATOM     16  C   UNL     1      32.456 -16.844 -26.878  0.00  0.00    +0.246 C 
ATOM     17  C   UNL     1      32.631 -11.185 -26.416  0.00  0.00    +0.001 C 
ATOM     18  C   UNL     1      34.008 -18.575 -23.909  0.00  0.00    +0.001 C 
ATOM     19  C   UNL     1      33.844 -10.231 -24.049  0.00  0.00    +0.017 C 
ATOM     20  C   UNL     1      35.191 -17.485 -21.593  0.00  0.00    +0.017 C 
ATOM     21  C   UNL     1      32.743  -9.813 -26.170  0.00  0.00    +0.000 C 
ATOM     22  C   UNL     1      34.530 -19.405 -22.911  0.00  0.00    +0.000 C 
ATOM     23  C   UNL     1      33.339  -9.346 -25.004  0.00  0.00    +0.001 C 
ATOM     24  C   UNL     1      35.113 -18.866 -21.772  0.00  0.00    +0.001 C 
ATOM     25  H   UNL     1      34.618 -12.625 -22.602  0.00  0.00    +0.166 HD
ATOM     26  H   UNL     1      34.986 -14.618 -21.934  0.00  0.00    +0.166 HD
ATOM     27  H   UNL     1      31.505 -16.451 -28.710  0.00  0.00    +0.150 HD
ENDROOT
TORSDOF 0
ENDMDL
MODEL 6
REMARK VINA RESULT:     -11.9      1.701      4.454
REMARK  Name = 3815
REMARK  0 active torsions:
REMARK  status: ('A' for Active; 'I' for Inactive)
REMARK                            x       y       z     vdW  Elec       q    Type
REMARK                         _______ _______ _______ _____ _____    ______ ____
ROOT
ATOM      1  O   UNL     1      32.331 -21.832 -18.888  0.00  0.00    -0.270 OA
ATOM      2  N   UNL     1      34.417 -25.001 -13.539  0.00  0.00    -0.352 N 
ATOM      3  N   UNL     1      31.737 -24.643 -14.217  0.00  0.00    -0.352 N 
ATOM      4  N   UNL     1      34.669 -21.901 -18.699  0.00  0.00    -0.297 N 
ATOM      5  C   UNL     1      34.783 -23.073 -16.743  0.00  0.00    +0.003 A 
ATOM      6  C   UNL     1      35.027 -23.776 -15.564  0.00  0.00    +0.016 A 
ATOM      7  C   UNL     1      32.465 -23.432 -16.215  0.00  0.00    +0.022 A 
ATOM      8  C   UNL     1      34.065 -24.334 -14.663  0.00  0.00    +0.072 A 
ATOM      9  C   UNL     1      33.433 -22.903 -17.068  0.00  0.00    +0.053 A 
ATOM     10  C   UNL     1      32.722 -24.154 -15.003  0.00  0.00    +0.073 A 
ATOM     11  C   UNL     1      35.651 -22.437 -17.775  0.00  0.00    +0.117 C 
ATOM     12  C   UNL     1      36.197 -24.214 -14.796  0.00  0.00    +0.017 A 
ATOM     13  C   UNL     1      31.000 -23.521 -16.108  0.00  0.00    +0.017 A 
ATOM     14  C   UNL     1      35.802 -24.928 -13.617  0.00  0.00    +0.057 A 
ATOM     15  C   UNL     1      30.615 -24.238 -14.924  0.00  0.00    +0.057 A 
ATOM     16  C   UNL     1      33.354 -22.155 -18.317  0.00  0.00    +0.246 C 
ATOM     17  C   UNL     1      37.583 -24.048 -15.030  0.00  0.00    +0.001 C 
ATOM     18  C   UNL     1      29.958 -23.042 -16.938  0.00  0.00    +0.001 C 
ATOM     19  C   UNL     1      36.748 -25.448 -12.722  0.00  0.00    +0.017 C 
ATOM     20  C   UNL     1      29.268 -24.456 -14.598  0.00  0.00    +0.017 C 
ATOM     21  C   UNL     1      38.518 -24.570 -14.131  0.00  0.00    +0.000 C 
ATOM     22  C   UNL     1      28.618 -23.265 -16.603  0.00  0.00    +0.000 C 
ATOM     23  C   UNL     1      38.105 -25.258 -12.996  0.00  0.00    +0.001 C 
ATOM     24  C   UNL     1      28.280 -23.962 -15.450  0.00  0.00    +0.001 C 
ATOM     25  H   UNL     1      33.850 -25.422 -12.854  0.00  0.00    +0.166 HD
ATOM     26  H   UNL     1      31.798 -25.148 -13.374  0.00  0.00    +0.166 HD
ATOM     27  H   UNL     1      34.908 -21.407 -19.517  0.00  0.00    +0.150 HD
ENDROOT
TORSDOF 0
ENDMDL
MODEL 7
REMARK VINA RESULT:     -11.6      8.213     12.009
REMARK  Name = 3815
REMARK  0 active torsions:
REMARK  status: ('A' for Active; 'I' for Inactive)
REMARK                            x       y       z     vdW  Elec       q    Type
REMARK                         _______ _______ _______ _____ _____    ______ ____
ROOT
ATOM      1  O   UNL     1      31.689 -14.229 -28.132  0.00  0.00    -0.270 OA
ATOM      2  N   UNL     1      34.706 -15.449 -22.438  0.00  0.00    -0.352 N 
ATOM      3  N   UNL     1      34.212 -12.898 -23.449  0.00  0.00    -0.352 N 
ATOM      4  N   UNL     1      31.901 -16.519 -27.662  0.00  0.00    -0.297 N 
ATOM      5  C   UNL     1      32.974 -16.321 -25.656  0.00  0.00    +0.003 A 
ATOM      6  C   UNL     1      33.628 -16.375 -24.426  0.00  0.00    +0.016 A 
ATOM      7  C   UNL     1      33.155 -13.938 -25.395  0.00  0.00    +0.022 A 
ATOM      8  C   UNL     1      34.076 -15.278 -23.624  0.00  0.00    +0.072 A 
ATOM      9  C   UNL     1      32.733 -15.034 -26.148  0.00  0.00    +0.053 A 
ATOM     10  C   UNL     1      33.828 -14.000 -24.131  0.00  0.00    +0.073 A 
ATOM     11  C   UNL     1      32.451 -17.347 -26.604  0.00  0.00    +0.117 C 
ATOM     12  C   UNL     1      34.102 -17.414 -23.506  0.00  0.00    +0.017 A 
ATOM     13  C   UNL     1      33.146 -12.468 -25.462  0.00  0.00    +0.017 A 
ATOM     14  C   UNL     1      34.728 -16.835 -22.353  0.00  0.00    +0.057 A 
ATOM     15  C   UNL     1      33.775 -11.897 -24.303  0.00  0.00    +0.057 A 
ATOM     16  C   UNL     1      32.048 -15.154 -27.429  0.00  0.00    +0.246 C 
ATOM     17  C   UNL     1      34.039 -18.826 -23.579  0.00  0.00    +0.001 C 
ATOM     18  C   UNL     1      32.645 -11.566 -26.432  0.00  0.00    +0.001 C 
ATOM     19  C   UNL     1      35.260 -17.631 -21.329  0.00  0.00    +0.017 C 
ATOM     20  C   UNL     1      33.891 -10.509 -24.134  0.00  0.00    +0.017 C 
ATOM     21  C   UNL     1      34.573 -19.610 -22.552  0.00  0.00    +0.000 C 
ATOM     22  C   UNL     1      32.767 -10.184 -26.253  0.00  0.00    +0.000 C 
ATOM     23  C   UNL     1      35.174 -19.020 -21.447  0.00  0.00    +0.001 C 
ATOM     24  C   UNL     1      33.381  -9.666 -25.120  0.00  0.00    +0.001 C 
ATOM     25  H   UNL     1      35.053 -14.777 -21.809  0.00  0.00    +0.166 HD
ATOM     26  H   UNL     1      34.674 -12.825 -22.583  0.00  0.00    +0.166 HD
ATOM     27  H   UNL     1      31.466 -16.886 -28.465  0.00  0.00    +0.150 HD
ENDROOT
TORSDOF 0
ENDMDL
MODEL 8
REMARK VINA RESULT:     -11.5      2.059      6.377
REMARK  Name = 3815
REMARK  0 active torsions:
REMARK  status: ('A' for Active; 'I' for Inactive)
REMARK                            x       y       z     vdW  Elec       q    Type
REMARK                         _______ _______ _______ _____ _____    ______ ____
ROOT
ATOM      1  O   UNL     1      36.581 -22.332 -17.851  0.00  0.00    -0.270 OA
ATOM      2  N   UNL     1      31.658 -24.702 -14.224  0.00  0.00    -0.352 N 
ATOM      3  N   UNL     1      34.360 -24.983 -13.595  0.00  0.00    -0.352 N 
ATOM      4  N   UNL     1      34.460 -21.872 -18.745  0.00  0.00    -0.297 N 
ATOM      5  C   UNL     1      33.218 -22.895 -17.124  0.00  0.00    +0.003 A 
ATOM      6  C   UNL     1      32.318 -23.468 -16.227  0.00  0.00    +0.016 A 
ATOM      7  C   UNL     1      34.902 -23.735 -15.629  0.00  0.00    +0.022 A 
ATOM      8  C   UNL     1      32.619 -24.184 -15.024  0.00  0.00    +0.072 A 
ATOM      9  C   UNL     1      34.568 -23.044 -16.794  0.00  0.00    +0.053 A 
ATOM     10  C   UNL     1      33.972 -24.324 -14.709  0.00  0.00    +0.073 A 
ATOM     11  C   UNL     1      33.075 -22.132 -18.398  0.00  0.00    +0.117 C 
ATOM     12  C   UNL     1      30.863 -23.600 -16.099  0.00  0.00    +0.017 A 
ATOM     13  C   UNL     1      36.100 -24.145 -14.879  0.00  0.00    +0.017 A 
ATOM     14  C   UNL     1      30.513 -24.328 -14.914  0.00  0.00    +0.057 A 
ATOM     15  C   UNL     1      35.739 -24.873 -13.694  0.00  0.00    +0.057 A 
ATOM     16  C   UNL     1      35.367 -22.393 -17.825  0.00  0.00    +0.246 C 
ATOM     17  C   UNL     1      29.808 -23.142 -16.924  0.00  0.00    +0.001 C 
ATOM     18  C   UNL     1      37.481 -23.950 -15.118  0.00  0.00    +0.001 C 
ATOM     19  C   UNL     1      29.176 -24.581 -14.577  0.00  0.00    +0.017 C 
ATOM     20  C   UNL     1      36.707 -25.373 -12.810  0.00  0.00    +0.017 C 
ATOM     21  C   UNL     1      28.478 -23.400 -16.577  0.00  0.00    +0.000 C 
ATOM     22  C   UNL     1      38.439 -24.453 -14.231  0.00  0.00    +0.000 C 
ATOM     23  C   UNL     1      28.170 -24.109 -15.422  0.00  0.00    +0.001 C 
ATOM     24  C   UNL     1      38.055 -25.153 -13.094  0.00  0.00    +0.001 C 
ATOM     25  H   UNL     1      31.746 -25.207 -13.383  0.00  0.00    +0.166 HD
ATOM     26  H   UNL     1      33.814 -25.420 -12.902  0.00  0.00    +0.166 HD
ATOM     27  H   UNL     1      34.732 -21.376 -19.550  0.00  0.00    +0.150 HD
ENDROOT
TORSDOF 0
ENDMDL
MODEL 9
REMARK VINA RESULT:     -10.1      9.004     12.597
REMARK  Name = 3815
REMARK  0 active torsions:
REMARK  status: ('A' for Active; 'I' for Inactive)
REMARK                            x       y       z     vdW  Elec       q    Type
REMARK                         _______ _______ _______ _____ _____    ______ ____
ROOT
ATOM      1  O   UNL     1      34.943 -16.970 -20.719  0.00  0.00    -0.270 OA
ATOM      2  N   UNL     1      33.144 -13.859 -26.204  0.00  0.00    -0.352 N 
ATOM      3  N   UNL     1      33.628 -16.599 -26.030  0.00  0.00    -0.352 N 
ATOM      4  N   UNL     1      34.642 -14.661 -20.424  0.00  0.00    -0.297 N 
ATOM      5  C   UNL     1      34.051 -14.154 -22.571  0.00  0.00    +0.003 A 
ATOM      6  C   UNL     1      33.676 -13.678 -23.826  0.00  0.00    +0.016 A 
ATOM      7  C   UNL     1      34.140 -16.297 -23.657  0.00  0.00    +0.022 A 
ATOM      8  C   UNL     1      33.513 -14.429 -25.034  0.00  0.00    +0.072 A 
ATOM      9  C   UNL     1      34.289 -15.530 -22.501  0.00  0.00    +0.053 A 
ATOM     10  C   UNL     1      33.755 -15.802 -24.946  0.00  0.00    +0.073 A 
ATOM     11  C   UNL     1      34.265 -13.520 -21.238  0.00  0.00    +0.117 C 
ATOM     12  C   UNL     1      33.327 -12.386 -24.426  0.00  0.00    +0.017 A 
ATOM     13  C   UNL     1      34.265 -17.698 -24.091  0.00  0.00    +0.017 A 
ATOM     14  C   UNL     1      33.021 -12.530 -25.820  0.00  0.00    +0.057 A 
ATOM     15  C   UNL     1      33.957 -17.832 -25.487  0.00  0.00    +0.057 A 
ATOM     16  C   UNL     1      34.667 -15.861 -21.132  0.00  0.00    +0.246 C 
ATOM     17  C   UNL     1      33.250 -11.088 -23.867  0.00  0.00    +0.001 C 
ATOM     18  C   UNL     1      34.621 -18.878 -23.394  0.00  0.00    +0.001 C 
ATOM     19  C   UNL     1      32.657 -11.430 -26.608  0.00  0.00    +0.017 C 
ATOM     20  C   UNL     1      34.005 -19.073 -26.139  0.00  0.00    +0.017 C 
ATOM     21  C   UNL     1      32.886  -9.998 -24.664  0.00  0.00    +0.000 C 
ATOM     22  C   UNL     1      34.666 -20.111 -24.053  0.00  0.00    +0.000 C 
ATOM     23  C   UNL     1      32.595 -10.169 -26.012  0.00  0.00    +0.001 C 
ATOM     24  C   UNL     1      34.362 -20.205 -25.405  0.00  0.00    +0.001 C 
ATOM     25  H   UNL     1      33.002 -14.271 -27.087  0.00  0.00    +0.166 HD
ATOM     26  H   UNL     1      33.372 -16.368 -26.952  0.00  0.00    +0.166 HD
ATOM     27  H   UNL     1      34.857 -14.595 -19.466  0.00  0.00    +0.150 HD
ENDROOT
TORSDOF 0
ENDMDL
