MODEL 1
REMARK VINA RESULT:     -12.0      0.000      0.000
REMARK  Name = 6420159
REMARK  9 active torsions:
REMARK  status: ('A' for Active; 'I' for Inactive)
REMARK    1  A    between atoms: C_1  and  N_3
REMARK    2  A    between atoms: C_1  and  C_15
REMARK    3  A    between atoms: C_1  and  C_29
REMARK    4  A    between atoms: N_14  and  C_17
REMARK    5  A    between atoms: C_17  and  C_18
REMARK    6  A    between atoms: C_18  and  N_19
REMARK    7  A    between atoms: N_19  and  C_21
REMARK    8  A    between atoms: C_26  and  O_27
REMARK    9  A    between atoms: C_29  and  C_30
REMARK                            x       y       z     vdW  Elec       q    Type
REMARK                         _______ _______ _______ _____ _____    ______ ____
ROOT
ATOM      1  C   UNL     1      32.961 -23.387 -17.091  0.00  0.00    +0.151 C 
ENDROOT
BRANCH   1   3
ATOM      2  O   UNL     1      35.410 -23.040 -14.385  0.00  0.00    -0.414 OA
ATOM      3  N   UNL     1      33.779 -22.909 -15.996  0.00  0.00    -0.271 N 
ATOM      4  N   UNL     1      35.111 -24.885 -15.668  0.00  0.00    -0.356 NA
ATOM      5  C   UNL     1      34.761 -23.670 -15.387  0.00  0.00    +0.345 C 
ATOM      6  C   UNL     1      36.300 -23.989 -13.970  0.00  0.00    +0.175 C 
ATOM      7  C   UNL     1      36.114 -25.117 -14.757  0.00  0.00    +0.152 C 
ATOM      8  C   UNL     1      37.236 -23.883 -12.950  0.00  0.00    +0.040 C 
ATOM      9  C   UNL     1      36.916 -26.243 -14.527  0.00  0.00    +0.088 C 
ATOM     10  C   UNL     1      38.029 -25.015 -12.733  0.00  0.00    -0.001 C 
ATOM     11  C   UNL     1      37.873 -26.174 -13.505  0.00  0.00    -0.018 C 
ATOM     12  H   UNL     1      33.627 -21.994 -15.668  0.00  0.00    +0.153 HD
ENDBRANCH   1   3
BRANCH   1  15
ATOM     13  O   UNL     1      33.580 -23.870 -19.382  0.00  0.00    -0.273 OA
ATOM     14  N   UNL     1      34.544 -22.043 -18.330  0.00  0.00    -0.301 N 
ATOM     15  C   UNL     1      33.708 -23.148 -18.396  0.00  0.00    +0.240 C 
ATOM     16  H   UNL     1      34.582 -21.522 -17.496  0.00  0.00    +0.150 HD
BRANCH  14  17
ATOM     17  C   UNL     1      35.361 -21.632 -19.447  0.00  0.00    +0.111 C 
BRANCH  17  18
ATOM     18  C   UNL     1      34.620 -20.695 -20.387  0.00  0.00    +0.109 C 
BRANCH  18  19
ATOM     19  N   UNL     1      35.358 -19.466 -20.558  0.00  0.00    -0.331 N 
ATOM     20  H   UNL     1      36.097 -19.277 -19.935  0.00  0.00    +0.147 HD
BRANCH  19  21
ATOM     21  C   UNL     1      35.086 -18.536 -21.550  0.00  0.00    +0.045 C 
ATOM     22  C   UNL     1      34.881 -18.940 -22.882  0.00  0.00    +0.017 C 
ATOM     23  C   UNL     1      35.009 -17.164 -21.251  0.00  0.00    +0.017 C 
ATOM     24  C   UNL     1      34.608 -18.004 -23.880  0.00  0.00    +0.038 C 
ATOM     25  C   UNL     1      34.736 -16.228 -22.249  0.00  0.00    +0.038 C 
ATOM     26  C   UNL     1      34.536 -16.648 -23.563  0.00  0.00    +0.139 C 
BRANCH  26  27
ATOM     27  O   UNL     1      34.269 -15.735 -24.536  0.00  0.00    -0.471 OA
ATOM     28  C   UNL     1      33.448 -14.625 -24.178  0.00  0.00    +0.252 C 
ENDBRANCH  26  27
ENDBRANCH  19  21
ENDBRANCH  18  19
ENDBRANCH  17  18
ENDBRANCH  14  17
ENDBRANCH   1  15
BRANCH   1  29
ATOM     29  C   UNL     1      31.619 -22.653 -17.113  0.00  0.00    +0.029 C 
BRANCH  29  30
ATOM     30  C   UNL     1      30.669 -23.140 -16.021  0.00  0.00    +0.002 C 
ATOM     31  C   UNL     1      31.063 -24.545 -15.546  0.00  0.00    +0.000 C 
ATOM     32  C   UNL     1      29.216 -23.119 -16.516  0.00  0.00    +0.000 C 
ATOM     33  C   UNL     1      30.095 -25.075 -14.490  0.00  0.00    +0.000 C 
ATOM     34  C   UNL     1      28.252 -23.652 -15.460  0.00  0.00    +0.000 C 
ATOM     35  C   UNL     1      28.653 -25.045 -14.983  0.00  0.00    +0.000 C 
ENDBRANCH  29  30
ENDBRANCH   1  29
TORSDOF 9
ENDMDL
MODEL 2
REMARK VINA RESULT:     -11.8      0.693      1.132
REMARK  Name = 6420159
REMARK  9 active torsions:
REMARK  status: ('A' for Active; 'I' for Inactive)
REMARK    1  A    between atoms: C_1  and  N_3
REMARK    2  A    between atoms: C_1  and  C_15
REMARK    3  A    between atoms: C_1  and  C_29
REMARK    4  A    between atoms: N_14  and  C_17
REMARK    5  A    between atoms: C_17  and  C_18
REMARK    6  A    between atoms: C_18  and  N_19
REMARK    7  A    between atoms: N_19  and  C_21
REMARK    8  A    between atoms: C_26  and  O_27
REMARK    9  A    between atoms: C_29  and  C_30
REMARK                            x       y       z     vdW  Elec       q    Type
REMARK                         _______ _______ _______ _____ _____    ______ ____
ROOT
ATOM      1  C   UNL     1      33.105 -23.369 -17.101  0.00  0.00    +0.151 C 
ENDROOT
BRANCH   1   3
ATOM      2  O   UNL     1      35.693 -23.035 -14.526  0.00  0.00    -0.414 OA
ATOM      3  N   UNL     1      34.004 -22.885 -16.075  0.00  0.00    -0.271 N 
ATOM      4  N   UNL     1      35.203 -24.931 -15.668  0.00  0.00    -0.356 NA
ATOM      5  C   UNL     1      34.955 -23.677 -15.456  0.00  0.00    +0.345 C 
ATOM      6  C   UNL     1      36.530 -24.020 -14.085  0.00  0.00    +0.175 C 
ATOM      7  C   UNL     1      36.227 -25.179 -14.786  0.00  0.00    +0.152 C 
ATOM      8  C   UNL     1      37.517 -23.919 -13.113  0.00  0.00    +0.040 C 
ATOM      9  C   UNL     1      36.954 -26.345 -14.513  0.00  0.00    +0.088 C 
ATOM     10  C   UNL     1      38.233 -25.092 -12.852  0.00  0.00    -0.001 C 
ATOM     11  C   UNL     1      37.959 -26.282 -13.537  0.00  0.00    -0.018 C 
ATOM     12  H   UNL     1      33.935 -21.942 -15.804  0.00  0.00    +0.153 HD
ENDBRANCH   1   3
BRANCH   1  15
ATOM     13  O   UNL     1      33.452 -23.669 -19.480  0.00  0.00    -0.273 OA
ATOM     14  N   UNL     1      34.511 -21.903 -18.414  0.00  0.00    -0.301 N 
ATOM     15  C   UNL     1      33.688 -23.018 -18.464  0.00  0.00    +0.240 C 
ATOM     16  H   UNL     1      34.641 -21.444 -17.553  0.00  0.00    +0.150 HD
BRANCH  14  17
ATOM     17  C   UNL     1      35.184 -21.394 -19.584  0.00  0.00    +0.111 C 
BRANCH  17  18
ATOM     18  C   UNL     1      34.273 -20.525 -20.438  0.00  0.00    +0.109 C 
BRANCH  18  19
ATOM     19  N   UNL     1      34.890 -19.244 -20.690  0.00  0.00    -0.331 N 
ATOM     20  H   UNL     1      35.427 -18.837 -19.971  0.00  0.00    +0.147 HD
BRANCH  19  21
ATOM     21  C   UNL     1      34.770 -18.554 -21.886  0.00  0.00    +0.045 C 
ATOM     22  C   UNL     1      34.425 -19.223 -23.075  0.00  0.00    +0.017 C 
ATOM     23  C   UNL     1      34.991 -17.166 -21.944  0.00  0.00    +0.017 C 
ATOM     24  C   UNL     1      34.305 -18.529 -24.278  0.00  0.00    +0.038 C 
ATOM     25  C   UNL     1      34.871 -16.471 -23.147  0.00  0.00    +0.038 C 
ATOM     26  C   UNL     1      34.529 -17.153 -24.315  0.00  0.00    +0.139 C 
BRANCH  26  27
ATOM     27  O   UNL     1      34.410 -16.474 -25.489  0.00  0.00    -0.471 OA
ATOM     28  C   UNL     1      33.169 -16.585 -26.182  0.00  0.00    +0.252 C 
ENDBRANCH  26  27
ENDBRANCH  19  21
ENDBRANCH  18  19
ENDBRANCH  17  18
ENDBRANCH  14  17
ENDBRANCH   1  15
BRANCH   1  29
ATOM     29  C   UNL     1      31.723 -22.732 -16.942  0.00  0.00    +0.029 C 
BRANCH  29  30
ATOM     30  C   UNL     1      30.644 -23.755 -16.596  0.00  0.00    +0.002 C 
ATOM     31  C   UNL     1      29.255 -23.104 -16.607  0.00  0.00    +0.000 C 
ATOM     32  C   UNL     1      30.930 -24.406 -15.235  0.00  0.00    +0.000 C 
ATOM     33  C   UNL     1      28.163 -24.096 -16.212  0.00  0.00    +0.000 C 
ATOM     34  C   UNL     1      29.836 -25.395 -14.842  0.00  0.00    +0.000 C 
ATOM     35  C   UNL     1      28.456 -24.746 -14.863  0.00  0.00    +0.000 C 
ENDBRANCH  29  30
ENDBRANCH   1  29
TORSDOF 9
ENDMDL
MODEL 3
REMARK VINA RESULT:     -11.4      4.722      9.416
REMARK  Name = 6420159
REMARK  9 active torsions:
REMARK  status: ('A' for Active; 'I' for Inactive)
REMARK    1  A    between atoms: C_1  and  N_3
REMARK    2  A    between atoms: C_1  and  C_15
REMARK    3  A    between atoms: C_1  and  C_29
REMARK    4  A    between atoms: N_14  and  C_17
REMARK    5  A    between atoms: C_17  and  C_18
REMARK    6  A    between atoms: C_18  and  N_19
REMARK    7  A    between atoms: N_19  and  C_21
REMARK    8  A    between atoms: C_26  and  O_27
REMARK    9  A    between atoms: C_29  and  C_30
REMARK                            x       y       z     vdW  Elec       q    Type
REMARK                         _______ _______ _______ _____ _____    ______ ____
ROOT
ATOM      1  C   UNL     1      34.891 -16.955 -23.113  0.00  0.00    +0.151 C 
ENDROOT
BRANCH   1   3
ATOM      2  O   UNL     1      33.182 -19.676 -21.348  0.00  0.00    -0.414 OA
ATOM      3  N   UNL     1      33.921 -17.903 -22.606  0.00  0.00    -0.271 N 
ATOM      4  N   UNL     1      35.377 -19.147 -21.150  0.00  0.00    -0.356 NA
ATOM      5  C   UNL     1      34.227 -18.896 -21.692  0.00  0.00    +0.345 C 
ATOM      6  C   UNL     1      33.746 -20.547 -20.460  0.00  0.00    +0.175 C 
ATOM      7  C   UNL     1      35.089 -20.220 -20.341  0.00  0.00    +0.152 C 
ATOM      8  C   UNL     1      33.121 -21.584 -19.779  0.00  0.00    +0.040 C 
ATOM      9  C   UNL     1      35.896 -20.975 -19.479  0.00  0.00    +0.088 C 
ATOM     10  C   UNL     1      33.940 -22.327 -18.922  0.00  0.00    -0.001 C 
ATOM     11  C   UNL     1      35.301 -22.031 -18.774  0.00  0.00    -0.018 C 
ATOM     12  H   UNL     1      32.994 -17.838 -22.930  0.00  0.00    +0.153 HD
ENDBRANCH   1   3
BRANCH   1  15
ATOM     13  O   UNL     1      34.621 -15.383 -21.290  0.00  0.00    -0.273 OA
ATOM     14  N   UNL     1      34.307 -14.634 -23.462  0.00  0.00    -0.301 N 
ATOM     15  C   UNL     1      34.602 -15.591 -22.502  0.00  0.00    +0.240 C 
ATOM     16  H   UNL     1      34.316 -14.893 -24.412  0.00  0.00    +0.150 HD
BRANCH  14  17
ATOM     17  C   UNL     1      33.988 -13.271 -23.114  0.00  0.00    +0.111 C 
BRANCH  17  18
ATOM     18  C   UNL     1      32.575 -12.888 -23.523  0.00  0.00    +0.109 C 
BRANCH  18  19
ATOM     19  N   UNL     1      31.741 -12.719 -22.356  0.00  0.00    -0.331 N 
ATOM     20  H   UNL     1      31.135 -13.455 -22.108  0.00  0.00    +0.147 HD
BRANCH  19  21
ATOM     21  C   UNL     1      31.743 -11.581 -21.566  0.00  0.00    +0.045 C 
ATOM     22  C   UNL     1      31.849 -10.302 -22.143  0.00  0.00    +0.017 C 
ATOM     23  C   UNL     1      31.641 -11.673 -20.166  0.00  0.00    +0.017 C 
ATOM     24  C   UNL     1      31.853  -9.156 -21.348  0.00  0.00    +0.038 C 
ATOM     25  C   UNL     1      31.646 -10.527 -19.370  0.00  0.00    +0.038 C 
ATOM     26  C   UNL     1      31.752  -9.269 -19.961  0.00  0.00    +0.139 C 
BRANCH  26  27
ATOM     27  O   UNL     1      31.754  -8.151 -19.185  0.00  0.00    -0.471 OA
ATOM     28  C   UNL     1      31.443  -6.914 -19.824  0.00  0.00    +0.252 C 
ENDBRANCH  26  27
ENDBRANCH  19  21
ENDBRANCH  18  19
ENDBRANCH  17  18
ENDBRANCH  14  17
ENDBRANCH   1  15
BRANCH   1  29
ATOM     29  C   UNL     1      34.811 -16.875 -24.638  0.00  0.00    +0.029 C 
BRANCH  29  30
ATOM     30  C   UNL     1      33.413 -17.191 -25.168  0.00  0.00    +0.002 C 
ATOM     31  C   UNL     1      33.338 -18.640 -25.668  0.00  0.00    +0.000 C 
ATOM     32  C   UNL     1      33.019 -16.209 -26.279  0.00  0.00    +0.000 C 
ATOM     33  C   UNL     1      31.965 -18.965 -26.250  0.00  0.00    +0.000 C 
ATOM     34  C   UNL     1      31.647 -16.538 -26.861  0.00  0.00    +0.000 C 
ATOM     35  C   UNL     1      31.573 -17.982 -27.349  0.00  0.00    +0.000 C 
ENDBRANCH  29  30
ENDBRANCH   1  29
TORSDOF 9
ENDMDL
MODEL 4
REMARK VINA RESULT:     -11.2      1.399      5.232
REMARK  Name = 6420159
REMARK  9 active torsions:
REMARK  status: ('A' for Active; 'I' for Inactive)
REMARK    1  A    between atoms: C_1  and  N_3
REMARK    2  A    between atoms: C_1  and  C_15
REMARK    3  A    between atoms: C_1  and  C_29
REMARK    4  A    between atoms: N_14  and  C_17
REMARK    5  A    between atoms: C_17  and  C_18
REMARK    6  A    between atoms: C_18  and  N_19
REMARK    7  A    between atoms: N_19  and  C_21
REMARK    8  A    between atoms: C_26  and  O_27
REMARK    9  A    between atoms: C_29  and  C_30
REMARK                            x       y       z     vdW  Elec       q    Type
REMARK                         _______ _______ _______ _____ _____    ______ ____
ROOT
ATOM      1  C   UNL     1      34.972 -23.076 -15.715  0.00  0.00    +0.151 C 
ENDROOT
BRANCH   1   3
ATOM      2  O   UNL     1      31.438 -23.077 -16.689  0.00  0.00    -0.414 OA
ATOM      3  N   UNL     1      33.702 -22.856 -16.373  0.00  0.00    -0.271 N 
ATOM      4  N   UNL     1      32.318 -24.172 -14.910  0.00  0.00    -0.356 NA
ATOM      5  C   UNL     1      32.509 -23.403 -15.936  0.00  0.00    +0.345 C 
ATOM      6  C   UNL     1      30.421 -23.730 -16.053  0.00  0.00    +0.175 C 
ATOM      7  C   UNL     1      30.964 -24.399 -14.965  0.00  0.00    +0.152 C 
ATOM      8  C   UNL     1      29.077 -23.746 -16.401  0.00  0.00    +0.040 C 
ATOM      9  C   UNL     1      30.116 -25.153 -14.142  0.00  0.00    +0.088 C 
ATOM     10  C   UNL     1      28.244 -24.502 -15.570  0.00  0.00    -0.001 C 
ATOM     11  C   UNL     1      28.751 -25.193 -14.462  0.00  0.00    -0.018 C 
ATOM     12  H   UNL     1      33.687 -22.287 -17.176  0.00  0.00    +0.153 HD
ENDBRANCH   1   3
BRANCH   1  15
ATOM     13  O   UNL     1      37.231 -22.328 -16.170  0.00  0.00    -0.273 OA
ATOM     14  N   UNL     1      35.615 -22.054 -17.810  0.00  0.00    -0.301 N 
ATOM     15  C   UNL     1      36.074 -22.457 -16.565  0.00  0.00    +0.240 C 
ATOM     16  H   UNL     1      34.669 -22.199 -18.040  0.00  0.00    +0.150 HD
BRANCH  14  17
ATOM     17  C   UNL     1      36.482 -21.430 -18.781  0.00  0.00    +0.111 C 
BRANCH  17  18
ATOM     18  C   UNL     1      35.728 -20.988 -20.025  0.00  0.00    +0.109 C 
BRANCH  18  19
ATOM     19  N   UNL     1      35.926 -19.577 -20.260  0.00  0.00    -0.331 N 
ATOM     20  H   UNL     1      36.497 -19.077 -19.632  0.00  0.00    +0.147 HD
BRANCH  19  21
ATOM     21  C   UNL     1      35.360 -18.886 -21.320  0.00  0.00    +0.045 C 
ATOM     22  C   UNL     1      34.868 -19.570 -22.447  0.00  0.00    +0.017 C 
ATOM     23  C   UNL     1      35.263 -17.483 -21.298  0.00  0.00    +0.017 C 
ATOM     24  C   UNL     1      34.300 -18.874 -23.515  0.00  0.00    +0.038 C 
ATOM     25  C   UNL     1      34.695 -16.787 -22.365  0.00  0.00    +0.038 C 
ATOM     26  C   UNL     1      34.213 -17.483 -23.473  0.00  0.00    +0.139 C 
BRANCH  26  27
ATOM     27  O   UNL     1      33.657 -16.804 -24.513  0.00  0.00    -0.471 OA
ATOM     28  C   UNL     1      34.362 -16.824 -25.754  0.00  0.00    +0.252 C 
ENDBRANCH  26  27
ENDBRANCH  19  21
ENDBRANCH  18  19
ENDBRANCH  17  18
ENDBRANCH  14  17
ENDBRANCH   1  15
BRANCH   1  29
ATOM     29  C   UNL     1      35.227 -24.573 -15.534  0.00  0.00    +0.029 C 
BRANCH  29  30
ATOM     30  C   UNL     1      35.848 -24.902 -14.179  0.00  0.00    +0.002 C 
ATOM     31  C   UNL     1      35.679 -23.727 -13.206  0.00  0.00    +0.000 C 
ATOM     32  C   UNL     1      37.330 -25.271 -14.336  0.00  0.00    +0.000 C 
ATOM     33  C   UNL     1      36.340 -24.012 -11.859  0.00  0.00    +0.000 C 
ATOM     34  C   UNL     1      37.987 -25.552 -12.988  0.00  0.00    +0.000 C 
ATOM     35  C   UNL     1      37.809 -24.386 -12.020  0.00  0.00    +0.000 C 
ENDBRANCH  29  30
ENDBRANCH   1  29
TORSDOF 9
ENDMDL
MODEL 5
REMARK VINA RESULT:     -11.1      3.991     12.720
REMARK  Name = 6420159
REMARK  9 active torsions:
REMARK  status: ('A' for Active; 'I' for Inactive)
REMARK    1  A    between atoms: C_1  and  N_3
REMARK    2  A    between atoms: C_1  and  C_15
REMARK    3  A    between atoms: C_1  and  C_29
REMARK    4  A    between atoms: N_14  and  C_17
REMARK    5  A    between atoms: C_17  and  C_18
REMARK    6  A    between atoms: C_18  and  N_19
REMARK    7  A    between atoms: N_19  and  C_21
REMARK    8  A    between atoms: C_26  and  O_27
REMARK    9  A    between atoms: C_29  and  C_30
REMARK                            x       y       z     vdW  Elec       q    Type
REMARK                         _______ _______ _______ _____ _____    ______ ____
ROOT
ATOM      1  C   UNL     1      33.639 -14.264 -23.748  0.00  0.00    +0.151 C 
ENDROOT
BRANCH   1   3
ATOM      2  O   UNL     1      34.449 -10.712 -24.158  0.00  0.00    -0.414 OA
ATOM      3  N   UNL     1      34.276 -12.999 -24.049  0.00  0.00    -0.271 N 
ATOM      4  N   UNL     1      32.524 -11.536 -23.290  0.00  0.00    -0.356 NA
ATOM      5  C   UNL     1      33.690 -11.770 -23.805  0.00  0.00    +0.345 C 
ATOM      6  C   UNL     1      33.654  -9.654 -23.818  0.00  0.00    +0.175 C 
ATOM      7  C   UNL     1      32.477 -10.163 -23.288  0.00  0.00    +0.152 C 
ATOM      8  C   UNL     1      33.937  -8.302 -23.963  0.00  0.00    +0.040 C 
ATOM      9  C   UNL     1      31.486  -9.269 -22.859  0.00  0.00    +0.088 C 
ATOM     10  C   UNL     1      32.938  -7.424 -23.530  0.00  0.00    -0.001 C 
ATOM     11  C   UNL     1      31.736  -7.896 -22.989  0.00  0.00    -0.018 C 
ATOM     12  H   UNL     1      35.175 -13.015 -24.449  0.00  0.00    +0.153 HD
ENDBRANCH   1   3
BRANCH   1  15
ATOM     13  O   UNL     1      34.094 -13.974 -21.387  0.00  0.00    -0.273 OA
ATOM     14  N   UNL     1      34.495 -16.044 -22.352  0.00  0.00    -0.301 N 
ATOM     15  C   UNL     1      34.089 -14.718 -22.365  0.00  0.00    +0.240 C 
ATOM     16  H   UNL     1      34.455 -16.564 -23.186  0.00  0.00    +0.150 HD
BRANCH  14  17
ATOM     17  C   UNL     1      34.974 -16.686 -21.151  0.00  0.00    +0.111 C 
BRANCH  17  18
ATOM     18  C   UNL     1      35.447 -18.108 -21.409  0.00  0.00    +0.109 C 
BRANCH  18  19
ATOM     19  N   UNL     1      34.323 -19.013 -21.455  0.00  0.00    -0.331 N 
ATOM     20  H   UNL     1      33.616 -18.842 -22.119  0.00  0.00    +0.147 HD
BRANCH  19  21
ATOM     21  C   UNL     1      34.182 -20.108 -20.618  0.00  0.00    +0.045 C 
ATOM     22  C   UNL     1      35.309 -20.810 -20.150  0.00  0.00    +0.017 C 
ATOM     23  C   UNL     1      32.909 -20.549 -20.214  0.00  0.00    +0.017 C 
ATOM     24  C   UNL     1      35.167 -21.913 -19.309  0.00  0.00    +0.038 C 
ATOM     25  C   UNL     1      32.767 -21.653 -19.372  0.00  0.00    +0.038 C 
ATOM     26  C   UNL     1      33.896 -22.334 -18.920  0.00  0.00    +0.139 C 
BRANCH  26  27
ATOM     27  O   UNL     1      33.757 -23.410 -18.098  0.00  0.00    -0.471 OA
ATOM     28  C   UNL     1      32.989 -23.225 -16.910  0.00  0.00    +0.252 C 
ENDBRANCH  26  27
ENDBRANCH  19  21
ENDBRANCH  18  19
ENDBRANCH  17  18
ENDBRANCH  14  17
ENDBRANCH   1  15
BRANCH   1  29
ATOM     29  C   UNL     1      34.019 -15.314 -24.794  0.00  0.00    +0.029 C 
BRANCH  29  30
ATOM     30  C   UNL     1      32.797 -15.949 -25.454  0.00  0.00    +0.002 C 
ATOM     31  C   UNL     1      32.897 -17.480 -25.420  0.00  0.00    +0.000 C 
ATOM     32  C   UNL     1      32.636 -15.445 -26.895  0.00  0.00    +0.000 C 
ATOM     33  C   UNL     1      31.712 -18.138 -26.122  0.00  0.00    +0.000 C 
ATOM     34  C   UNL     1      31.452 -16.107 -27.594  0.00  0.00    +0.000 C 
ATOM     35  C   UNL     1      31.550 -17.629 -27.550  0.00  0.00    +0.000 C 
ENDBRANCH  29  30
ENDBRANCH   1  29
TORSDOF 9
ENDMDL
MODEL 6
REMARK VINA RESULT:     -10.8      7.272     13.442
REMARK  Name = 6420159
REMARK  9 active torsions:
REMARK  status: ('A' for Active; 'I' for Inactive)
REMARK    1  A    between atoms: C_1  and  N_3
REMARK    2  A    between atoms: C_1  and  C_15
REMARK    3  A    between atoms: C_1  and  C_29
REMARK    4  A    between atoms: N_14  and  C_17
REMARK    5  A    between atoms: C_17  and  C_18
REMARK    6  A    between atoms: C_18  and  N_19
REMARK    7  A    between atoms: N_19  and  C_21
REMARK    8  A    between atoms: C_26  and  O_27
REMARK    9  A    between atoms: C_29  and  C_30
REMARK                            x       y       z     vdW  Elec       q    Type
REMARK                         _______ _______ _______ _____ _____    ______ ____
ROOT
ATOM      1  C   UNL     1      32.864 -12.297 -25.694  0.00  0.00    +0.151 C 
ENDROOT
BRANCH   1   3
ATOM      2  O   UNL     1      32.259 -12.757 -22.108  0.00  0.00    -0.414 OA
ATOM      3  N   UNL     1      32.712 -12.832 -24.358  0.00  0.00    -0.271 N 
ATOM      4  N   UNL     1      32.084 -10.799 -23.236  0.00  0.00    -0.356 NA
ATOM      5  C   UNL     1      32.345 -12.068 -23.264  0.00  0.00    +0.345 C 
ATOM      6  C   UNL     1      31.890 -11.790 -21.216  0.00  0.00    +0.175 C 
ATOM      7  C   UNL     1      31.784 -10.593 -21.910  0.00  0.00    +0.152 C 
ATOM      8  C   UNL     1      31.655 -11.939 -19.855  0.00  0.00    +0.040 C 
ATOM      9  C   UNL     1      31.415  -9.435 -21.212  0.00  0.00    +0.088 C 
ATOM     10  C   UNL     1      31.288 -10.774 -19.173  0.00  0.00    -0.001 C 
ATOM     11  C   UNL     1      31.169  -9.546 -19.835  0.00  0.00    -0.018 C 
ATOM     12  H   UNL     1      32.879 -13.792 -24.220  0.00  0.00    +0.153 HD
ENDBRANCH   1   3
BRANCH   1  15
ATOM     13  O   UNL     1      31.835 -13.080 -27.742  0.00  0.00    -0.273 OA
ATOM     14  N   UNL     1      32.735 -14.639 -26.281  0.00  0.00    -0.301 N 
ATOM     15  C   UNL     1      32.419 -13.354 -26.695  0.00  0.00    +0.240 C 
ATOM     16  H   UNL     1      33.205 -14.762 -25.425  0.00  0.00    +0.150 HD
BRANCH  14  17
ATOM     17  C   UNL     1      32.399 -15.803 -27.065  0.00  0.00    +0.111 C 
BRANCH  17  18
ATOM     18  C   UNL     1      32.531 -17.092 -26.270  0.00  0.00    +0.109 C 
BRANCH  18  19
ATOM     19  N   UNL     1      33.903 -17.298 -25.869  0.00  0.00    -0.331 N 
ATOM     20  H   UNL     1      34.605 -17.216 -26.555  0.00  0.00    +0.147 HD
BRANCH  19  21
ATOM     21  C   UNL     1      34.288 -17.605 -24.573  0.00  0.00    +0.045 C 
ATOM     22  C   UNL     1      34.335 -18.940 -24.131  0.00  0.00    +0.017 C 
ATOM     23  C   UNL     1      34.641 -16.590 -23.665  0.00  0.00    +0.017 C 
ATOM     24  C   UNL     1      34.722 -19.249 -22.827  0.00  0.00    +0.038 C 
ATOM     25  C   UNL     1      35.027 -16.899 -22.361  0.00  0.00    +0.038 C 
ATOM     26  C   UNL     1      35.067 -18.228 -21.942  0.00  0.00    +0.139 C 
BRANCH  26  27
ATOM     27  O   UNL     1      35.446 -18.529 -20.670  0.00  0.00    -0.471 OA
ATOM     28  C   UNL     1      36.289 -19.667 -20.494  0.00  0.00    +0.252 C 
ENDBRANCH  26  27
ENDBRANCH  19  21
ENDBRANCH  18  19
ENDBRANCH  17  18
ENDBRANCH  14  17
ENDBRANCH   1  15
BRANCH   1  29
ATOM     29  C   UNL     1      34.322 -11.912 -25.951  0.00  0.00    +0.029 C 
BRANCH  29  30
ATOM     30  C   UNL     1      34.552 -10.404 -25.869  0.00  0.00    +0.002 C 
ATOM     31  C   UNL     1      35.115 -10.015 -24.495  0.00  0.00    +0.000 C 
ATOM     32  C   UNL     1      33.253  -9.641 -26.163  0.00  0.00    +0.000 C 
ATOM     33  C   UNL     1      35.304  -8.505 -24.371  0.00  0.00    +0.000 C 
ATOM     34  C   UNL     1      33.445  -8.132 -26.034  0.00  0.00    +0.000 C 
ATOM     35  C   UNL     1      34.013  -7.750 -24.671  0.00  0.00    +0.000 C 
ENDBRANCH  29  30
ENDBRANCH   1  29
TORSDOF 9
ENDMDL
MODEL 7
REMARK VINA RESULT:     -10.6      1.973      8.721
REMARK  Name = 6420159
REMARK  9 active torsions:
REMARK  status: ('A' for Active; 'I' for Inactive)
REMARK    1  A    between atoms: C_1  and  N_3
REMARK    2  A    between atoms: C_1  and  C_15
REMARK    3  A    between atoms: C_1  and  C_29
REMARK    4  A    between atoms: N_14  and  C_17
REMARK    5  A    between atoms: C_17  and  C_18
REMARK    6  A    between atoms: C_18  and  N_19
REMARK    7  A    between atoms: N_19  and  C_21
REMARK    8  A    between atoms: C_26  and  O_27
REMARK    9  A    between atoms: C_29  and  C_30
REMARK                            x       y       z     vdW  Elec       q    Type
REMARK                         _______ _______ _______ _____ _____    ______ ____
ROOT
ATOM      1  C   UNL     1      32.827 -21.717 -18.437  0.00  0.00    +0.151 C 
ENDROOT
BRANCH   1   3
ATOM      2  O   UNL     1      32.655 -19.925 -21.631  0.00  0.00    -0.414 OA
ATOM      3  N   UNL     1      32.408 -21.135 -19.695  0.00  0.00    -0.271 N 
ATOM      4  N   UNL     1      34.478 -20.063 -20.290  0.00  0.00    -0.356 NA
ATOM      5  C   UNL     1      33.238 -20.377 -20.501  0.00  0.00    +0.345 C 
ATOM      6  C   UNL     1      33.667 -19.226 -22.225  0.00  0.00    +0.175 C 
ATOM      7  C   UNL     1      34.781 -19.313 -21.401  0.00  0.00    +0.152 C 
ATOM      8  C   UNL     1      33.628 -18.540 -23.431  0.00  0.00    +0.040 C 
ATOM      9  C   UNL     1      35.965 -18.672 -21.793  0.00  0.00    +0.088 C 
ATOM     10  C   UNL     1      34.816 -17.906 -23.808  0.00  0.00    -0.001 C 
ATOM     11  C   UNL     1      35.963 -17.969 -23.006  0.00  0.00    -0.018 C 
ATOM     12  H   UNL     1      31.482 -21.287 -19.992  0.00  0.00    +0.153 HD
ENDBRANCH   1   3
BRANCH   1  15
ATOM     13  O   UNL     1      34.427 -23.306 -19.322  0.00  0.00    -0.273 OA
ATOM     14  N   UNL     1      35.183 -21.640 -17.898  0.00  0.00    -0.301 N 
ATOM     15  C   UNL     1      34.214 -22.320 -18.620  0.00  0.00    +0.240 C 
ATOM     16  H   UNL     1      34.918 -20.858 -17.362  0.00  0.00    +0.150 HD
BRANCH  14  17
ATOM     17  C   UNL     1      36.570 -22.040 -17.910  0.00  0.00    +0.111 C 
BRANCH  17  18
ATOM     18  C   UNL     1      37.204 -21.957 -16.531  0.00  0.00    +0.109 C 
BRANCH  18  19
ATOM     19  N   UNL     1      37.571 -23.274 -16.064  0.00  0.00    -0.331 N 
ATOM     20  H   UNL     1      38.148 -23.827 -16.640  0.00  0.00    +0.147 HD
BRANCH  19  21
ATOM     21  C   UNL     1      37.156 -23.804 -14.853  0.00  0.00    +0.045 C 
ATOM     22  C   UNL     1      36.004 -23.316 -14.207  0.00  0.00    +0.017 C 
ATOM     23  C   UNL     1      37.876 -24.843 -14.235  0.00  0.00    +0.017 C 
ATOM     24  C   UNL     1      35.588 -23.849 -12.987  0.00  0.00    +0.038 C 
ATOM     25  C   UNL     1      37.459 -25.375 -13.015  0.00  0.00    +0.038 C 
ATOM     26  C   UNL     1      36.316 -24.878 -12.391  0.00  0.00    +0.139 C 
BRANCH  26  27
ATOM     27  O   UNL     1      35.909 -25.399 -11.201  0.00  0.00    -0.471 OA
ATOM     28  C   UNL     1      35.142 -24.551 -10.348  0.00  0.00    +0.252 C 
ENDBRANCH  26  27
ENDBRANCH  19  21
ENDBRANCH  18  19
ENDBRANCH  17  18
ENDBRANCH  14  17
ENDBRANCH   1  15
BRANCH   1  29
ATOM     29  C   UNL     1      31.839 -22.798 -17.995  0.00  0.00    +0.029 C 
BRANCH  29  30
ATOM     30  C   UNL     1      31.500 -22.708 -16.509  0.00  0.00    +0.002 C 
ATOM     31  C   UNL     1      32.451 -23.581 -15.682  0.00  0.00    +0.000 C 
ATOM     32  C   UNL     1      30.038 -23.106 -16.261  0.00  0.00    +0.000 C 
ATOM     33  C   UNL     1      32.099 -23.549 -14.196  0.00  0.00    +0.000 C 
ATOM     34  C   UNL     1      29.690 -23.075 -14.775  0.00  0.00    +0.000 C 
ATOM     35  C   UNL     1      30.644 -23.937 -13.955  0.00  0.00    +0.000 C 
ENDBRANCH  29  30
ENDBRANCH   1  29
TORSDOF 9
ENDMDL
MODEL 8
REMARK VINA RESULT:     -10.5      7.055     13.982
REMARK  Name = 6420159
REMARK  9 active torsions:
REMARK  status: ('A' for Active; 'I' for Inactive)
REMARK    1  A    between atoms: C_1  and  N_3
REMARK    2  A    between atoms: C_1  and  C_15
REMARK    3  A    between atoms: C_1  and  C_29
REMARK    4  A    between atoms: N_14  and  C_17
REMARK    5  A    between atoms: C_17  and  C_18
REMARK    6  A    between atoms: C_18  and  N_19
REMARK    7  A    between atoms: N_19  and  C_21
REMARK    8  A    between atoms: C_26  and  O_27
REMARK    9  A    between atoms: C_29  and  C_30
REMARK                            x       y       z     vdW  Elec       q    Type
REMARK                         _______ _______ _______ _____ _____    ______ ____
ROOT
ATOM      1  C   UNL     1      32.904 -11.679 -25.710  0.00  0.00    +0.151 C 
ENDROOT
BRANCH   1   3
ATOM      2  O   UNL     1      32.334 -12.392 -22.160  0.00  0.00    -0.414 OA
ATOM      3  N   UNL     1      32.789 -12.303 -24.409  0.00  0.00    -0.271 N 
ATOM      4  N   UNL     1      32.028 -10.386 -23.170  0.00  0.00    -0.356 NA
ATOM      5  C   UNL     1      32.373 -11.631 -23.273  0.00  0.00    +0.345 C 
ATOM      6  C   UNL     1      31.903 -11.507 -21.213  0.00  0.00    +0.175 C 
ATOM      7  C   UNL     1      31.717 -10.280 -21.835  0.00  0.00    +0.152 C 
ATOM      8  C   UNL     1      31.679 -11.752 -19.865  0.00  0.00    +0.040 C 
ATOM      9  C   UNL     1      31.272  -9.193 -21.070  0.00  0.00    +0.088 C 
ATOM     10  C   UNL     1      31.235 -10.657 -19.115  0.00  0.00    -0.001 C 
ATOM     11  C   UNL     1      31.035  -9.402 -19.704  0.00  0.00    -0.018 C 
ATOM     12  H   UNL     1      33.019 -13.256 -24.328  0.00  0.00    +0.153 HD
ENDBRANCH   1   3
BRANCH   1  15
ATOM     13  O   UNL     1      32.646 -12.500 -27.975  0.00  0.00    -0.273 OA
ATOM     14  N   UNL     1      32.789 -14.035 -26.243  0.00  0.00    -0.301 N 
ATOM     15  C   UNL     1      32.769 -12.756 -26.779  0.00  0.00    +0.240 C 
ATOM     16  H   UNL     1      32.893 -14.144 -25.270  0.00  0.00    +0.150 HD
BRANCH  14  17
ATOM     17  C   UNL     1      32.665 -15.213 -27.067  0.00  0.00    +0.111 C 
BRANCH  17  18
ATOM     18  C   UNL     1      32.884 -16.494 -26.278  0.00  0.00    +0.109 C 
BRANCH  18  19
ATOM     19  N   UNL     1      34.088 -16.400 -25.488  0.00  0.00    -0.331 N 
ATOM     20  H   UNL     1      34.828 -15.849 -25.833  0.00  0.00    +0.147 HD
BRANCH  19  21
ATOM     21  C   UNL     1      34.264 -17.041 -24.272  0.00  0.00    +0.045 C 
ATOM     22  C   UNL     1      33.886 -18.387 -24.104  0.00  0.00    +0.017 C 
ATOM     23  C   UNL     1      34.822 -16.364 -23.172  0.00  0.00    +0.017 C 
ATOM     24  C   UNL     1      34.060 -19.032 -22.879  0.00  0.00    +0.038 C 
ATOM     25  C   UNL     1      34.997 -17.009 -21.948  0.00  0.00    +0.038 C 
ATOM     26  C   UNL     1      34.616 -18.343 -21.801  0.00  0.00    +0.139 C 
BRANCH  26  27
ATOM     27  O   UNL     1      34.788 -18.972 -20.607  0.00  0.00    -0.471 OA
ATOM     28  C   UNL     1      35.643 -20.114 -20.591  0.00  0.00    +0.252 C 
ENDBRANCH  26  27
ENDBRANCH  19  21
ENDBRANCH  18  19
ENDBRANCH  17  18
ENDBRANCH  14  17
ENDBRANCH   1  15
BRANCH   1  29
ATOM     29  C   UNL     1      34.254 -10.973 -25.845  0.00  0.00    +0.029 C 
BRANCH  29  30
ATOM     30  C   UNL     1      34.127  -9.452 -25.779  0.00  0.00    +0.002 C 
ATOM     31  C   UNL     1      32.711  -9.009 -26.169  0.00  0.00    +0.000 C 
ATOM     32  C   UNL     1      35.175  -8.780 -26.676  0.00  0.00    +0.000 C 
ATOM     33  C   UNL     1      32.574  -7.488 -26.161  0.00  0.00    +0.000 C 
ATOM     34  C   UNL     1      35.034  -7.261 -26.668  0.00  0.00    +0.000 C 
ATOM     35  C   UNL     1      33.622  -6.824 -27.048  0.00  0.00    +0.000 C 
ENDBRANCH  29  30
ENDBRANCH   1  29
TORSDOF 9
ENDMDL
MODEL 9
REMARK VINA RESULT:     -10.4      8.954     13.062
REMARK  Name = 6420159
REMARK  9 active torsions:
REMARK  status: ('A' for Active; 'I' for Inactive)
REMARK    1  A    between atoms: C_1  and  N_3
REMARK    2  A    between atoms: C_1  and  C_15
REMARK    3  A    between atoms: C_1  and  C_29
REMARK    4  A    between atoms: N_14  and  C_17
REMARK    5  A    between atoms: C_17  and  C_18
REMARK    6  A    between atoms: C_18  and  N_19
REMARK    7  A    between atoms: N_19  and  C_21
REMARK    8  A    between atoms: C_26  and  O_27
REMARK    9  A    between atoms: C_29  and  C_30
REMARK                            x       y       z     vdW  Elec       q    Type
REMARK                         _______ _______ _______ _____ _____    ______ ____
ROOT
ATOM      1  C   UNL     1      33.571 -13.080 -23.816  0.00  0.00    +0.151 C 
ENDROOT
BRANCH   1   3
ATOM      2  O   UNL     1      32.802 -16.306 -25.379  0.00  0.00    -0.414 OA
ATOM      3  N   UNL     1      33.016 -14.150 -24.618  0.00  0.00    -0.271 N 
ATOM      4  N   UNL     1      34.384 -15.950 -23.795  0.00  0.00    -0.356 NA
ATOM      5  C   UNL     1      33.450 -15.462 -24.549  0.00  0.00    +0.345 C 
ATOM      6  C   UNL     1      33.410 -17.501 -25.116  0.00  0.00    +0.175 C 
ATOM      7  C   UNL     1      34.377 -17.279 -24.146  0.00  0.00    +0.152 C 
ATOM      8  C   UNL     1      33.137 -18.734 -25.693  0.00  0.00    +0.040 C 
ATOM      9  C   UNL     1      35.149 -18.360 -23.698  0.00  0.00    +0.088 C 
ATOM     10  C   UNL     1      33.916 -19.803 -25.236  0.00  0.00    -0.001 C 
ATOM     11  C   UNL     1      34.902 -19.622 -24.258  0.00  0.00    -0.018 C 
ATOM     12  H   UNL     1      32.290 -13.932 -25.246  0.00  0.00    +0.153 HD
ENDBRANCH   1   3
BRANCH   1  15
ATOM     13  O   UNL     1      33.831 -14.069 -21.620  0.00  0.00    -0.273 OA
ATOM     14  N   UNL     1      32.065 -12.612 -21.983  0.00  0.00    -0.301 N 
ATOM     15  C   UNL     1      33.197 -13.320 -22.360  0.00  0.00    +0.240 C 
ATOM     16  H   UNL     1      31.622 -12.034 -22.645  0.00  0.00    +0.150 HD
BRANCH  14  17
ATOM     17  C   UNL     1      31.518 -12.694 -20.650  0.00  0.00    +0.111 C 
BRANCH  17  18
ATOM     18  C   UNL     1      31.516 -11.347 -19.945  0.00  0.00    +0.109 C 
BRANCH  18  19
ATOM     19  N   UNL     1      30.682 -10.407 -20.654  0.00  0.00    -0.331 N 
ATOM     20  H   UNL     1      29.715 -10.589 -20.705  0.00  0.00    +0.147 HD
BRANCH  19  21
ATOM     21  C   UNL     1      31.163  -9.262 -21.271  0.00  0.00    +0.045 C 
ATOM     22  C   UNL     1      32.118  -8.447 -20.635  0.00  0.00    +0.017 C 
ATOM     23  C   UNL     1      30.708  -8.883 -22.547  0.00  0.00    +0.017 C 
ATOM     24  C   UNL     1      32.602  -7.295 -21.254  0.00  0.00    +0.038 C 
ATOM     25  C   UNL     1      31.191  -7.731 -23.166  0.00  0.00    +0.038 C 
ATOM     26  C   UNL     1      32.138  -6.936 -22.520  0.00  0.00    +0.139 C 
BRANCH  26  27
ATOM     27  O   UNL     1      32.610  -5.813 -23.125  0.00  0.00    -0.471 OA
ATOM     28  C   UNL     1      32.410  -5.700 -24.533  0.00  0.00    +0.252 C 
ENDBRANCH  26  27
ENDBRANCH  19  21
ENDBRANCH  18  19
ENDBRANCH  17  18
ENDBRANCH  14  17
ENDBRANCH   1  15
BRANCH   1  29
ATOM     29  C   UNL     1      33.029 -11.728 -24.282  0.00  0.00    +0.029 C 
BRANCH  29  30
ATOM     30  C   UNL     1      34.137 -10.771 -24.714  0.00  0.00    +0.002 C 
ATOM     31  C   UNL     1      34.219  -9.571 -23.762  0.00  0.00    +0.000 C 
ATOM     32  C   UNL     1      33.919 -10.306 -26.161  0.00  0.00    +0.000 C 
ATOM     33  C   UNL     1      35.286  -8.572 -24.204  0.00  0.00    +0.000 C 
ATOM     34  C   UNL     1      34.985  -9.306 -26.598  0.00  0.00    +0.000 C 
ATOM     35  C   UNL     1      35.070  -8.119 -25.644  0.00  0.00    +0.000 C 
ENDBRANCH  29  30
ENDBRANCH   1  29
TORSDOF 9
ENDMDL
