MODEL 1
REMARK VINA RESULT:     -13.0      0.000      0.000
REMARK  Name = 15602701
REMARK  5 active torsions:
REMARK  status: ('A' for Active; 'I' for Inactive)
REMARK    1  A    between atoms: N_5  and  C_12
REMARK    2  A    between atoms: C_6  and  C_22
REMARK    3  A    between atoms: C_13  and  C_21
REMARK    4  A    between atoms: C_22  and  C_23
REMARK    5  A    between atoms: C_23  and  N_24
REMARK                            x       y       z     vdW  Elec       q    Type
REMARK                         _______ _______ _______ _____ _____    ______ ____
ROOT
ATOM      1  S   UNL     1      33.855 -23.224 -17.039  0.00  0.00    -0.056 S 
ATOM      2  O   UNL     1      32.230 -20.270 -20.231  0.00  0.00    -0.252 OA
ATOM      3  N   UNL     1      31.719 -22.145 -18.018  0.00  0.00    -0.223 NA
ATOM      4  N   UNL     1      33.817 -21.497 -19.011  0.00  0.00    -0.248 N 
ATOM      5  N   UNL     1      34.509 -20.088 -20.710  0.00  0.00    -0.268 N 
ATOM      6  C   UNL     1      32.348 -23.641 -16.379  0.00  0.00    +0.031 C 
ATOM      7  C   UNL     1      31.330 -22.995 -17.000  0.00  0.00    +0.103 C 
ATOM      8  C   UNL     1      33.028 -22.186 -18.128  0.00  0.00    +0.166 C 
ATOM      9  C   UNL     1      33.395 -20.582 -20.011  0.00  0.00    +0.310 C 
ATOM     10  H   UNL     1      34.787 -21.655 -18.945  0.00  0.00    +0.158 HD
ATOM     11  H   UNL     1      35.386 -20.430 -20.421  0.00  0.00    +0.156 HD
ENDROOT
BRANCH   5  12
ATOM     12  C   UNL     1      34.527 -19.159 -21.777  0.00  0.00    +0.052 C 
ATOM     13  C   UNL     1      34.174 -18.661 -24.098  0.00  0.00    +0.073 C 
ATOM     14  C   UNL     1      34.158 -19.577 -23.046  0.00  0.00    +0.019 C 
ATOM     15  C   UNL     1      34.911 -17.851 -21.532  0.00  0.00    +0.015 C 
ATOM     16  C   UNL     1      34.559 -17.340 -23.867  0.00  0.00    +0.004 C 
ATOM     17  C   UNL     1      34.927 -16.935 -22.584  0.00  0.00    +0.001 C 
BRANCH  13  21
ATOM     18  F   UNL     1      32.428 -19.150 -25.658  0.00  0.00    -0.166 F 
ATOM     19  F   UNL     1      34.242 -18.269 -26.456  0.00  0.00    -0.166 F 
ATOM     20  F   UNL     1      34.245 -20.337 -25.783  0.00  0.00    -0.166 F 
ATOM     21  C   UNL     1      33.780 -19.093 -25.470  0.00  0.00    +0.419 C 
ENDBRANCH  13  21
ENDBRANCH   5  12
BRANCH   6  22
ATOM     22  C   UNL     1      32.281 -24.631 -15.239  0.00  0.00    +0.056 C 
BRANCH  22  23
ATOM     23  C   UNL     1      33.264 -24.303 -14.117  0.00  0.00    +0.093 C 
BRANCH  23  24
ATOM     24  N   UNL     1      34.524 -24.951 -14.330  0.00  0.00    -0.320 N 
ATOM     25  N   UNL     1      37.294 -26.249 -14.688  0.00  0.00    -0.220 N 
ATOM     26  N   UNL     1      38.602 -26.553 -14.588  0.00  0.00    -0.178 NA
ATOM     27  N   UNL     1      35.685 -23.554 -12.775  0.00  0.00    -0.232 NA
ATOM     28  N   UNL     1      38.068 -23.802 -12.323  0.00  0.00    -0.245 NA
ATOM     29  C   UNL     1      36.906 -25.214 -13.889  0.00  0.00    +0.185 C 
ATOM     30  C   UNL     1      35.702 -24.573 -13.664  0.00  0.00    +0.128 C 
ATOM     31  C   UNL     1      38.051 -24.817 -13.218  0.00  0.00    +0.103 C 
ATOM     32  C   UNL     1      39.060 -25.675 -13.688  0.00  0.00    +0.134 C 
ATOM     33  C   UNL     1      36.471 -27.016 -15.594  0.00  0.00    +0.135 C 
ATOM     34  C   UNL     1      36.853 -23.236 -12.168  0.00  0.00    +0.251 C 
ATOM     35  H   UNL     1      34.566 -25.695 -14.973  0.00  0.00    +0.148 HD
ENDBRANCH  23  24
ENDBRANCH  22  23
ENDBRANCH   6  22
TORSDOF 5
ENDMDL
MODEL 2
REMARK VINA RESULT:     -12.8      5.638     12.073
REMARK  Name = 15602701
REMARK  5 active torsions:
REMARK  status: ('A' for Active; 'I' for Inactive)
REMARK    1  A    between atoms: N_5  and  C_12
REMARK    2  A    between atoms: C_6  and  C_22
REMARK    3  A    between atoms: C_13  and  C_21
REMARK    4  A    between atoms: C_22  and  C_23
REMARK    5  A    between atoms: C_23  and  N_24
REMARK                            x       y       z     vdW  Elec       q    Type
REMARK                         _______ _______ _______ _____ _____    ______ ____
ROOT
ATOM      1  S   UNL     1      36.069 -20.456 -20.079  0.00  0.00    -0.056 S 
ATOM      2  O   UNL     1      34.890 -23.190 -16.516  0.00  0.00    -0.252 OA
ATOM      3  N   UNL     1      34.108 -21.679 -18.921  0.00  0.00    -0.223 NA
ATOM      4  N   UNL     1      36.285 -21.922 -17.917  0.00  0.00    -0.248 N 
ATOM      5  N   UNL     1      37.179 -23.013 -16.083  0.00  0.00    -0.268 N 
ATOM      6  C   UNL     1      34.512 -20.322 -20.742  0.00  0.00    +0.031 C 
ATOM      7  C   UNL     1      33.597 -21.017 -20.020  0.00  0.00    +0.103 C 
ATOM      8  C   UNL     1      35.401 -21.454 -18.853  0.00  0.00    +0.166 C 
ATOM      9  C   UNL     1      36.000 -22.757 -16.804  0.00  0.00    +0.310 C 
ATOM     10  H   UNL     1      37.225 -21.647 -18.028  0.00  0.00    +0.158 HD
ATOM     11  H   UNL     1      37.999 -22.596 -16.434  0.00  0.00    +0.156 HD
ENDROOT
BRANCH   5  12
ATOM     12  C   UNL     1      37.332 -23.796 -14.914  0.00  0.00    +0.052 C 
ATOM     13  C   UNL     1      36.639 -24.351 -12.685  0.00  0.00    +0.073 C 
ATOM     14  C   UNL     1      36.488 -23.579 -13.837  0.00  0.00    +0.019 C 
ATOM     15  C   UNL     1      38.322 -24.764 -14.872  0.00  0.00    +0.015 C 
ATOM     16  C   UNL     1      37.631 -25.330 -12.626  0.00  0.00    +0.004 C 
ATOM     17  C   UNL     1      38.473 -25.536 -13.720  0.00  0.00    +0.001 C 
BRANCH  13  21
ATOM     18  F   UNL     1      35.298 -25.290 -10.940  0.00  0.00    -0.166 F 
ATOM     19  F   UNL     1      36.322 -23.429 -10.501  0.00  0.00    -0.166 F 
ATOM     20  F   UNL     1      34.612 -23.435 -11.844  0.00  0.00    -0.166 F 
ATOM     21  C   UNL     1      35.739 -24.133 -11.516  0.00  0.00    +0.419 C 
ENDBRANCH  13  21
ENDBRANCH   5  12
BRANCH   6  22
ATOM     22  C   UNL     1      34.300 -19.495 -21.988  0.00  0.00    +0.056 C 
BRANCH  22  23
ATOM     23  C   UNL     1      35.424 -18.487 -22.223  0.00  0.00    +0.093 C 
BRANCH  23  24
ATOM     24  N   UNL     1      34.905 -17.234 -22.686  0.00  0.00    -0.320 N 
ATOM     25  N   UNL     1      33.759 -14.606 -23.813  0.00  0.00    -0.220 N 
ATOM     26  N   UNL     1      33.219 -13.672 -24.618  0.00  0.00    -0.178 NA
ATOM     27  N   UNL     1      34.413 -18.065 -24.873  0.00  0.00    -0.232 NA
ATOM     28  N   UNL     1      33.425 -16.668 -26.610  0.00  0.00    -0.245 NA
ATOM     29  C   UNL     1      33.915 -15.823 -24.409  0.00  0.00    +0.185 C 
ATOM     30  C   UNL     1      34.411 -17.043 -23.987  0.00  0.00    +0.128 C 
ATOM     31  C   UNL     1      33.437 -15.666 -25.699  0.00  0.00    +0.103 C 
ATOM     32  C   UNL     1      33.024 -14.325 -25.769  0.00  0.00    +0.134 C 
ATOM     33  C   UNL     1      34.106 -14.240 -22.460  0.00  0.00    +0.135 C 
ATOM     34  C   UNL     1      33.927 -17.818 -26.112  0.00  0.00    +0.251 C 
ATOM     35  H   UNL     1      34.892 -16.472 -22.062  0.00  0.00    +0.148 HD
ENDBRANCH  23  24
ENDBRANCH  22  23
ENDBRANCH   6  22
TORSDOF 5
ENDMDL
MODEL 3
REMARK VINA RESULT:     -12.3      5.791     12.469
REMARK  Name = 15602701
REMARK  5 active torsions:
REMARK  status: ('A' for Active; 'I' for Inactive)
REMARK    1  A    between atoms: N_5  and  C_12
REMARK    2  A    between atoms: C_6  and  C_22
REMARK    3  A    between atoms: C_13  and  C_21
REMARK    4  A    between atoms: C_22  and  C_23
REMARK    5  A    between atoms: C_23  and  N_24
REMARK                            x       y       z     vdW  Elec       q    Type
REMARK                         _______ _______ _______ _____ _____    ______ ____
ROOT
ATOM      1  S   UNL     1      36.598 -19.436 -20.889  0.00  0.00    -0.056 S 
ATOM      2  O   UNL     1      34.519 -22.389 -17.971  0.00  0.00    -0.252 OA
ATOM      3  N   UNL     1      34.429 -20.764 -20.426  0.00  0.00    -0.223 NA
ATOM      4  N   UNL     1      36.218 -21.014 -18.831  0.00  0.00    -0.248 N 
ATOM      5  N   UNL     1      36.568 -22.186 -16.867  0.00  0.00    -0.268 N 
ATOM      6  C   UNL     1      35.304 -19.299 -21.978  0.00  0.00    +0.031 C 
ATOM      7  C   UNL     1      34.243 -20.053 -21.596  0.00  0.00    +0.103 C 
ATOM      8  C   UNL     1      35.634 -20.515 -19.965  0.00  0.00    +0.166 C 
ATOM      9  C   UNL     1      35.648 -21.916 -17.893  0.00  0.00    +0.310 C 
ATOM     10  H   UNL     1      37.137 -20.713 -18.643  0.00  0.00    +0.158 HD
ATOM     11  H   UNL     1      37.439 -21.731 -16.937  0.00  0.00    +0.156 HD
ENDROOT
BRANCH   5  12
ATOM     12  C   UNL     1      36.398 -23.028 -15.743  0.00  0.00    +0.052 C 
ATOM     13  C   UNL     1      37.271 -24.685 -14.242  0.00  0.00    +0.073 C 
ATOM     14  C   UNL     1      37.439 -23.854 -15.350  0.00  0.00    +0.019 C 
ATOM     15  C   UNL     1      35.195 -23.009 -15.057  0.00  0.00    +0.015 C 
ATOM     16  C   UNL     1      36.065 -24.677 -13.541  0.00  0.00    +0.004 C 
ATOM     17  C   UNL     1      35.027 -23.840 -13.949  0.00  0.00    +0.001 C 
BRANCH  13  21
ATOM     18  F   UNL     1      38.633 -26.605 -14.672  0.00  0.00    -0.166 F 
ATOM     19  F   UNL     1      39.577 -24.935 -13.660  0.00  0.00    -0.166 F 
ATOM     20  F   UNL     1      38.136 -26.171 -12.600  0.00  0.00    -0.166 F 
ATOM     21  C   UNL     1      38.382 -25.579 -13.805  0.00  0.00    +0.419 C 
ENDBRANCH  13  21
ENDBRANCH   5  12
BRANCH   6  22
ATOM     22  C   UNL     1      35.440 -18.409 -23.191  0.00  0.00    +0.056 C 
BRANCH  22  23
ATOM     23  C   UNL     1      34.090 -18.039 -23.804  0.00  0.00    +0.093 C 
BRANCH  23  24
ATOM     24  N   UNL     1      33.937 -16.617 -23.894  0.00  0.00    -0.320 N 
ATOM     25  N   UNL     1      33.554 -13.578 -24.225  0.00  0.00    -0.220 N 
ATOM     26  N   UNL     1      33.263 -12.358 -24.714  0.00  0.00    -0.178 NA
ATOM     27  N   UNL     1      33.070 -16.691 -26.120  0.00  0.00    -0.232 NA
ATOM     28  N   UNL     1      32.427 -14.679 -27.340  0.00  0.00    -0.245 NA
ATOM     29  C   UNL     1      33.298 -14.596 -25.096  0.00  0.00    +0.185 C 
ATOM     30  C   UNL     1      33.435 -15.971 -25.036  0.00  0.00    +0.128 C 
ATOM     31  C   UNL     1      32.800 -13.988 -26.238  0.00  0.00    +0.103 C 
ATOM     32  C   UNL     1      32.803 -12.614 -25.943  0.00  0.00    +0.134 C 
ATOM     33  C   UNL     1      34.087 -13.681 -22.887  0.00  0.00    +0.135 C 
ATOM     34  C   UNL     1      32.595 -16.010 -27.191  0.00  0.00    +0.251 C 
ATOM     35  H   UNL     1      34.196 -16.067 -23.119  0.00  0.00    +0.148 HD
ENDBRANCH  23  24
ENDBRANCH  22  23
ENDBRANCH   6  22
TORSDOF 5
ENDMDL
MODEL 4
REMARK VINA RESULT:     -12.2      5.679     11.869
REMARK  Name = 15602701
REMARK  5 active torsions:
REMARK  status: ('A' for Active; 'I' for Inactive)
REMARK    1  A    between atoms: N_5  and  C_12
REMARK    2  A    between atoms: C_6  and  C_22
REMARK    3  A    between atoms: C_13  and  C_21
REMARK    4  A    between atoms: C_22  and  C_23
REMARK    5  A    between atoms: C_23  and  N_24
REMARK                            x       y       z     vdW  Elec       q    Type
REMARK                         _______ _______ _______ _____ _____    ______ ____
ROOT
ATOM      1  S   UNL     1      35.713 -20.309 -20.370  0.00  0.00    -0.056 S 
ATOM      2  O   UNL     1      34.864 -23.046 -16.716  0.00  0.00    -0.252 OA
ATOM      3  N   UNL     1      33.879 -21.604 -19.088  0.00  0.00    -0.223 NA
ATOM      4  N   UNL     1      36.118 -21.734 -18.207  0.00  0.00    -0.248 N 
ATOM      5  N   UNL     1      37.163 -22.758 -16.415  0.00  0.00    -0.268 N 
ATOM      6  C   UNL     1      34.117 -20.256 -20.944  0.00  0.00    +0.031 C 
ATOM      7  C   UNL     1      33.277 -20.982 -20.165  0.00  0.00    +0.103 C 
ATOM      8  C   UNL     1      35.162 -21.320 -19.096  0.00  0.00    +0.166 C 
ATOM      9  C   UNL     1      35.935 -22.566 -17.070  0.00  0.00    +0.310 C 
ATOM     10  H   UNL     1      37.036 -21.418 -18.374  0.00  0.00    +0.158 HD
ATOM     11  H   UNL     1      37.942 -22.308 -16.816  0.00  0.00    +0.156 HD
ENDROOT
BRANCH   5  12
ATOM     12  C   UNL     1      37.419 -23.516 -15.248  0.00  0.00    +0.052 C 
ATOM     13  C   UNL     1      36.955 -23.994 -12.942  0.00  0.00    +0.073 C 
ATOM     14  C   UNL     1      36.703 -23.245 -14.092  0.00  0.00    +0.019 C 
ATOM     15  C   UNL     1      38.376 -24.516 -15.285  0.00  0.00    +0.015 C 
ATOM     16  C   UNL     1      37.916 -25.004 -12.964  0.00  0.00    +0.004 C 
ATOM     17  C   UNL     1      38.628 -25.265 -14.135  0.00  0.00    +0.001 C 
BRANCH  13  21
ATOM     18  F   UNL     1      36.165 -24.770 -10.821  0.00  0.00    -0.166 F 
ATOM     19  F   UNL     1      36.696 -22.672 -10.966  0.00  0.00    -0.166 F 
ATOM     20  F   UNL     1      34.888 -23.401 -11.927  0.00  0.00    -0.166 F 
ATOM     21  C   UNL     1      36.194 -23.716 -11.690  0.00  0.00    +0.419 C 
ENDBRANCH  13  21
ENDBRANCH   5  12
BRANCH   6  22
ATOM     22  C   UNL     1      33.797 -19.456 -22.186  0.00  0.00    +0.056 C 
BRANCH  22  23
ATOM     23  C   UNL     1      34.908 -18.473 -22.555  0.00  0.00    +0.093 C 
BRANCH  23  24
ATOM     24  N   UNL     1      34.443 -17.501 -23.499  0.00  0.00    -0.320 N 
ATOM     25  N   UNL     1      33.453 -15.307 -25.421  0.00  0.00    -0.220 N 
ATOM     26  N   UNL     1      33.059 -14.133 -25.950  0.00  0.00    -0.178 NA
ATOM     27  N   UNL     1      34.501 -15.707 -21.921  0.00  0.00    -0.232 NA
ATOM     28  N   UNL     1      33.859 -13.429 -22.508  0.00  0.00    -0.245 NA
ATOM     29  C   UNL     1      33.799 -15.231 -24.104  0.00  0.00    +0.185 C 
ATOM     30  C   UNL     1      34.249 -16.148 -23.174  0.00  0.00    +0.128 C 
ATOM     31  C   UNL     1      33.617 -13.903 -23.752  0.00  0.00    +0.103 C 
ATOM     32  C   UNL     1      33.161 -13.278 -24.926  0.00  0.00    +0.134 C 
ATOM     33  C   UNL     1      33.466 -16.479 -26.266  0.00  0.00    +0.135 C 
ATOM     34  C   UNL     1      34.294 -14.393 -21.668  0.00  0.00    +0.251 C 
ATOM     35  H   UNL     1      34.251 -17.795 -24.419  0.00  0.00    +0.148 HD
ENDBRANCH  23  24
ENDBRANCH  22  23
ENDBRANCH   6  22
TORSDOF 5
ENDMDL
MODEL 5
REMARK VINA RESULT:     -12.2      5.343     11.772
REMARK  Name = 15602701
REMARK  5 active torsions:
REMARK  status: ('A' for Active; 'I' for Inactive)
REMARK    1  A    between atoms: N_5  and  C_12
REMARK    2  A    between atoms: C_6  and  C_22
REMARK    3  A    between atoms: C_13  and  C_21
REMARK    4  A    between atoms: C_22  and  C_23
REMARK    5  A    between atoms: C_23  and  N_24
REMARK                            x       y       z     vdW  Elec       q    Type
REMARK                         _______ _______ _______ _____ _____    ______ ____
ROOT
ATOM      1  S   UNL     1      33.661 -20.991 -20.078  0.00  0.00    -0.056 S 
ATOM      2  O   UNL     1      37.123 -21.906 -17.123  0.00  0.00    -0.252 OA
ATOM      3  N   UNL     1      36.152 -20.548 -19.550  0.00  0.00    -0.223 NA
ATOM      4  N   UNL     1      34.957 -21.982 -18.027  0.00  0.00    -0.248 N 
ATOM      5  N   UNL     1      35.440 -23.158 -16.093  0.00  0.00    -0.268 N 
ATOM      6  C   UNL     1      34.554 -19.988 -21.116  0.00  0.00    +0.031 C 
ATOM      7  C   UNL     1      35.840 -19.856 -20.704  0.00  0.00    +0.103 C 
ATOM      8  C   UNL     1      35.080 -21.182 -19.132  0.00  0.00    +0.166 C 
ATOM      9  C   UNL     1      35.966 -22.308 -17.081  0.00  0.00    +0.310 C 
ATOM     10  H   UNL     1      34.068 -22.378 -17.870  0.00  0.00    +0.158 HD
ATOM     11  H   UNL     1      34.490 -23.397 -16.191  0.00  0.00    +0.156 HD
ENDROOT
BRANCH   5  12
ATOM     12  C   UNL     1      36.108 -23.712 -14.976  0.00  0.00    +0.052 C 
ATOM     13  C   UNL     1      38.029 -24.804 -14.040  0.00  0.00    +0.073 C 
ATOM     14  C   UNL     1      37.370 -24.259 -15.143  0.00  0.00    +0.019 C 
ATOM     15  C   UNL     1      35.488 -23.693 -13.738  0.00  0.00    +0.015 C 
ATOM     16  C   UNL     1      37.418 -24.794 -12.787  0.00  0.00    +0.004 C 
ATOM     17  C   UNL     1      36.146 -24.239 -12.636  0.00  0.00    +0.001 C 
BRANCH  13  21
ATOM     18  F   UNL     1      39.849 -25.370 -15.487  0.00  0.00    -0.166 F 
ATOM     19  F   UNL     1      40.350 -24.766 -13.465  0.00  0.00    -0.166 F 
ATOM     20  F   UNL     1      39.438 -26.708 -13.823  0.00  0.00    -0.166 F 
ATOM     21  C   UNL     1      39.388 -25.397 -14.202  0.00  0.00    +0.419 C 
ENDBRANCH  13  21
ENDBRANCH   5  12
BRANCH   6  22
ATOM     22  C   UNL     1      33.882 -19.376 -22.323  0.00  0.00    +0.056 C 
BRANCH  22  23
ATOM     23  C   UNL     1      34.884 -18.870 -23.360  0.00  0.00    +0.093 C 
BRANCH  23  24
ATOM     24  N   UNL     1      34.368 -17.733 -24.063  0.00  0.00    -0.320 N 
ATOM     25  N   UNL     1      33.287 -15.204 -25.451  0.00  0.00    -0.220 N 
ATOM     26  N   UNL     1      32.901 -13.943 -25.721  0.00  0.00    -0.178 NA
ATOM     27  N   UNL     1      34.710 -16.243 -22.225  0.00  0.00    -0.232 NA
ATOM     28  N   UNL     1      34.134 -13.877 -22.336  0.00  0.00    -0.245 NA
ATOM     29  C   UNL     1      33.787 -15.370 -24.193  0.00  0.00    +0.185 C 
ATOM     30  C   UNL     1      34.290 -16.451 -23.493  0.00  0.00    +0.128 C 
ATOM     31  C   UNL     1      33.723 -14.118 -23.602  0.00  0.00    +0.103 C 
ATOM     32  C   UNL     1      33.169 -13.283 -24.589  0.00  0.00    +0.134 C 
ATOM     33  C   UNL     1      33.137 -16.211 -26.476  0.00  0.00    +0.135 C 
ATOM     34  C   UNL     1      34.607 -14.986 -21.731  0.00  0.00    +0.251 C 
ATOM     35  H   UNL     1      34.055 -17.855 -24.988  0.00  0.00    +0.148 HD
ENDBRANCH  23  24
ENDBRANCH  22  23
ENDBRANCH   6  22
TORSDOF 5
ENDMDL
MODEL 6
REMARK VINA RESULT:     -12.1      5.892     12.501
REMARK  Name = 15602701
REMARK  5 active torsions:
REMARK  status: ('A' for Active; 'I' for Inactive)
REMARK    1  A    between atoms: N_5  and  C_12
REMARK    2  A    between atoms: C_6  and  C_22
REMARK    3  A    between atoms: C_13  and  C_21
REMARK    4  A    between atoms: C_22  and  C_23
REMARK    5  A    between atoms: C_23  and  N_24
REMARK                            x       y       z     vdW  Elec       q    Type
REMARK                         _______ _______ _______ _____ _____    ______ ____
ROOT
ATOM      1  S   UNL     1      36.398 -19.025 -21.149  0.00  0.00    -0.056 S 
ATOM      2  O   UNL     1      34.676 -22.304 -18.348  0.00  0.00    -0.252 OA
ATOM      3  N   UNL     1      34.408 -20.628 -20.756  0.00  0.00    -0.223 NA
ATOM      4  N   UNL     1      36.197 -20.701 -19.144  0.00  0.00    -0.248 N 
ATOM      5  N   UNL     1      36.671 -21.879 -17.209  0.00  0.00    -0.268 N 
ATOM      6  C   UNL     1      35.108 -19.018 -22.252  0.00  0.00    +0.031 C 
ATOM      7  C   UNL     1      34.146 -19.911 -21.907  0.00  0.00    +0.103 C 
ATOM      8  C   UNL     1      35.567 -20.244 -20.271  0.00  0.00    +0.166 C 
ATOM      9  C   UNL     1      35.735 -21.696 -18.241  0.00  0.00    +0.310 C 
ATOM     10  H   UNL     1      37.069 -20.293 -18.934  0.00  0.00    +0.158 HD
ATOM     11  H   UNL     1      37.479 -21.317 -17.254  0.00  0.00    +0.156 HD
ENDROOT
BRANCH   5  12
ATOM     12  C   UNL     1      36.597 -22.771 -16.113  0.00  0.00    +0.052 C 
ATOM     13  C   UNL     1      37.622 -24.434 -14.720  0.00  0.00    +0.073 C 
ATOM     14  C   UNL     1      37.696 -23.555 -15.801  0.00  0.00    +0.019 C 
ATOM     15  C   UNL     1      35.428 -22.840 -15.374  0.00  0.00    +0.015 C 
ATOM     16  C   UNL     1      36.451 -24.515 -13.965  0.00  0.00    +0.004 C 
ATOM     17  C   UNL     1      35.354 -23.719 -14.293  0.00  0.00    +0.001 C 
BRANCH  13  21
ATOM     18  F   UNL     1      38.520 -26.623 -14.367  0.00  0.00    -0.166 F 
ATOM     19  F   UNL     1      39.851 -25.139 -15.222  0.00  0.00    -0.166 F 
ATOM     20  F   UNL     1      39.289 -25.012 -13.126  0.00  0.00    -0.166 F 
ATOM     21  C   UNL     1      38.795 -25.285 -14.369  0.00  0.00    +0.419 C 
ENDBRANCH  13  21
ENDBRANCH   5  12
BRANCH   6  22
ATOM     22  C   UNL     1      35.144 -18.081 -23.437  0.00  0.00    +0.056 C 
BRANCH  22  23
ATOM     23  C   UNL     1      34.488 -16.733 -23.140  0.00  0.00    +0.093 C 
BRANCH  23  24
ATOM     24  N   UNL     1      33.866 -16.193 -24.313  0.00  0.00    -0.320 N 
ATOM     25  N   UNL     1      32.548 -14.896 -26.776  0.00  0.00    -0.220 N 
ATOM     26  N   UNL     1      32.035 -14.012 -27.653  0.00  0.00    -0.178 NA
ATOM     27  N   UNL     1      34.016 -13.934 -23.547  0.00  0.00    -0.232 NA
ATOM     28  N   UNL     1      33.194 -12.051 -24.860  0.00  0.00    -0.245 NA
ATOM     29  C   UNL     1      33.041 -14.324 -25.640  0.00  0.00    +0.185 C 
ATOM     30  C   UNL     1      33.643 -14.819 -24.498  0.00  0.00    +0.128 C 
ATOM     31  C   UNL     1      32.833 -12.963 -25.793  0.00  0.00    +0.103 C 
ATOM     32  C   UNL     1      32.212 -12.832 -27.047  0.00  0.00    +0.134 C 
ATOM     33  C   UNL     1      32.523 -16.301 -27.113  0.00  0.00    +0.135 C 
ATOM     34  C   UNL     1      33.772 -12.623 -23.783  0.00  0.00    +0.251 C 
ATOM     35  H   UNL     1      33.584 -16.815 -25.023  0.00  0.00    +0.148 HD
ENDBRANCH  23  24
ENDBRANCH  22  23
ENDBRANCH   6  22
TORSDOF 5
ENDMDL
MODEL 7
REMARK VINA RESULT:     -11.9      2.829      4.065
REMARK  Name = 15602701
REMARK  5 active torsions:
REMARK  status: ('A' for Active; 'I' for Inactive)
REMARK    1  A    between atoms: N_5  and  C_12
REMARK    2  A    between atoms: C_6  and  C_22
REMARK    3  A    between atoms: C_13  and  C_21
REMARK    4  A    between atoms: C_22  and  C_23
REMARK    5  A    between atoms: C_23  and  N_24
REMARK                            x       y       z     vdW  Elec       q    Type
REMARK                         _______ _______ _______ _____ _____    ______ ____
ROOT
ATOM      1  S   UNL     1      36.515 -20.180 -20.389  0.00  0.00    -0.056 S 
ATOM      2  O   UNL     1      32.703 -19.334 -22.901  0.00  0.00    -0.252 OA
ATOM      3  N   UNL     1      33.981 -20.648 -20.595  0.00  0.00    -0.223 NA
ATOM      4  N   UNL     1      34.963 -19.226 -22.273  0.00  0.00    -0.248 N 
ATOM      5  N   UNL     1      34.231 -18.083 -24.147  0.00  0.00    -0.268 N 
ATOM      6  C   UNL     1      35.767 -21.175 -19.234  0.00  0.00    +0.031 C 
ATOM      7  C   UNL     1      34.442 -21.324 -19.481  0.00  0.00    +0.103 C 
ATOM      8  C   UNL     1      34.986 -20.012 -21.152  0.00  0.00    +0.166 C 
ATOM      9  C   UNL     1      33.842 -18.923 -23.091  0.00  0.00    +0.310 C 
ATOM     10  H   UNL     1      35.822 -18.826 -22.545  0.00  0.00    +0.158 HD
ATOM     11  H   UNL     1      35.184 -17.834 -24.172  0.00  0.00    +0.156 HD
ENDROOT
BRANCH   5  12
ATOM     12  C   UNL     1      33.424 -17.551 -25.181  0.00  0.00    +0.052 C 
ATOM     13  C   UNL     1      32.788 -15.701 -26.570  0.00  0.00    +0.073 C 
ATOM     14  C   UNL     1      33.584 -16.225 -25.551  0.00  0.00    +0.019 C 
ATOM     15  C   UNL     1      32.493 -18.366 -25.802  0.00  0.00    +0.015 C 
ATOM     16  C   UNL     1      31.846 -16.509 -27.206  0.00  0.00    +0.004 C 
ATOM     17  C   UNL     1      31.698 -17.842 -26.821  0.00  0.00    +0.001 C 
BRANCH  13  21
ATOM     18  F   UNL     1      33.937 -14.079 -27.902  0.00  0.00    -0.166 F 
ATOM     19  F   UNL     1      31.824 -13.743 -27.549  0.00  0.00    -0.166 F 
ATOM     20  F   UNL     1      33.252 -13.457 -25.935  0.00  0.00    -0.166 F 
ATOM     21  C   UNL     1      32.947 -14.276 -26.983  0.00  0.00    +0.419 C 
ENDBRANCH  13  21
ENDBRANCH   5  12
BRANCH   6  22
ATOM     22  C   UNL     1      36.591 -21.767 -18.114  0.00  0.00    +0.056 C 
BRANCH  22  23
ATOM     23  C   UNL     1      35.729 -22.316 -16.977  0.00  0.00    +0.093 C 
BRANCH  23  24
ATOM     24  N   UNL     1      36.492 -23.178 -16.123  0.00  0.00    -0.320 N 
ATOM     25  N   UNL     1      38.013 -25.036 -14.195  0.00  0.00    -0.220 N 
ATOM     26  N   UNL     1      38.353 -25.821 -13.155  0.00  0.00    -0.178 NA
ATOM     27  N   UNL     1      34.744 -23.384 -14.505  0.00  0.00    -0.232 NA
ATOM     28  N   UNL     1      34.987 -24.724 -12.484  0.00  0.00    -0.245 NA
ATOM     29  C   UNL     1      36.752 -24.524 -14.109  0.00  0.00    +0.185 C 
ATOM     30  C   UNL     1      35.995 -23.694 -14.915  0.00  0.00    +0.128 C 
ATOM     31  C   UNL     1      36.234 -25.016 -12.922  0.00  0.00    +0.103 C 
ATOM     32  C   UNL     1      37.262 -25.805 -12.380  0.00  0.00    +0.134 C 
ATOM     33  C   UNL     1      38.977 -24.825 -15.249  0.00  0.00    +0.135 C 
ATOM     34  C   UNL     1      34.323 -23.911 -13.331  0.00  0.00    +0.251 C 
ATOM     35  H   UNL     1      37.406 -23.420 -16.397  0.00  0.00    +0.148 HD
ENDBRANCH  23  24
ENDBRANCH  22  23
ENDBRANCH   6  22
TORSDOF 5
ENDMDL
MODEL 8
REMARK VINA RESULT:     -11.8      3.690      6.087
REMARK  Name = 15602701
REMARK  5 active torsions:
REMARK  status: ('A' for Active; 'I' for Inactive)
REMARK    1  A    between atoms: N_5  and  C_12
REMARK    2  A    between atoms: C_6  and  C_22
REMARK    3  A    between atoms: C_13  and  C_21
REMARK    4  A    between atoms: C_22  and  C_23
REMARK    5  A    between atoms: C_23  and  N_24
REMARK                            x       y       z     vdW  Elec       q    Type
REMARK                         _______ _______ _______ _____ _____    ______ ____
ROOT
ATOM      1  S   UNL     1      33.879 -20.172 -21.099  0.00  0.00    -0.056 S 
ATOM      2  O   UNL     1      35.345 -16.617 -23.702  0.00  0.00    -0.252 OA
ATOM      3  N   UNL     1      35.909 -18.677 -21.673  0.00  0.00    -0.223 NA
ATOM      4  N   UNL     1      33.853 -18.214 -22.842  0.00  0.00    -0.248 N 
ATOM      5  N   UNL     1      33.131 -16.706 -24.442  0.00  0.00    -0.268 N 
ATOM      6  C   UNL     1      35.354 -20.451 -20.308  0.00  0.00    +0.031 C 
ATOM      7  C   UNL     1      36.316 -19.586 -20.717  0.00  0.00    +0.103 C 
ATOM      8  C   UNL     1      34.643 -18.892 -21.951  0.00  0.00    +0.166 C 
ATOM      9  C   UNL     1      34.228 -17.121 -23.669  0.00  0.00    +0.310 C 
ATOM     10  H   UNL     1      32.919 -18.518 -22.918  0.00  0.00    +0.158 HD
ATOM     11  H   UNL     1      32.294 -17.208 -24.308  0.00  0.00    +0.156 HD
ENDROOT
BRANCH   5  12
ATOM     12  C   UNL     1      33.079 -15.656 -25.389  0.00  0.00    +0.052 C 
ATOM     13  C   UNL     1      33.123 -13.309 -25.886  0.00  0.00    +0.073 C 
ATOM     14  C   UNL     1      33.173 -14.344 -24.952  0.00  0.00    +0.019 C 
ATOM     15  C   UNL     1      32.939 -15.961 -26.732  0.00  0.00    +0.015 C 
ATOM     16  C   UNL     1      32.982 -13.600 -27.243  0.00  0.00    +0.004 C 
ATOM     17  C   UNL     1      32.889 -14.926 -27.666  0.00  0.00    +0.001 C 
BRANCH  13  21
ATOM     18  F   UNL     1      32.647 -11.662 -24.217  0.00  0.00    -0.166 F 
ATOM     19  F   UNL     1      34.508 -11.446 -25.310  0.00  0.00    -0.166 F 
ATOM     20  F   UNL     1      32.616 -11.022 -26.294  0.00  0.00    -0.166 F 
ATOM     21  C   UNL     1      33.223 -11.891 -25.434  0.00  0.00    +0.419 C 
ENDBRANCH  13  21
ENDBRANCH   5  12
BRANCH   6  22
ATOM     22  C   UNL     1      35.455 -21.561 -19.287  0.00  0.00    +0.056 C 
BRANCH  22  23
ATOM     23  C   UNL     1      34.113 -22.245 -19.028  0.00  0.00    +0.093 C 
BRANCH  23  24
ATOM     24  N   UNL     1      34.067 -22.805 -17.710  0.00  0.00    -0.320 N 
ATOM     25  N   UNL     1      33.817 -23.996 -14.880  0.00  0.00    -0.220 N 
ATOM     26  N   UNL     1      33.338 -24.453 -13.708  0.00  0.00    -0.178 NA
ATOM     27  N   UNL     1      31.686 -22.655 -17.558  0.00  0.00    -0.232 NA
ATOM     28  N   UNL     1      30.454 -23.387 -15.586  0.00  0.00    -0.245 NA
ATOM     29  C   UNL     1      32.852 -23.543 -15.731  0.00  0.00    +0.185 C 
ATOM     30  C   UNL     1      32.869 -23.001 -17.003  0.00  0.00    +0.128 C 
ATOM     31  C   UNL     1      31.654 -23.723 -15.059  0.00  0.00    +0.103 C 
ATOM     32  C   UNL     1      32.016 -24.284 -13.822  0.00  0.00    +0.134 C 
ATOM     33  C   UNL     1      35.243 -24.028 -15.107  0.00  0.00    +0.135 C 
ATOM     34  C   UNL     1      30.567 -22.867 -16.826  0.00  0.00    +0.251 C 
ATOM     35  H   UNL     1      34.914 -23.066 -17.281  0.00  0.00    +0.148 HD
ENDBRANCH  23  24
ENDBRANCH  22  23
ENDBRANCH   6  22
TORSDOF 5
ENDMDL
MODEL 9
REMARK VINA RESULT:     -11.7      6.126     11.798
REMARK  Name = 15602701
REMARK  5 active torsions:
REMARK  status: ('A' for Active; 'I' for Inactive)
REMARK    1  A    between atoms: N_5  and  C_12
REMARK    2  A    between atoms: C_6  and  C_22
REMARK    3  A    between atoms: C_13  and  C_21
REMARK    4  A    between atoms: C_22  and  C_23
REMARK    5  A    between atoms: C_23  and  N_24
REMARK                            x       y       z     vdW  Elec       q    Type
REMARK                         _______ _______ _______ _____ _____    ______ ____
ROOT
ATOM      1  S   UNL     1      33.436 -19.862 -20.871  0.00  0.00    -0.056 S 
ATOM      2  O   UNL     1      33.056 -22.983 -17.453  0.00  0.00    -0.252 OA
ATOM      3  N   UNL     1      34.744 -21.504 -19.362  0.00  0.00    -0.223 NA
ATOM      4  N   UNL     1      32.361 -21.385 -19.029  0.00  0.00    -0.248 N 
ATOM      5  N   UNL     1      30.804 -22.395 -17.646  0.00  0.00    -0.268 N 
ATOM      6  C   UNL     1      35.118 -19.988 -21.060  0.00  0.00    +0.031 C 
ATOM      7  C   UNL     1      35.655 -20.889 -20.199  0.00  0.00    +0.103 C 
ATOM      8  C   UNL     1      33.544 -21.040 -19.627  0.00  0.00    +0.166 C 
ATOM      9  C   UNL     1      32.166 -22.327 -17.983  0.00  0.00    +0.310 C 
ATOM     10  H   UNL     1      31.553 -20.929 -19.361  0.00  0.00    +0.158 HD
ATOM     11  H   UNL     1      30.202 -21.807 -18.160  0.00  0.00    +0.156 HD
ENDROOT
BRANCH   5  12
ATOM     12  C   UNL     1      30.189 -23.203 -16.662  0.00  0.00    +0.052 C 
ATOM     13  C   UNL     1      30.192 -24.145 -14.455  0.00  0.00    +0.073 C 
ATOM     14  C   UNL     1      30.799 -23.349 -15.426  0.00  0.00    +0.019 C 
ATOM     15  C   UNL     1      28.989 -23.831 -16.952  0.00  0.00    +0.015 C 
ATOM     16  C   UNL     1      28.983 -24.785 -14.732  0.00  0.00    +0.004 C 
ATOM     17  C   UNL     1      28.382 -24.628 -15.981  0.00  0.00    +0.001 C 
BRANCH  13  21
ATOM     18  F   UNL     1      31.526 -23.212 -12.702  0.00  0.00    -0.166 F 
ATOM     19  F   UNL     1      29.946 -24.576 -12.115  0.00  0.00    -0.166 F 
ATOM     20  F   UNL     1      31.731 -25.341 -13.092  0.00  0.00    -0.166 F 
ATOM     21  C   UNL     1      30.834 -24.313 -13.119  0.00  0.00    +0.419 C 
ENDBRANCH  13  21
ENDBRANCH   5  12
BRANCH   6  22
ATOM     22  C   UNL     1      35.817 -19.146 -22.101  0.00  0.00    +0.056 C 
BRANCH  22  23
ATOM     23  C   UNL     1      35.269 -17.721 -22.170  0.00  0.00    +0.093 C 
BRANCH  23  24
ATOM     24  N   UNL     1      34.703 -17.448 -23.458  0.00  0.00    -0.320 N 
ATOM     25  N   UNL     1      33.471 -16.718 -26.184  0.00  0.00    -0.220 N 
ATOM     26  N   UNL     1      32.911 -16.055 -27.214  0.00  0.00    -0.178 NA
ATOM     27  N   UNL     1      34.337 -15.134 -22.982  0.00  0.00    -0.232 NA
ATOM     28  N   UNL     1      33.342 -13.609 -24.604  0.00  0.00    -0.245 NA
ATOM     29  C   UNL     1      33.709 -15.938 -25.091  0.00  0.00    +0.185 C 
ATOM     30  C   UNL     1      34.252 -16.174 -23.842  0.00  0.00    +0.128 C 
ATOM     31  C   UNL     1      33.271 -14.670 -25.440  0.00  0.00    +0.103 C 
ATOM     32  C   UNL     1      32.791 -14.804 -26.754  0.00  0.00    +0.134 C 
ATOM     33  C   UNL     1      33.748 -18.127 -26.335  0.00  0.00    +0.135 C 
ATOM     34  C   UNL     1      33.883 -13.932 -23.410  0.00  0.00    +0.251 C 
ATOM     35  H   UNL     1      34.628 -18.187 -24.103  0.00  0.00    +0.148 HD
ENDBRANCH  23  24
ENDBRANCH  22  23
ENDBRANCH   6  22
TORSDOF 5
ENDMDL
