MODEL 1
REMARK VINA RESULT:     -11.8      0.000      0.000
REMARK  Name = 4261
REMARK  8 active torsions:
REMARK  status: ('A' for Active; 'I' for Inactive)
REMARK    1  A    between atoms: C_1  and  C_20
REMARK    2  A    between atoms: C_2  and  C_9
REMARK    3  A    between atoms: N_8  and  C_11
REMARK    4  A    between atoms: C_12  and  N_17
REMARK    5  A    between atoms: C_20  and  N_22
REMARK    6  A    between atoms: C_23  and  O_25
REMARK    7  A    between atoms: O_25  and  C_26
REMARK    8  A    between atoms: C_26  and  C_28
REMARK                            x       y       z     vdW  Elec       q    Type
REMARK                         _______ _______ _______ _____ _____    ______ ____
ROOT
ATOM      1  C   UNL     1      33.683 -22.181 -18.553  0.00  0.00    -0.002 C 
ATOM      2  C   UNL     1      34.480 -20.388 -20.523  0.00  0.00    +0.054 C 
ATOM      3  C   UNL     1      35.037 -22.002 -18.813  0.00  0.00    -0.002 C 
ATOM      4  C   UNL     1      32.724 -21.473 -19.268  0.00  0.00    -0.002 C 
ATOM      5  C   UNL     1      35.436 -21.103 -19.801  0.00  0.00    +0.004 C 
ATOM      6  C   UNL     1      33.123 -20.573 -20.255  0.00  0.00    +0.004 C 
ENDROOT
BRANCH   2   9
ATOM      7  O   UNL     1      36.069 -19.044 -21.561  0.00  0.00    -0.270 OA
ATOM      8  N   UNL     1      33.916 -19.099 -22.493  0.00  0.00    -0.279 N 
ATOM      9  C   UNL     1      34.897 -19.452 -21.554  0.00  0.00    +0.250 C 
ATOM     10  H   UNL     1      33.029 -19.504 -22.358  0.00  0.00    +0.155 HD
BRANCH   8  11
ATOM     11  C   UNL     1      34.035 -18.238 -23.611  0.00  0.00    +0.064 C 
ATOM     12  C   UNL     1      34.398 -16.912 -23.438  0.00  0.00    +0.055 C 
ATOM     13  C   UNL     1      33.780 -18.757 -24.871  0.00  0.00    +0.016 C 
ATOM     14  C   UNL     1      34.509 -16.083 -24.554  0.00  0.00    +0.015 C 
ATOM     15  C   UNL     1      33.891 -17.928 -25.987  0.00  0.00    +0.001 C 
ATOM     16  C   UNL     1      34.255 -16.591 -25.828  0.00  0.00    +0.001 C 
BRANCH  12  17
ATOM     17  N   UNL     1      34.660 -16.377 -22.157  0.00  0.00    -0.356 N 
ATOM     18  H   UNL     1      34.326 -15.482 -21.921  0.00  0.00    +0.142 HD
ATOM     19  H   UNL     1      35.176 -16.899 -21.501  0.00  0.00    +0.142 HD
ENDBRANCH  12  17
ENDBRANCH   8  11
ENDBRANCH   2   9
BRANCH   1  20
ATOM     20  C   UNL     1      33.253 -23.147 -17.488  0.00  0.00    +0.119 C 
BRANCH  20  22
ATOM     21  O   UNL     1      32.715 -23.819 -14.714  0.00  0.00    -0.226 OA
ATOM     22  N   UNL     1      34.192 -23.195 -16.390  0.00  0.00    -0.267 N 
ATOM     23  C   UNL     1      33.842 -23.526 -15.099  0.00  0.00    +0.402 C 
ATOM     24  H   UNL     1      35.134 -22.978 -16.576  0.00  0.00    +0.153 HD
BRANCH  23  25
ATOM     25  O   UNL     1      34.948 -23.481 -14.297  0.00  0.00    -0.430 OA
BRANCH  25  26
ATOM     26  C   UNL     1      35.177 -24.638 -13.483  0.00  0.00    +0.238 C 
BRANCH  26  28
ATOM     27  N   UNL     1      37.891 -26.815 -14.931  0.00  0.00    -0.243 NA
ATOM     28  C   UNL     1      36.542 -25.186 -13.785  0.00  0.00    +0.040 C 
ATOM     29  C   UNL     1      37.670 -24.609 -13.230  0.00  0.00    +0.002 C 
ATOM     30  C   UNL     1      36.693 -26.272 -14.619  0.00  0.00    +0.098 C 
ATOM     31  C   UNL     1      38.920 -25.138 -13.526  0.00  0.00    +0.020 C 
ATOM     32  C   UNL     1      38.977 -26.232 -14.375  0.00  0.00    +0.099 C 
ENDBRANCH  26  28
ENDBRANCH  25  26
ENDBRANCH  23  25
ENDBRANCH  20  22
ENDBRANCH   1  20
TORSDOF 8
ENDMDL
MODEL 2
REMARK VINA RESULT:     -11.7      3.285     11.336
REMARK  Name = 4261
REMARK  8 active torsions:
REMARK  status: ('A' for Active; 'I' for Inactive)
REMARK    1  A    between atoms: C_1  and  C_20
REMARK    2  A    between atoms: C_2  and  C_9
REMARK    3  A    between atoms: N_8  and  C_11
REMARK    4  A    between atoms: C_12  and  N_17
REMARK    5  A    between atoms: C_20  and  N_22
REMARK    6  A    between atoms: C_23  and  O_25
REMARK    7  A    between atoms: O_25  and  C_26
REMARK    8  A    between atoms: C_26  and  C_28
REMARK                            x       y       z     vdW  Elec       q    Type
REMARK                         _______ _______ _______ _____ _____    ______ ____
ROOT
ATOM      1  C   UNL     1      34.693 -20.151 -20.594  0.00  0.00    -0.002 C 
ATOM      2  C   UNL     1      33.609 -22.086 -18.916  0.00  0.00    +0.054 C 
ATOM      3  C   UNL     1      33.312 -20.271 -20.483  0.00  0.00    -0.002 C 
ATOM      4  C   UNL     1      35.537 -20.989 -19.874  0.00  0.00    -0.002 C 
ATOM      5  C   UNL     1      32.769 -21.240 -19.641  0.00  0.00    +0.004 C 
ATOM      6  C   UNL     1      34.994 -21.959 -19.032  0.00  0.00    +0.004 C 
ENDROOT
BRANCH   2   9
ATOM      7  O   UNL     1      33.284 -24.294 -18.264  0.00  0.00    -0.270 OA
ATOM      8  N   UNL     1      32.270 -22.619 -16.971  0.00  0.00    -0.279 N 
ATOM      9  C   UNL     1      33.043 -23.097 -18.040  0.00  0.00    +0.250 C 
ATOM     10  H   UNL     1      32.167 -21.641 -16.923  0.00  0.00    +0.155 HD
BRANCH   8  11
ATOM     11  C   UNL     1      31.620 -23.357 -15.953  0.00  0.00    +0.064 C 
ATOM     12  C   UNL     1      30.239 -23.465 -15.939  0.00  0.00    +0.055 C 
ATOM     13  C   UNL     1      32.400 -23.964 -14.981  0.00  0.00    +0.016 C 
ATOM     14  C   UNL     1      29.621 -24.199 -14.926  0.00  0.00    +0.015 C 
ATOM     15  C   UNL     1      31.782 -24.697 -13.968  0.00  0.00    +0.001 C 
ATOM     16  C   UNL     1      30.392 -24.814 -13.940  0.00  0.00    +0.001 C 
BRANCH  12  17
ATOM     17  N   UNL     1      29.437 -22.851 -16.928  0.00  0.00    -0.356 N 
ATOM     18  H   UNL     1      29.582 -21.905 -17.159  0.00  0.00    +0.142 HD
ATOM     19  H   UNL     1      28.736 -23.368 -17.384  0.00  0.00    +0.142 HD
ENDBRANCH  12  17
ENDBRANCH   8  11
ENDBRANCH   2   9
BRANCH   1  20
ATOM     20  C   UNL     1      35.278 -19.106 -21.499  0.00  0.00    +0.119 C 
BRANCH  20  22
ATOM     21  O   UNL     1      34.730 -19.802 -24.265  0.00  0.00    -0.226 OA
ATOM     22  N   UNL     1      34.283 -18.533 -22.376  0.00  0.00    -0.267 N 
ATOM     23  C   UNL     1      34.095 -18.930 -23.682  0.00  0.00    +0.402 C 
ATOM     24  H   UNL     1      33.707 -17.818 -22.019  0.00  0.00    +0.153 HD
BRANCH  23  25
ATOM     25  O   UNL     1      33.084 -18.201 -24.244  0.00  0.00    -0.430 OA
BRANCH  25  26
ATOM     26  C   UNL     1      32.787 -18.496 -25.613  0.00  0.00    +0.238 C 
BRANCH  26  28
ATOM     27  N   UNL     1      33.462 -15.074 -27.040  0.00  0.00    -0.243 NA
ATOM     28  C   UNL     1      32.586 -17.210 -26.359  0.00  0.00    +0.040 C 
ATOM     29  C   UNL     1      31.401 -16.962 -27.030  0.00  0.00    +0.002 C 
ATOM     30  C   UNL     1      33.578 -16.253 -26.388  0.00  0.00    +0.098 C 
ATOM     31  C   UNL     1      31.244 -15.762 -27.711  0.00  0.00    +0.020 C 
ATOM     32  C   UNL     1      32.294 -14.858 -27.686  0.00  0.00    +0.099 C 
ENDBRANCH  26  28
ENDBRANCH  25  26
ENDBRANCH  23  25
ENDBRANCH  20  22
ENDBRANCH   1  20
TORSDOF 8
ENDMDL
MODEL 3
REMARK VINA RESULT:     -11.5      3.408     11.394
REMARK  Name = 4261
REMARK  8 active torsions:
REMARK  status: ('A' for Active; 'I' for Inactive)
REMARK    1  A    between atoms: C_1  and  C_20
REMARK    2  A    between atoms: C_2  and  C_9
REMARK    3  A    between atoms: N_8  and  C_11
REMARK    4  A    between atoms: C_12  and  N_17
REMARK    5  A    between atoms: C_20  and  N_22
REMARK    6  A    between atoms: C_23  and  O_25
REMARK    7  A    between atoms: O_25  and  C_26
REMARK    8  A    between atoms: C_26  and  C_28
REMARK                            x       y       z     vdW  Elec       q    Type
REMARK                         _______ _______ _______ _____ _____    ______ ____
ROOT
ATOM      1  C   UNL     1      34.385 -19.870 -20.929  0.00  0.00    -0.002 C 
ATOM      2  C   UNL     1      33.399 -21.815 -19.203  0.00  0.00    +0.054 C 
ATOM      3  C   UNL     1      35.269 -20.715 -20.267  0.00  0.00    -0.002 C 
ATOM      4  C   UNL     1      33.013 -19.988 -20.736  0.00  0.00    -0.002 C 
ATOM      5  C   UNL     1      34.774 -21.690 -19.402  0.00  0.00    +0.004 C 
ATOM      6  C   UNL     1      32.518 -20.963 -19.870  0.00  0.00    +0.004 C 
ENDROOT
BRANCH   2   9
ATOM      7  O   UNL     1      33.341 -23.983 -18.364  0.00  0.00    -0.270 OA
ATOM      8  N   UNL     1      31.905 -22.402 -17.390  0.00  0.00    -0.279 N 
ATOM      9  C   UNL     1      32.884 -22.830 -18.299  0.00  0.00    +0.250 C 
ATOM     10  H   UNL     1      31.643 -21.455 -17.460  0.00  0.00    +0.155 HD
BRANCH   8  11
ATOM     11  C   UNL     1      31.246 -23.151 -16.387  0.00  0.00    +0.064 C 
ATOM     12  C   UNL     1      31.957 -23.658 -15.310  0.00  0.00    +0.055 C 
ATOM     13  C   UNL     1      29.882 -23.361 -16.512  0.00  0.00    +0.016 C 
ATOM     14  C   UNL     1      31.285 -24.394 -14.333  0.00  0.00    +0.015 C 
ATOM     15  C   UNL     1      29.210 -24.096 -15.535  0.00  0.00    +0.001 C 
ATOM     16  C   UNL     1      29.912 -24.613 -14.446  0.00  0.00    +0.001 C 
BRANCH  12  17
ATOM     17  N   UNL     1      33.347 -23.447 -15.175  0.00  0.00    -0.356 N 
ATOM     18  H   UNL     1      33.967 -24.211 -15.222  0.00  0.00    +0.142 HD
ATOM     19  H   UNL     1      33.696 -22.538 -15.035  0.00  0.00    +0.142 HD
ENDBRANCH  12  17
ENDBRANCH   8  11
ENDBRANCH   2   9
BRANCH   1  20
ATOM     20  C   UNL     1      34.917 -18.822 -21.862  0.00  0.00    +0.119 C 
BRANCH  20  22
ATOM     21  O   UNL     1      34.498 -19.697 -24.599  0.00  0.00    -0.226 OA
ATOM     22  N   UNL     1      33.910 -18.366 -22.793  0.00  0.00    -0.267 N 
ATOM     23  C   UNL     1      33.787 -18.843 -24.080  0.00  0.00    +0.402 C 
ATOM     24  H   UNL     1      33.275 -17.677 -22.490  0.00  0.00    +0.153 HD
BRANCH  23  25
ATOM     25  O   UNL     1      32.745 -18.218 -24.706  0.00  0.00    -0.430 OA
BRANCH  25  26
ATOM     26  C   UNL     1      32.796 -18.198 -26.137  0.00  0.00    +0.238 C 
BRANCH  26  28
ATOM     27  N   UNL     1      33.176 -14.497 -26.738  0.00  0.00    -0.243 NA
ATOM     28  C   UNL     1      32.508 -16.806 -26.618  0.00  0.00    +0.040 C 
ATOM     29  C   UNL     1      31.366 -16.536 -27.352  0.00  0.00    +0.002 C 
ATOM     30  C   UNL     1      33.376 -15.773 -26.336  0.00  0.00    +0.098 C 
ATOM     31  C   UNL     1      31.126 -15.237 -27.783  0.00  0.00    +0.020 C 
ATOM     32  C   UNL     1      32.053 -14.262 -27.453  0.00  0.00    +0.099 C 
ENDBRANCH  26  28
ENDBRANCH  25  26
ENDBRANCH  23  25
ENDBRANCH  20  22
ENDBRANCH   1  20
TORSDOF 8
ENDMDL
MODEL 4
REMARK VINA RESULT:     -11.3      3.156      5.450
REMARK  Name = 4261
REMARK  8 active torsions:
REMARK  status: ('A' for Active; 'I' for Inactive)
REMARK    1  A    between atoms: C_1  and  C_20
REMARK    2  A    between atoms: C_2  and  C_9
REMARK    3  A    between atoms: N_8  and  C_11
REMARK    4  A    between atoms: C_12  and  N_17
REMARK    5  A    between atoms: C_20  and  N_22
REMARK    6  A    between atoms: C_23  and  O_25
REMARK    7  A    between atoms: O_25  and  C_26
REMARK    8  A    between atoms: C_26  and  C_28
REMARK                            x       y       z     vdW  Elec       q    Type
REMARK                         _______ _______ _______ _____ _____    ______ ____
ROOT
ATOM      1  C   UNL     1      33.677 -22.412 -18.406  0.00  0.00    -0.002 C 
ATOM      2  C   UNL     1      34.505 -20.563 -20.310  0.00  0.00    +0.054 C 
ATOM      3  C   UNL     1      35.035 -22.178 -18.593  0.00  0.00    -0.002 C 
ATOM      4  C   UNL     1      32.729 -21.729 -19.161  0.00  0.00    -0.002 C 
ATOM      5  C   UNL     1      35.450 -21.251 -19.548  0.00  0.00    +0.004 C 
ATOM      6  C   UNL     1      33.144 -20.802 -20.115  0.00  0.00    +0.004 C 
ENDROOT
BRANCH   2   9
ATOM      7  O   UNL     1      36.114 -19.198 -21.289  0.00  0.00    -0.270 OA
ATOM      8  N   UNL     1      33.969 -19.208 -22.243  0.00  0.00    -0.279 N 
ATOM      9  C   UNL     1      34.938 -19.597 -21.307  0.00  0.00    +0.250 C 
ATOM     10  H   UNL     1      33.079 -19.610 -22.129  0.00  0.00    +0.155 HD
BRANCH   8  11
ATOM     11  C   UNL     1      34.106 -18.312 -23.331  0.00  0.00    +0.064 C 
ATOM     12  C   UNL     1      34.483 -16.997 -23.113  0.00  0.00    +0.055 C 
ATOM     13  C   UNL     1      33.853 -18.786 -24.609  0.00  0.00    +0.016 C 
ATOM     14  C   UNL     1      34.610 -16.133 -24.202  0.00  0.00    +0.015 C 
ATOM     15  C   UNL     1      33.981 -17.923 -25.697  0.00  0.00    +0.001 C 
ATOM     16  C   UNL     1      34.359 -16.596 -25.493  0.00  0.00    +0.001 C 
BRANCH  12  17
ATOM     17  N   UNL     1      34.743 -16.506 -21.814  0.00  0.00    -0.356 N 
ATOM     18  H   UNL     1      35.462 -15.850 -21.671  0.00  0.00    +0.142 HD
ATOM     19  H   UNL     1      34.204 -16.820 -21.052  0.00  0.00    +0.142 HD
ENDBRANCH  12  17
ENDBRANCH   8  11
ENDBRANCH   2   9
BRANCH   1  20
ATOM     20  C   UNL     1      33.229 -23.408 -17.377  0.00  0.00    +0.119 C 
BRANCH  20  22
ATOM     21  O   UNL     1      32.500 -23.866 -14.603  0.00  0.00    -0.226 OA
ATOM     22  N   UNL     1      32.030 -22.979 -16.694  0.00  0.00    -0.267 N 
ATOM     23  C   UNL     1      31.769 -23.244 -15.367  0.00  0.00    +0.402 C 
ATOM     24  H   UNL     1      31.362 -22.468 -17.206  0.00  0.00    +0.153 HD
BRANCH  23  25
ATOM     25  O   UNL     1      30.561 -22.708 -15.019  0.00  0.00    -0.430 OA
BRANCH  25  26
ATOM     26  C   UNL     1      29.472 -23.634 -14.918  0.00  0.00    +0.238 C 
BRANCH  26  28
ATOM     27  N   UNL     1      27.344 -23.292 -18.009  0.00  0.00    -0.243 NA
ATOM     28  C   UNL     1      28.368 -23.192 -15.834  0.00  0.00    +0.040 C 
ATOM     29  C   UNL     1      27.392 -22.318 -15.389  0.00  0.00    +0.002 C 
ATOM     30  C   UNL     1      28.309 -23.650 -17.133  0.00  0.00    +0.098 C 
ATOM     31  C   UNL     1      26.383 -21.927 -16.261  0.00  0.00    +0.020 C 
ATOM     32  C   UNL     1      26.403 -22.437 -17.549  0.00  0.00    +0.099 C 
ENDBRANCH  26  28
ENDBRANCH  25  26
ENDBRANCH  23  25
ENDBRANCH  20  22
ENDBRANCH   1  20
TORSDOF 8
ENDMDL
MODEL 5
REMARK VINA RESULT:     -11.3      2.439      4.575
REMARK  Name = 4261
REMARK  8 active torsions:
REMARK  status: ('A' for Active; 'I' for Inactive)
REMARK    1  A    between atoms: C_1  and  C_20
REMARK    2  A    between atoms: C_2  and  C_9
REMARK    3  A    between atoms: N_8  and  C_11
REMARK    4  A    between atoms: C_12  and  N_17
REMARK    5  A    between atoms: C_20  and  N_22
REMARK    6  A    between atoms: C_23  and  O_25
REMARK    7  A    between atoms: O_25  and  C_26
REMARK    8  A    between atoms: C_26  and  C_28
REMARK                            x       y       z     vdW  Elec       q    Type
REMARK                         _______ _______ _______ _____ _____    ______ ____
ROOT
ATOM      1  C   UNL     1      34.449 -22.272 -18.088  0.00  0.00    -0.002 C 
ATOM      2  C   UNL     1      33.753 -20.703 -20.276  0.00  0.00    +0.054 C 
ATOM      3  C   UNL     1      33.109 -22.124 -18.430  0.00  0.00    -0.002 C 
ATOM      4  C   UNL     1      35.444 -21.643 -18.829  0.00  0.00    -0.002 C 
ATOM      5  C   UNL     1      32.761 -21.337 -19.527  0.00  0.00    +0.004 C 
ATOM      6  C   UNL     1      35.095 -20.857 -19.926  0.00  0.00    +0.004 C 
ENDROOT
BRANCH   2   9
ATOM      7  O   UNL     1      32.188 -19.738 -21.700  0.00  0.00    -0.270 OA
ATOM      8  N   UNL     1      34.455 -19.286 -22.109  0.00  0.00    -0.279 N 
ATOM      9  C   UNL     1      33.388 -19.882 -21.418  0.00  0.00    +0.250 C 
ATOM     10  H   UNL     1      35.354 -19.493 -21.767  0.00  0.00    +0.155 HD
BRANCH   8  11
ATOM     11  C   UNL     1      34.406 -18.426 -23.232  0.00  0.00    +0.064 C 
ATOM     12  C   UNL     1      34.608 -17.063 -23.080  0.00  0.00    +0.055 C 
ATOM     13  C   UNL     1      34.152 -18.982 -24.476  0.00  0.00    +0.016 C 
ATOM     14  C   UNL     1      34.555 -16.235 -24.202  0.00  0.00    +0.015 C 
ATOM     15  C   UNL     1      34.100 -18.154 -25.598  0.00  0.00    +0.001 C 
ATOM     16  C   UNL     1      34.301 -16.780 -25.460  0.00  0.00    +0.001 C 
BRANCH  12  17
ATOM     17  N   UNL     1      34.868 -16.489 -21.815  0.00  0.00    -0.356 N 
ATOM     18  H   UNL     1      34.314 -15.743 -21.491  0.00  0.00    +0.142 HD
ATOM     19  H   UNL     1      35.603 -16.836 -21.259  0.00  0.00    +0.142 HD
ENDBRANCH  12  17
ENDBRANCH   8  11
ENDBRANCH   2   9
BRANCH   1  20
ATOM     20  C   UNL     1      34.825 -23.119 -16.908  0.00  0.00    +0.119 C 
BRANCH  20  22
ATOM     21  O   UNL     1      34.693 -24.927 -14.639  0.00  0.00    -0.226 OA
ATOM     22  N   UNL     1      33.695 -23.377 -16.046  0.00  0.00    -0.267 N 
ATOM     23  C   UNL     1      33.726 -24.258 -14.986  0.00  0.00    +0.402 C 
ATOM     24  H   UNL     1      32.855 -22.895 -16.225  0.00  0.00    +0.153 HD
BRANCH  23  25
ATOM     25  O   UNL     1      32.507 -24.279 -14.369  0.00  0.00    -0.430 OA
BRANCH  25  26
ATOM     26  C   UNL     1      31.739 -23.073 -14.461  0.00  0.00    +0.238 C 
BRANCH  26  28
ATOM     27  N   UNL     1      28.943 -22.842 -16.977  0.00  0.00    -0.243 NA
ATOM     28  C   UNL     1      30.454 -23.366 -15.179  0.00  0.00    +0.040 C 
ATOM     29  C   UNL     1      29.617 -24.378 -14.741  0.00  0.00    +0.002 C 
ATOM     30  C   UNL     1      30.085 -22.632 -16.286  0.00  0.00    +0.098 C 
ATOM     31  C   UNL     1      28.434 -24.625 -15.426  0.00  0.00    +0.020 C 
ATOM     32  C   UNL     1      28.144 -23.837 -16.528  0.00  0.00    +0.099 C 
ENDBRANCH  26  28
ENDBRANCH  25  26
ENDBRANCH  23  25
ENDBRANCH  20  22
ENDBRANCH   1  20
TORSDOF 8
ENDMDL
MODEL 6
REMARK VINA RESULT:     -11.0      3.310      4.911
REMARK  Name = 4261
REMARK  8 active torsions:
REMARK  status: ('A' for Active; 'I' for Inactive)
REMARK    1  A    between atoms: C_1  and  C_20
REMARK    2  A    between atoms: C_2  and  C_9
REMARK    3  A    between atoms: N_8  and  C_11
REMARK    4  A    between atoms: C_12  and  N_17
REMARK    5  A    between atoms: C_20  and  N_22
REMARK    6  A    between atoms: C_23  and  O_25
REMARK    7  A    between atoms: O_25  and  C_26
REMARK    8  A    between atoms: C_26  and  C_28
REMARK                            x       y       z     vdW  Elec       q    Type
REMARK                         _______ _______ _______ _____ _____    ______ ____
ROOT
ATOM      1  C   UNL     1      35.175 -20.502 -20.294  0.00  0.00    -0.002 C 
ATOM      2  C   UNL     1      34.714 -18.520 -22.189  0.00  0.00    +0.054 C 
ATOM      3  C   UNL     1      36.226 -19.696 -20.716  0.00  0.00    -0.002 C 
ATOM      4  C   UNL     1      33.896 -20.327 -20.810  0.00  0.00    -0.002 C 
ATOM      5  C   UNL     1      35.995 -18.702 -21.666  0.00  0.00    +0.004 C 
ATOM      6  C   UNL     1      33.665 -19.333 -21.760  0.00  0.00    +0.004 C 
ENDROOT
BRANCH   2   9
ATOM      7  O   UNL     1      35.122 -16.427 -23.118  0.00  0.00    -0.270 OA
ATOM      8  N   UNL     1      33.521 -17.788 -24.164  0.00  0.00    -0.279 N 
ATOM      9  C   UNL     1      34.474 -17.484 -23.180  0.00  0.00    +0.250 C 
ATOM     10  H   UNL     1      33.089 -18.668 -24.082  0.00  0.00    +0.155 HD
BRANCH   8  11
ATOM     11  C   UNL     1      33.101 -16.995 -25.258  0.00  0.00    +0.064 C 
ATOM     12  C   UNL     1      32.281 -17.531 -26.238  0.00  0.00    +0.055 C 
ATOM     13  C   UNL     1      33.530 -15.678 -25.319  0.00  0.00    +0.016 C 
ATOM     14  C   UNL     1      31.881 -16.729 -27.308  0.00  0.00    +0.015 C 
ATOM     15  C   UNL     1      33.129 -14.877 -26.388  0.00  0.00    +0.001 C 
ATOM     16  C   UNL     1      32.305 -15.403 -27.383  0.00  0.00    +0.001 C 
BRANCH  12  17
ATOM     17  N   UNL     1      31.839 -18.872 -26.183  0.00  0.00    -0.356 N 
ATOM     18  H   UNL     1      32.010 -19.477 -26.940  0.00  0.00    +0.142 HD
ATOM     19  H   UNL     1      31.361 -19.199 -25.388  0.00  0.00    +0.142 HD
ENDBRANCH  12  17
ENDBRANCH   8  11
ENDBRANCH   2   9
BRANCH   1  20
ATOM     20  C   UNL     1      35.423 -21.571 -19.270  0.00  0.00    +0.119 C 
BRANCH  20  22
ATOM     21  O   UNL     1      35.061 -23.039 -16.790  0.00  0.00    -0.226 OA
ATOM     22  N   UNL     1      34.191 -22.086 -18.717  0.00  0.00    -0.267 N 
ATOM     23  C   UNL     1      34.117 -22.775 -17.526  0.00  0.00    +0.402 C 
ATOM     24  H   UNL     1      33.358 -21.936 -19.221  0.00  0.00    +0.153 HD
BRANCH  23  25
ATOM     25  O   UNL     1      32.819 -23.128 -17.278  0.00  0.00    -0.430 OA
BRANCH  25  26
ATOM     26  C   UNL     1      32.509 -23.452 -15.918  0.00  0.00    +0.238 C 
BRANCH  26  28
ATOM     27  N   UNL     1      29.237 -25.039 -14.930  0.00  0.00    -0.243 NA
ATOM     28  C   UNL     1      31.032 -23.692 -15.797  0.00  0.00    +0.040 C 
ATOM     29  C   UNL     1      30.128 -22.840 -16.407  0.00  0.00    +0.002 C 
ATOM     30  C   UNL     1      30.553 -24.766 -15.078  0.00  0.00    +0.098 C 
ATOM     31  C   UNL     1      28.767 -23.088 -16.278  0.00  0.00    +0.020 C 
ATOM     32  C   UNL     1      28.376 -24.191 -15.535  0.00  0.00    +0.099 C 
ENDBRANCH  26  28
ENDBRANCH  25  26
ENDBRANCH  23  25
ENDBRANCH  20  22
ENDBRANCH   1  20
TORSDOF 8
ENDMDL
MODEL 7
REMARK VINA RESULT:     -10.9      4.256     12.394
REMARK  Name = 4261
REMARK  8 active torsions:
REMARK  status: ('A' for Active; 'I' for Inactive)
REMARK    1  A    between atoms: C_1  and  C_20
REMARK    2  A    between atoms: C_2  and  C_9
REMARK    3  A    between atoms: N_8  and  C_11
REMARK    4  A    between atoms: C_12  and  N_17
REMARK    5  A    between atoms: C_20  and  N_22
REMARK    6  A    between atoms: C_23  and  O_25
REMARK    7  A    between atoms: O_25  and  C_26
REMARK    8  A    between atoms: C_26  and  C_28
REMARK                            x       y       z     vdW  Elec       q    Type
REMARK                         _______ _______ _______ _____ _____    ______ ____
ROOT
ATOM      1  C   UNL     1      33.778 -16.635 -25.140  0.00  0.00    -0.002 C 
ATOM      2  C   UNL     1      34.432 -17.827 -22.714  0.00  0.00    +0.054 C 
ATOM      3  C   UNL     1      34.295 -15.858 -24.109  0.00  0.00    -0.002 C 
ATOM      4  C   UNL     1      33.585 -18.001 -24.970  0.00  0.00    -0.002 C 
ATOM      5  C   UNL     1      34.623 -16.456 -22.893  0.00  0.00    +0.004 C 
ATOM      6  C   UNL     1      33.913 -18.599 -23.755  0.00  0.00    +0.004 C 
ENDROOT
BRANCH   2   9
ATOM      7  O   UNL     1      35.263 -17.752 -20.544  0.00  0.00    -0.270 OA
ATOM      8  N   UNL     1      34.487 -19.819 -21.340  0.00  0.00    -0.279 N 
ATOM      9  C   UNL     1      34.773 -18.450 -21.446  0.00  0.00    +0.250 C 
ATOM     10  H   UNL     1      34.099 -20.238 -22.142  0.00  0.00    +0.155 HD
BRANCH   8  11
ATOM     11  C   UNL     1      34.684 -20.677 -20.232  0.00  0.00    +0.064 C 
ATOM     12  C   UNL     1      33.616 -21.366 -19.681  0.00  0.00    +0.055 C 
ATOM     13  C   UNL     1      35.966 -20.806 -19.719  0.00  0.00    +0.016 C 
ATOM     14  C   UNL     1      33.835 -22.206 -18.588  0.00  0.00    +0.015 C 
ATOM     15  C   UNL     1      36.185 -21.646 -18.628  0.00  0.00    +0.001 C 
ATOM     16  C   UNL     1      35.119 -22.346 -18.062  0.00  0.00    +0.001 C 
BRANCH  12  17
ATOM     17  N   UNL     1      32.307 -21.241 -20.198  0.00  0.00    -0.356 N 
ATOM     18  H   UNL     1      32.063 -20.450 -20.731  0.00  0.00    +0.142 HD
ATOM     19  H   UNL     1      31.640 -21.943 -20.026  0.00  0.00    +0.142 HD
ENDBRANCH  12  17
ENDBRANCH   8  11
ENDBRANCH   2   9
BRANCH   1  20
ATOM     20  C   UNL     1      33.426 -15.992 -26.450  0.00  0.00    +0.119 C 
BRANCH  20  22
ATOM     21  O   UNL     1      34.144 -13.810 -28.227  0.00  0.00    -0.226 OA
ATOM     22  N   UNL     1      33.120 -14.588 -26.297  0.00  0.00    -0.267 N 
ATOM     23  C   UNL     1      33.505 -13.619 -27.199  0.00  0.00    +0.402 C 
ATOM     24  H   UNL     1      32.607 -14.308 -25.505  0.00  0.00    +0.153 HD
BRANCH  23  25
ATOM     25  O   UNL     1      33.066 -12.396 -26.775  0.00  0.00    -0.430 OA
BRANCH  25  26
ATOM     26  C   UNL     1      32.993 -12.215 -25.356  0.00  0.00    +0.238 C 
BRANCH  26  28
ATOM     27  N   UNL     1      33.896  -8.976 -23.654  0.00  0.00    -0.243 NA
ATOM     28  C   UNL     1      33.758 -10.978 -24.981  0.00  0.00    +0.040 C 
ATOM     29  C   UNL     1      34.974 -10.695 -25.577  0.00  0.00    +0.002 C 
ATOM     30  C   UNL     1      33.260 -10.106 -24.037  0.00  0.00    +0.098 C 
ATOM     31  C   UNL     1      35.658  -9.543 -25.210  0.00  0.00    +0.020 C 
ATOM     32  C   UNL     1      35.083  -8.723 -24.252  0.00  0.00    +0.099 C 
ENDBRANCH  26  28
ENDBRANCH  25  26
ENDBRANCH  23  25
ENDBRANCH  20  22
ENDBRANCH   1  20
TORSDOF 8
ENDMDL
MODEL 8
REMARK VINA RESULT:     -10.9      1.014      1.932
REMARK  Name = 4261
REMARK  8 active torsions:
REMARK  status: ('A' for Active; 'I' for Inactive)
REMARK    1  A    between atoms: C_1  and  C_20
REMARK    2  A    between atoms: C_2  and  C_9
REMARK    3  A    between atoms: N_8  and  C_11
REMARK    4  A    between atoms: C_12  and  N_17
REMARK    5  A    between atoms: C_20  and  N_22
REMARK    6  A    between atoms: C_23  and  O_25
REMARK    7  A    between atoms: O_25  and  C_26
REMARK    8  A    between atoms: C_26  and  C_28
REMARK                            x       y       z     vdW  Elec       q    Type
REMARK                         _______ _______ _______ _____ _____    ______ ____
ROOT
ATOM      1  C   UNL     1      33.542 -22.201 -18.785  0.00  0.00    -0.002 C 
ATOM      2  C   UNL     1      34.409 -20.279 -20.598  0.00  0.00    +0.054 C 
ATOM      3  C   UNL     1      32.611 -21.401 -19.437  0.00  0.00    -0.002 C 
ATOM      4  C   UNL     1      34.902 -22.050 -19.030  0.00  0.00    -0.002 C 
ATOM      5  C   UNL     1      33.046 -20.438 -20.347  0.00  0.00    +0.004 C 
ATOM      6  C   UNL     1      35.337 -21.087 -19.940  0.00  0.00    +0.004 C 
ENDROOT
BRANCH   2   9
ATOM      7  O   UNL     1      36.023 -18.844 -21.459  0.00  0.00    -0.270 OA
ATOM      8  N   UNL     1      33.928 -18.884 -22.517  0.00  0.00    -0.279 N 
ATOM      9  C   UNL     1      34.862 -19.274 -21.545  0.00  0.00    +0.250 C 
ATOM     10  H   UNL     1      33.045 -19.314 -22.457  0.00  0.00    +0.155 HD
BRANCH   8  11
ATOM     11  C   UNL     1      34.091 -17.953 -23.572  0.00  0.00    +0.064 C 
ATOM     12  C   UNL     1      34.075 -18.380 -24.890  0.00  0.00    +0.055 C 
ATOM     13  C   UNL     1      34.264 -16.616 -23.249  0.00  0.00    +0.016 C 
ATOM     14  C   UNL     1      34.237 -17.444 -25.912  0.00  0.00    +0.015 C 
ATOM     15  C   UNL     1      34.426 -15.682 -24.271  0.00  0.00    +0.001 C 
ATOM     16  C   UNL     1      34.413 -16.096 -25.603  0.00  0.00    +0.001 C 
BRANCH  12  17
ATOM     17  N   UNL     1      33.897 -19.740 -25.227  0.00  0.00    -0.356 N 
ATOM     18  H   UNL     1      34.550 -20.191 -25.809  0.00  0.00    +0.142 HD
ATOM     19  H   UNL     1      33.122 -20.236 -24.879  0.00  0.00    +0.142 HD
ENDBRANCH  12  17
ENDBRANCH   8  11
ENDBRANCH   2   9
BRANCH   1  20
ATOM     20  C   UNL     1      33.075 -23.239 -17.807  0.00  0.00    +0.119 C 
BRANCH  20  22
ATOM     21  O   UNL     1      32.175 -23.937 -15.135  0.00  0.00    -0.226 OA
ATOM     22  N   UNL     1      33.836 -23.207 -16.579  0.00  0.00    -0.267 N 
ATOM     23  C   UNL     1      33.321 -23.558 -15.350  0.00  0.00    +0.402 C 
ATOM     24  H   UNL     1      34.777 -22.918 -16.624  0.00  0.00    +0.153 HD
BRANCH  23  25
ATOM     25  O   UNL     1      34.285 -23.423 -14.391  0.00  0.00    -0.430 OA
BRANCH  25  26
ATOM     26  C   UNL     1      35.586 -23.050 -14.861  0.00  0.00    +0.238 C 
BRANCH  26  28
ATOM     27  N   UNL     1      38.376 -24.635 -12.885  0.00  0.00    -0.243 NA
ATOM     28  C   UNL     1      36.586 -24.065 -14.388  0.00  0.00    +0.040 C 
ATOM     29  C   UNL     1      36.655 -25.314 -14.980  0.00  0.00    +0.002 C 
ATOM     30  C   UNL     1      37.452 -23.769 -13.358  0.00  0.00    +0.098 C 
ATOM     31  C   UNL     1      37.591 -26.232 -14.521  0.00  0.00    +0.020 C 
ATOM     32  C   UNL     1      38.422 -25.848 -13.481  0.00  0.00    +0.099 C 
ENDBRANCH  26  28
ENDBRANCH  25  26
ENDBRANCH  23  25
ENDBRANCH  20  22
ENDBRANCH   1  20
TORSDOF 8
ENDMDL
MODEL 9
REMARK VINA RESULT:     -10.9      4.970     11.999
REMARK  Name = 4261
REMARK  8 active torsions:
REMARK  status: ('A' for Active; 'I' for Inactive)
REMARK    1  A    between atoms: C_1  and  C_20
REMARK    2  A    between atoms: C_2  and  C_9
REMARK    3  A    between atoms: N_8  and  C_11
REMARK    4  A    between atoms: C_12  and  N_17
REMARK    5  A    between atoms: C_20  and  N_22
REMARK    6  A    between atoms: C_23  and  O_25
REMARK    7  A    between atoms: O_25  and  C_26
REMARK    8  A    between atoms: C_26  and  C_28
REMARK                            x       y       z     vdW  Elec       q    Type
REMARK                         _______ _______ _______ _____ _____    ______ ____
ROOT
ATOM      1  C   UNL     1      33.496 -14.829 -24.727  0.00  0.00    -0.002 C 
ATOM      2  C   UNL     1      34.167 -17.279 -23.596  0.00  0.00    +0.054 C 
ATOM      3  C   UNL     1      34.162 -14.865 -23.507  0.00  0.00    -0.002 C 
ATOM      4  C   UNL     1      33.161 -16.006 -25.387  0.00  0.00    -0.002 C 
ATOM      5  C   UNL     1      34.499 -16.093 -22.941  0.00  0.00    +0.004 C 
ATOM      6  C   UNL     1      33.498 -17.235 -24.820  0.00  0.00    +0.004 C 
ENDROOT
BRANCH   2   9
ATOM      7  O   UNL     1      35.032 -19.434 -23.719  0.00  0.00    -0.270 OA
ATOM      8  N   UNL     1      34.255 -18.692 -21.632  0.00  0.00    -0.279 N 
ATOM      9  C   UNL     1      34.516 -18.560 -23.004  0.00  0.00    +0.250 C 
ATOM     10  H   UNL     1      33.841 -17.911 -21.199  0.00  0.00    +0.155 HD
BRANCH   8  11
ATOM     11  C   UNL     1      34.509 -19.801 -20.790  0.00  0.00    +0.064 C 
ATOM     12  C   UNL     1      33.461 -20.572 -20.312  0.00  0.00    +0.055 C 
ATOM     13  C   UNL     1      35.824 -20.090 -20.461  0.00  0.00    +0.016 C 
ATOM     14  C   UNL     1      33.737 -21.660 -19.483  0.00  0.00    +0.015 C 
ATOM     15  C   UNL     1      36.099 -21.177 -19.632  0.00  0.00    +0.001 C 
ATOM     16  C   UNL     1      35.055 -21.962 -19.143  0.00  0.00    +0.001 C 
BRANCH  12  17
ATOM     17  N   UNL     1      32.118 -20.285 -20.644  0.00  0.00    -0.356 N 
ATOM     18  H   UNL     1      31.879 -19.400 -21.002  0.00  0.00    +0.142 HD
ATOM     19  H   UNL     1      31.423 -20.969 -20.517  0.00  0.00    +0.142 HD
ENDBRANCH  12  17
ENDBRANCH   8  11
ENDBRANCH   2   9
BRANCH   1  20
ATOM     20  C   UNL     1      33.135 -13.507 -25.338  0.00  0.00    +0.119 C 
BRANCH  20  22
ATOM     21  O   UNL     1      32.710 -10.673 -25.811  0.00  0.00    -0.226 OA
ATOM     22  N   UNL     1      33.262 -12.422 -24.392  0.00  0.00    -0.267 N 
ATOM     23  C   UNL     1      33.039 -11.099 -24.710  0.00  0.00    +0.402 C 
ATOM     24  H   UNL     1      33.524 -12.640 -23.468  0.00  0.00    +0.153 HD
BRANCH  23  25
ATOM     25  O   UNL     1      33.240 -10.320 -23.606  0.00  0.00    -0.430 OA
BRANCH  25  26
ATOM     26  C   UNL     1      32.101  -9.583 -23.144  0.00  0.00    +0.238 C 
BRANCH  26  28
ATOM     27  N   UNL     1      32.005  -9.029 -19.419  0.00  0.00    -0.243 NA
ATOM     28  C   UNL     1      31.909  -9.846 -21.679  0.00  0.00    +0.040 C 
ATOM     29  C   UNL     1      31.480 -11.085 -21.237  0.00  0.00    +0.002 C 
ATOM     30  C   UNL     1      32.157  -8.858 -20.751  0.00  0.00    +0.098 C 
ATOM     31  C   UNL     1      31.312 -11.299 -19.874  0.00  0.00    +0.020 C 
ATOM     32  C   UNL     1      31.585 -10.248 -19.013  0.00  0.00    +0.099 C 
ENDBRANCH  26  28
ENDBRANCH  25  26
ENDBRANCH  23  25
ENDBRANCH  20  22
ENDBRANCH   1  20
TORSDOF 8
ENDMDL
