MODEL 1
REMARK VINA RESULT:     -11.6      0.000      0.000
REMARK  Name = 5496659
REMARK  9 active torsions:
REMARK  status: ('A' for Active; 'I' for Inactive)
REMARK    1  A    between atoms: C_1  and  N_4
REMARK    2  A    between atoms: C_1  and  C_20
REMARK    3  A    between atoms: C_5  and  C_7
REMARK    4  A    between atoms: C_10  and  C_15
REMARK    5  A    between atoms: C_20  and  C_22
REMARK    6  A    between atoms: C_20  and  C_25
REMARK    7  A    between atoms: C_22  and  O_23
REMARK    8  A    between atoms: C_25  and  C_26
REMARK    9  A    between atoms: C_29  and  C_34
REMARK                            x       y       z     vdW  Elec       q    Type
REMARK                         _______ _______ _______ _____ _____    ______ ____
ROOT
ATOM      1  C   UNL     1      33.017 -23.825 -16.207  0.00  0.00    +0.083 C 
ATOM      2  C   UNL     1      31.625 -23.705 -15.588  0.00  0.00    +0.022 C 
ENDROOT
BRANCH   1   4
ATOM      3  O   UNL     1      33.421 -24.200 -19.024  0.00  0.00    -0.270 OA
ATOM      4  N   UNL     1      33.214 -22.791 -17.195  0.00  0.00    -0.302 N 
ATOM      5  C   UNL     1      33.401 -23.072 -18.539  0.00  0.00    +0.246 C 
ATOM      6  H   UNL     1      33.215 -21.850 -16.903  0.00  0.00    +0.150 HD
BRANCH   5   7
ATOM      7  C   UNL     1      33.615 -21.898 -19.424  0.00  0.00    +0.053 C 
ATOM      8  C   UNL     1      34.910 -21.519 -19.779  0.00  0.00    +0.005 C 
ATOM      9  C   UNL     1      32.522 -21.174 -19.899  0.00  0.00    +0.005 C 
ATOM     10  C   UNL     1      34.017 -19.692 -21.084  0.00  0.00    +0.000 C 
ATOM     11  C   UNL     1      35.111 -20.416 -20.609  0.00  0.00    +0.000 C 
ATOM     12  C   UNL     1      32.722 -20.072 -20.729  0.00  0.00    +0.000 C 
BRANCH  10  15
ATOM     13  O   UNL     1      34.800 -15.331 -24.357  0.00  0.00    -0.163 OA
ATOM     14  N   UNL     1      34.620 -16.339 -23.601  0.00  0.00    -0.127 N 
ATOM     15  C   UNL     1      34.223 -18.547 -21.944  0.00  0.00    +0.003 C 
ATOM     16  C   UNL     1      33.935 -18.635 -23.302  0.00  0.00    +0.022 C 
ATOM     17  C   UNL     1      34.709 -17.357 -21.414  0.00  0.00    +0.022 C 
ATOM     18  C   UNL     1      34.137 -17.527 -24.117  0.00  0.00    +0.121 C 
ATOM     19  C   UNL     1      34.903 -16.263 -22.251  0.00  0.00    +0.121 C 
ENDBRANCH  10  15
ENDBRANCH   5   7
ENDBRANCH   1   4
BRANCH   1  20
ATOM     20  C   UNL     1      34.134 -23.846 -15.138  0.00  0.00    +0.121 C 
BRANCH  20  22
ATOM     21  O   UNL     1      35.322 -21.759 -14.721  0.00  0.00    -0.250 OA
ATOM     22  C   UNL     1      35.176 -22.764 -15.404  0.00  0.00    +0.319 C 
BRANCH  22  23
ATOM     23  O   UNL     1      35.907 -23.092 -16.510  0.00  0.00    -0.444 OA
ATOM     24  C   UNL     1      36.935 -22.162 -16.865  0.00  0.00    +0.256 C 
ENDBRANCH  22  23
ENDBRANCH  20  22
BRANCH  20  25
ATOM     25  C   UNL     1      34.821 -25.225 -15.045  0.00  0.00    +0.039 C 
BRANCH  25  26
ATOM     26  C   UNL     1      36.023 -25.219 -14.130  0.00  0.00    -0.021 C 
ATOM     27  C   UNL     1      37.297 -25.451 -14.650  0.00  0.00    -0.002 C 
ATOM     28  C   UNL     1      35.860 -24.985 -12.765  0.00  0.00    -0.004 C 
ATOM     29  C   UNL     1      38.406 -25.448 -13.805  0.00  0.00    +0.030 C 
ATOM     30  C   UNL     1      36.969 -24.981 -11.920  0.00  0.00    -0.000 C 
ATOM     31  C   UNL     1      38.242 -25.214 -12.440  0.00  0.00    +0.003 C 
BRANCH  29  34
ATOM     32  N   UNL     1      40.176 -26.984 -14.628  0.00  0.00    -0.343 N 
ATOM     33  N   UNL     1      40.546 -24.677 -14.578  0.00  0.00    -0.285 NA
ATOM     34  C   UNL     1      39.734 -25.692 -14.347  0.00  0.00    +0.117 C 
ATOM     35  H   UNL     1      41.078 -27.126 -14.995  0.00  0.00    +0.144 HD
ATOM     36  H   UNL     1      39.585 -27.754 -14.460  0.00  0.00    +0.144 HD
ATOM     37  H   UNL     1      41.446 -24.840 -14.945  0.00  0.00    +0.188 HD
ENDBRANCH  29  34
ENDBRANCH  25  26
ENDBRANCH  20  25
ENDBRANCH   1  20
TORSDOF 9
ENDMDL
MODEL 2
REMARK VINA RESULT:     -11.6      1.716      2.721
REMARK  Name = 5496659
REMARK  9 active torsions:
REMARK  status: ('A' for Active; 'I' for Inactive)
REMARK    1  A    between atoms: C_1  and  N_4
REMARK    2  A    between atoms: C_1  and  C_20
REMARK    3  A    between atoms: C_5  and  C_7
REMARK    4  A    between atoms: C_10  and  C_15
REMARK    5  A    between atoms: C_20  and  C_22
REMARK    6  A    between atoms: C_20  and  C_25
REMARK    7  A    between atoms: C_22  and  O_23
REMARK    8  A    between atoms: C_25  and  C_26
REMARK    9  A    between atoms: C_29  and  C_34
REMARK                            x       y       z     vdW  Elec       q    Type
REMARK                         _______ _______ _______ _____ _____    ______ ____
ROOT
ATOM      1  C   UNL     1      31.471 -23.733 -16.426  0.00  0.00    +0.083 C 
ATOM      2  C   UNL     1      30.149 -23.297 -15.797  0.00  0.00    +0.022 C 
ENDROOT
BRANCH   1   4
ATOM      3  O   UNL     1      33.412 -24.112 -18.507  0.00  0.00    -0.270 OA
ATOM      4  N   UNL     1      31.921 -22.743 -17.376  0.00  0.00    -0.302 N 
ATOM      5  C   UNL     1      32.868 -23.022 -18.350  0.00  0.00    +0.246 C 
ATOM      6  H   UNL     1      31.541 -21.835 -17.331  0.00  0.00    +0.150 HD
BRANCH   5   7
ATOM      7  C   UNL     1      33.242 -21.890 -19.235  0.00  0.00    +0.053 C 
ATOM      8  C   UNL     1      34.585 -21.627 -19.501  0.00  0.00    +0.005 C 
ATOM      9  C   UNL     1      32.250 -21.088 -19.799  0.00  0.00    +0.005 C 
ATOM     10  C   UNL     1      33.945 -19.762 -20.896  0.00  0.00    +0.000 C 
ATOM     11  C   UNL     1      34.937 -20.563 -20.331  0.00  0.00    +0.000 C 
ATOM     12  C   UNL     1      32.601 -20.025 -20.629  0.00  0.00    +0.000 C 
BRANCH  10  15
ATOM     13  O   UNL     1      35.323 -15.553 -24.172  0.00  0.00    -0.163 OA
ATOM     14  N   UNL     1      35.005 -16.526 -23.415  0.00  0.00    -0.127 N 
ATOM     15  C   UNL     1      34.308 -18.656 -21.756  0.00  0.00    +0.003 C 
ATOM     16  C   UNL     1      34.320 -18.824 -23.137  0.00  0.00    +0.022 C 
ATOM     17  C   UNL     1      34.643 -17.425 -21.204  0.00  0.00    +0.022 C 
ATOM     18  C   UNL     1      34.670 -17.754 -23.953  0.00  0.00    +0.121 C 
ATOM     19  C   UNL     1      34.989 -16.370 -22.042  0.00  0.00    +0.121 C 
ENDBRANCH  10  15
ENDBRANCH   5   7
ENDBRANCH   1   4
BRANCH   1  20
ATOM     20  C   UNL     1      32.544 -24.066 -15.363  0.00  0.00    +0.121 C 
BRANCH  20  22
ATOM     21  O   UNL     1      31.323 -25.568 -13.881  0.00  0.00    -0.250 OA
ATOM     22  C   UNL     1      31.905 -24.504 -14.049  0.00  0.00    +0.319 C 
BRANCH  22  23
ATOM     23  O   UNL     1      32.083 -23.534 -13.105  0.00  0.00    -0.444 OA
ATOM     24  C   UNL     1      30.905 -23.148 -12.390  0.00  0.00    +0.256 C 
ENDBRANCH  22  23
ENDBRANCH  20  22
BRANCH  20  25
ATOM     25  C   UNL     1      33.499 -22.880 -15.113  0.00  0.00    +0.039 C 
BRANCH  25  26
ATOM     26  C   UNL     1      34.954 -23.258 -15.266  0.00  0.00    -0.021 C 
ATOM     27  C   UNL     1      35.412 -24.483 -14.779  0.00  0.00    -0.002 C 
ATOM     28  C   UNL     1      35.841 -22.381 -15.892  0.00  0.00    -0.004 C 
ATOM     29  C   UNL     1      36.755 -24.830 -14.919  0.00  0.00    +0.030 C 
ATOM     30  C   UNL     1      37.183 -22.730 -16.032  0.00  0.00    -0.000 C 
ATOM     31  C   UNL     1      37.641 -23.953 -15.545  0.00  0.00    +0.003 C 
BRANCH  29  34
ATOM     32  N   UNL     1      36.442 -26.895 -13.575  0.00  0.00    -0.343 N 
ATOM     33  N   UNL     1      38.440 -26.533 -14.733  0.00  0.00    -0.285 NA
ATOM     34  C   UNL     1      37.233 -26.106 -14.409  0.00  0.00    +0.117 C 
ATOM     35  H   UNL     1      36.786 -27.755 -13.242  0.00  0.00    +0.144 HD
ATOM     36  H   UNL     1      35.541 -26.592 -13.321  0.00  0.00    +0.144 HD
ATOM     37  H   UNL     1      38.765 -27.397 -14.388  0.00  0.00    +0.188 HD
ENDBRANCH  29  34
ENDBRANCH  25  26
ENDBRANCH  20  25
ENDBRANCH   1  20
TORSDOF 9
ENDMDL
MODEL 3
REMARK VINA RESULT:     -11.3      2.864     10.887
REMARK  Name = 5496659
REMARK  9 active torsions:
REMARK  status: ('A' for Active; 'I' for Inactive)
REMARK    1  A    between atoms: C_1  and  N_4
REMARK    2  A    between atoms: C_1  and  C_20
REMARK    3  A    between atoms: C_5  and  C_7
REMARK    4  A    between atoms: C_10  and  C_15
REMARK    5  A    between atoms: C_20  and  C_22
REMARK    6  A    between atoms: C_20  and  C_25
REMARK    7  A    between atoms: C_22  and  O_23
REMARK    8  A    between atoms: C_25  and  C_26
REMARK    9  A    between atoms: C_29  and  C_34
REMARK                            x       y       z     vdW  Elec       q    Type
REMARK                         _______ _______ _______ _____ _____    ______ ____
ROOT
ATOM      1  C   UNL     1      36.004 -19.792 -20.975  0.00  0.00    +0.083 C 
ATOM      2  C   UNL     1      37.405 -19.303 -21.337  0.00  0.00    +0.022 C 
ENDROOT
BRANCH   1   4
ATOM      3  O   UNL     1      35.275 -22.472 -20.247  0.00  0.00    -0.270 OA
ATOM      4  N   UNL     1      36.001 -20.354 -19.644  0.00  0.00    -0.302 N 
ATOM      5  C   UNL     1      35.631 -21.666 -19.391  0.00  0.00    +0.246 C 
ATOM      6  H   UNL     1      36.271 -19.783 -18.888  0.00  0.00    +0.150 HD
BRANCH   5   7
ATOM      7  C   UNL     1      35.657 -22.083 -17.966  0.00  0.00    +0.053 C 
ATOM      8  C   UNL     1      34.532 -22.676 -17.393  0.00  0.00    +0.005 C 
ATOM      9  C   UNL     1      36.805 -21.883 -17.202  0.00  0.00    +0.005 C 
ATOM     10  C   UNL     1      35.706 -22.867 -15.289  0.00  0.00    +0.000 C 
ATOM     11  C   UNL     1      34.556 -23.068 -16.054  0.00  0.00    +0.000 C 
ATOM     12  C   UNL     1      36.830 -22.274 -15.864  0.00  0.00    +0.000 C 
BRANCH  10  15
ATOM     13  O   UNL     1      35.807 -24.409 -10.002  0.00  0.00    -0.163 OA
ATOM     14  N   UNL     1      35.783 -24.052 -11.224  0.00  0.00    -0.127 N 
ATOM     15  C   UNL     1      35.732 -23.271 -13.900  0.00  0.00    +0.003 C 
ATOM     16  C   UNL     1      34.686 -24.023 -13.374  0.00  0.00    +0.022 C 
ATOM     17  C   UNL     1      36.803 -22.910 -13.090  0.00  0.00    +0.022 C 
ATOM     18  C   UNL     1      34.724 -24.406 -12.038  0.00  0.00    +0.121 C 
ATOM     19  C   UNL     1      36.816 -23.306 -11.756  0.00  0.00    +0.121 C 
ENDBRANCH  10  15
ENDBRANCH   5   7
ENDBRANCH   1   4
BRANCH   1  20
ATOM     20  C   UNL     1      34.932 -18.692 -21.158  0.00  0.00    +0.121 C 
BRANCH  20  22
ATOM     21  O   UNL     1      33.056 -19.391 -22.548  0.00  0.00    -0.250 OA
ATOM     22  C   UNL     1      33.559 -19.296 -21.436  0.00  0.00    +0.319 C 
BRANCH  22  23
ATOM     23  O   UNL     1      32.991 -19.705 -20.264  0.00  0.00    -0.444 OA
ATOM     24  C   UNL     1      32.295 -20.955 -20.321  0.00  0.00    +0.256 C 
ENDBRANCH  22  23
ENDBRANCH  20  22
BRANCH  20  25
ATOM     25  C   UNL     1      35.307 -17.700 -22.279  0.00  0.00    +0.039 C 
BRANCH  25  26
ATOM     26  C   UNL     1      34.770 -16.309 -22.033  0.00  0.00    -0.021 C 
ATOM     27  C   UNL     1      34.425 -15.494 -23.111  0.00  0.00    -0.002 C 
ATOM     28  C   UNL     1      34.624 -15.839 -20.728  0.00  0.00    -0.004 C 
ATOM     29  C   UNL     1      33.933 -14.209 -22.883  0.00  0.00    +0.030 C 
ATOM     30  C   UNL     1      34.130 -14.555 -20.501  0.00  0.00    -0.000 C 
ATOM     31  C   UNL     1      33.786 -13.739 -21.578  0.00  0.00    +0.003 C 
BRANCH  29  34
ATOM     32  N   UNL     1      32.654 -13.776 -24.968  0.00  0.00    -0.343 N 
ATOM     33  N   UNL     1      34.128 -12.166 -24.132  0.00  0.00    -0.285 NA
ATOM     34  C   UNL     1      33.574 -13.358 -24.007  0.00  0.00    +0.117 C 
ATOM     35  H   UNL     1      32.427 -13.183 -25.721  0.00  0.00    +0.144 HD
ATOM     36  H   UNL     1      32.233 -14.662 -24.893  0.00  0.00    +0.144 HD
ATOM     37  H   UNL     1      33.886 -11.588 -24.893  0.00  0.00    +0.188 HD
ENDBRANCH  29  34
ENDBRANCH  25  26
ENDBRANCH  20  25
ENDBRANCH   1  20
TORSDOF 9
ENDMDL
MODEL 4
REMARK VINA RESULT:     -11.3      1.879      2.993
REMARK  Name = 5496659
REMARK  9 active torsions:
REMARK  status: ('A' for Active; 'I' for Inactive)
REMARK    1  A    between atoms: C_1  and  N_4
REMARK    2  A    between atoms: C_1  and  C_20
REMARK    3  A    between atoms: C_5  and  C_7
REMARK    4  A    between atoms: C_10  and  C_15
REMARK    5  A    between atoms: C_20  and  C_22
REMARK    6  A    between atoms: C_20  and  C_25
REMARK    7  A    between atoms: C_22  and  O_23
REMARK    8  A    between atoms: C_25  and  C_26
REMARK    9  A    between atoms: C_29  and  C_34
REMARK                            x       y       z     vdW  Elec       q    Type
REMARK                         _______ _______ _______ _____ _____    ______ ____
ROOT
ATOM      1  C   UNL     1      31.577 -23.817 -16.441  0.00  0.00    +0.083 C 
ATOM      2  C   UNL     1      30.061 -23.764 -16.253  0.00  0.00    +0.022 C 
ENDROOT
BRANCH   1   4
ATOM      3  O   UNL     1      33.455 -24.140 -18.588  0.00  0.00    -0.270 OA
ATOM      4  N   UNL     1      31.998 -22.802 -17.378  0.00  0.00    -0.302 N 
ATOM      5  C   UNL     1      32.915 -23.055 -18.387  0.00  0.00    +0.246 C 
ATOM      6  H   UNL     1      31.620 -21.896 -17.298  0.00  0.00    +0.150 HD
BRANCH   5   7
ATOM      7  C   UNL     1      33.264 -21.900 -19.252  0.00  0.00    +0.053 C 
ATOM      8  C   UNL     1      32.254 -21.109 -19.800  0.00  0.00    +0.005 C 
ATOM      9  C   UNL     1      34.600 -21.605 -19.517  0.00  0.00    +0.005 C 
ATOM     10  C   UNL     1      33.918 -19.729 -20.878  0.00  0.00    +0.000 C 
ATOM     11  C   UNL     1      32.580 -20.024 -20.613  0.00  0.00    +0.000 C 
ATOM     12  C   UNL     1      34.928 -20.520 -20.330  0.00  0.00    +0.000 C 
BRANCH  10  15
ATOM     13  O   UNL     1      35.220 -15.451 -24.094  0.00  0.00    -0.163 OA
ATOM     14  N   UNL     1      34.918 -16.439 -23.351  0.00  0.00    -0.127 N 
ATOM     15  C   UNL     1      34.259 -18.605 -21.723  0.00  0.00    +0.003 C 
ATOM     16  C   UNL     1      34.628 -17.392 -21.152  0.00  0.00    +0.022 C 
ATOM     17  C   UNL     1      34.218 -18.737 -23.106  0.00  0.00    +0.022 C 
ATOM     18  C   UNL     1      34.955 -16.320 -21.974  0.00  0.00    +0.121 C 
ATOM     19  C   UNL     1      34.550 -17.648 -23.908  0.00  0.00    +0.121 C 
ENDBRANCH  10  15
ENDBRANCH   5   7
ENDBRANCH   1   4
BRANCH   1  20
ATOM     20  C   UNL     1      32.337 -23.736 -15.097  0.00  0.00    +0.121 C 
BRANCH  20  22
ATOM     21  O   UNL     1      31.118 -21.840 -14.169  0.00  0.00    -0.250 OA
ATOM     22  C   UNL     1      31.525 -22.989 -14.044  0.00  0.00    +0.319 C 
BRANCH  22  23
ATOM     23  O   UNL     1      31.330 -23.792 -12.958  0.00  0.00    -0.444 OA
ATOM     24  C   UNL     1      31.125 -25.179 -13.247  0.00  0.00    +0.256 C 
ENDBRANCH  22  23
ENDBRANCH  20  22
BRANCH  20  25
ATOM     25  C   UNL     1      33.724 -23.078 -15.255  0.00  0.00    +0.039 C 
BRANCH  25  26
ATOM     26  C   UNL     1      34.836 -23.904 -14.650  0.00  0.00    -0.021 C 
ATOM     27  C   UNL     1      35.488 -23.459 -13.499  0.00  0.00    -0.002 C 
ATOM     28  C   UNL     1      35.212 -25.109 -15.243  0.00  0.00    -0.004 C 
ATOM     29  C   UNL     1      36.515 -24.220 -12.942  0.00  0.00    +0.030 C 
ATOM     30  C   UNL     1      36.239 -25.869 -14.685  0.00  0.00    -0.000 C 
ATOM     31  C   UNL     1      36.892 -25.425 -13.535  0.00  0.00    +0.003 C 
BRANCH  29  34
ATOM     32  N   UNL     1      36.501 -23.528 -10.557  0.00  0.00    -0.343 N 
ATOM     33  N   UNL     1      38.498 -23.536 -11.770  0.00  0.00    -0.285 NA
ATOM     34  C   UNL     1      37.196 -23.755 -11.744  0.00  0.00    +0.117 C 
ATOM     35  H   UNL     1      36.982 -23.214  -9.758  0.00  0.00    +0.144 HD
ATOM     36  H   UNL     1      35.530 -23.683 -10.518  0.00  0.00    +0.144 HD
ATOM     37  H   UNL     1      38.961 -23.221 -10.959  0.00  0.00    +0.188 HD
ENDBRANCH  29  34
ENDBRANCH  25  26
ENDBRANCH  20  25
ENDBRANCH   1  20
TORSDOF 9
ENDMDL
MODEL 5
REMARK VINA RESULT:     -10.7      3.919     10.973
REMARK  Name = 5496659
REMARK  9 active torsions:
REMARK  status: ('A' for Active; 'I' for Inactive)
REMARK    1  A    between atoms: C_1  and  N_4
REMARK    2  A    between atoms: C_1  and  C_20
REMARK    3  A    between atoms: C_5  and  C_7
REMARK    4  A    between atoms: C_10  and  C_15
REMARK    5  A    between atoms: C_20  and  C_22
REMARK    6  A    between atoms: C_20  and  C_25
REMARK    7  A    between atoms: C_22  and  O_23
REMARK    8  A    between atoms: C_25  and  C_26
REMARK    9  A    between atoms: C_29  and  C_34
REMARK                            x       y       z     vdW  Elec       q    Type
REMARK                         _______ _______ _______ _____ _____    ______ ____
ROOT
ATOM      1  C   UNL     1      35.630 -19.543 -22.061  0.00  0.00    +0.083 C 
ATOM      2  C   UNL     1      36.954 -18.913 -21.629  0.00  0.00    +0.022 C 
ENDROOT
BRANCH   1   4
ATOM      3  O   UNL     1      36.735 -21.624 -20.421  0.00  0.00    -0.270 OA
ATOM      4  N   UNL     1      34.992 -20.184 -20.935  0.00  0.00    -0.302 N 
ATOM      5  C   UNL     1      35.609 -21.185 -20.201  0.00  0.00    +0.246 C 
ATOM      6  H   UNL     1      34.085 -19.900 -20.679  0.00  0.00    +0.150 HD
BRANCH   5   7
ATOM      7  C   UNL     1      34.810 -21.760 -19.089  0.00  0.00    +0.053 C 
ATOM      8  C   UNL     1      35.434 -22.116 -17.893  0.00  0.00    +0.005 C 
ATOM      9  C   UNL     1      33.436 -21.945 -19.240  0.00  0.00    +0.005 C 
ATOM     10  C   UNL     1      33.309 -22.841 -17.000  0.00  0.00    +0.000 C 
ATOM     11  C   UNL     1      34.684 -22.657 -16.849  0.00  0.00    +0.000 C 
ATOM     12  C   UNL     1      32.686 -22.485 -18.197  0.00  0.00    +0.000 C 
BRANCH  10  15
ATOM     13  O   UNL     1      30.341 -24.979 -12.881  0.00  0.00    -0.163 OA
ATOM     14  N   UNL     1      31.027 -24.485 -13.834  0.00  0.00    -0.127 N 
ATOM     15  C   UNL     1      32.529 -23.403 -15.919  0.00  0.00    +0.003 C 
ATOM     16  C   UNL     1      33.165 -23.881 -14.778  0.00  0.00    +0.022 C 
ATOM     17  C   UNL     1      31.144 -23.466 -16.019  0.00  0.00    +0.022 C 
ATOM     18  C   UNL     1      32.405 -24.418 -13.745  0.00  0.00    +0.121 C 
ATOM     19  C   UNL     1      30.406 -24.008 -14.972  0.00  0.00    +0.121 C 
ENDBRANCH  10  15
ENDBRANCH   5   7
ENDBRANCH   1   4
BRANCH   1  20
ATOM     20  C   UNL     1      34.703 -18.530 -22.772  0.00  0.00    +0.121 C 
BRANCH  20  22
ATOM     21  O   UNL     1      34.568 -20.062 -24.664  0.00  0.00    -0.250 OA
ATOM     22  C   UNL     1      34.084 -19.133 -24.029  0.00  0.00    +0.319 C 
BRANCH  22  23
ATOM     23  O   UNL     1      32.923 -18.480 -24.328  0.00  0.00    -0.444 OA
ATOM     24  C   UNL     1      32.763 -18.106 -25.700  0.00  0.00    +0.256 C 
ENDBRANCH  22  23
ENDBRANCH  20  22
BRANCH  20  25
ATOM     25  C   UNL     1      35.439 -17.221 -23.125  0.00  0.00    +0.039 C 
BRANCH  25  26
ATOM     26  C   UNL     1      34.747 -15.994 -22.578  0.00  0.00    -0.021 C 
ATOM     27  C   UNL     1      34.187 -15.061 -23.451  0.00  0.00    -0.002 C 
ATOM     28  C   UNL     1      34.670 -15.793 -21.200  0.00  0.00    -0.004 C 
ATOM     29  C   UNL     1      33.550 -13.928 -22.946  0.00  0.00    +0.030 C 
ATOM     30  C   UNL     1      34.033 -14.660 -20.695  0.00  0.00    -0.000 C 
ATOM     31  C   UNL     1      33.473 -13.727 -21.568  0.00  0.00    +0.003 C 
BRANCH  29  34
ATOM     32  N   UNL     1      32.483 -13.332 -25.108  0.00  0.00    -0.343 N 
ATOM     33  N   UNL     1      32.895 -11.685 -23.503  0.00  0.00    -0.285 NA
ATOM     34  C   UNL     1      32.967 -12.955 -23.857  0.00  0.00    +0.117 C 
ATOM     35  H   UNL     1      32.093 -12.657 -25.709  0.00  0.00    +0.144 HD
ATOM     36  H   UNL     1      32.531 -14.274 -25.391  0.00  0.00    +0.144 HD
ATOM     37  H   UNL     1      32.501 -11.024 -24.119  0.00  0.00    +0.188 HD
ENDBRANCH  29  34
ENDBRANCH  25  26
ENDBRANCH  20  25
ENDBRANCH   1  20
TORSDOF 9
ENDMDL
MODEL 6
REMARK VINA RESULT:     -10.6      2.332      5.164
REMARK  Name = 5496659
REMARK  9 active torsions:
REMARK  status: ('A' for Active; 'I' for Inactive)
REMARK    1  A    between atoms: C_1  and  N_4
REMARK    2  A    between atoms: C_1  and  C_20
REMARK    3  A    between atoms: C_5  and  C_7
REMARK    4  A    between atoms: C_10  and  C_15
REMARK    5  A    between atoms: C_20  and  C_22
REMARK    6  A    between atoms: C_20  and  C_25
REMARK    7  A    between atoms: C_22  and  O_23
REMARK    8  A    between atoms: C_25  and  C_26
REMARK    9  A    between atoms: C_29  and  C_34
REMARK                            x       y       z     vdW  Elec       q    Type
REMARK                         _______ _______ _______ _____ _____    ______ ____
ROOT
ATOM      1  C   UNL     1      35.739 -24.098 -14.777  0.00  0.00    +0.083 C 
ATOM      2  C   UNL     1      35.625 -25.560 -15.206  0.00  0.00    +0.022 C 
ENDROOT
BRANCH   1   4
ATOM      3  O   UNL     1      33.722 -24.196 -16.817  0.00  0.00    -0.270 OA
ATOM      4  N   UNL     1      35.633 -23.231 -15.926  0.00  0.00    -0.302 N 
ATOM      5  C   UNL     1      34.618 -23.356 -16.862  0.00  0.00    +0.246 C 
ATOM      6  H   UNL     1      36.307 -22.524 -16.051  0.00  0.00    +0.150 HD
BRANCH   5   7
ATOM      7  C   UNL     1      34.663 -22.403 -18.000  0.00  0.00    +0.053 C 
ATOM      8  C   UNL     1      33.492 -22.080 -18.685  0.00  0.00    +0.005 C 
ATOM      9  C   UNL     1      35.876 -21.833 -18.384  0.00  0.00    +0.005 C 
ATOM     10  C   UNL     1      34.748 -20.614 -20.138  0.00  0.00    +0.000 C 
ATOM     11  C   UNL     1      33.535 -21.185 -19.755  0.00  0.00    +0.000 C 
ATOM     12  C   UNL     1      35.919 -20.938 -19.452  0.00  0.00    +0.000 C 
BRANCH  10  15
ATOM     13  O   UNL     1      34.923 -17.083 -24.363  0.00  0.00    -0.163 OA
ATOM     14  N   UNL     1      34.883 -17.900 -23.387  0.00  0.00    -0.127 N 
ATOM     15  C   UNL     1      34.795 -19.687 -21.248  0.00  0.00    +0.003 C 
ATOM     16  C   UNL     1      33.698 -19.559 -22.094  0.00  0.00    +0.022 C 
ATOM     17  C   UNL     1      35.935 -18.923 -21.471  0.00  0.00    +0.022 C 
ATOM     18  C   UNL     1      33.755 -18.664 -23.157  0.00  0.00    +0.121 C 
ATOM     19  C   UNL     1      35.966 -18.035 -22.541  0.00  0.00    +0.121 C 
ENDBRANCH  10  15
ENDBRANCH   5   7
ENDBRANCH   1   4
BRANCH   1  20
ATOM     20  C   UNL     1      34.731 -23.734 -13.662  0.00  0.00    +0.121 C 
BRANCH  20  22
ATOM     21  O   UNL     1      34.902 -24.080 -11.255  0.00  0.00    -0.250 OA
ATOM     22  C   UNL     1      35.409 -23.683 -12.296  0.00  0.00    +0.319 C 
BRANCH  22  23
ATOM     23  O   UNL     1      36.651 -23.130 -12.420  0.00  0.00    -0.444 OA
ATOM     24  C   UNL     1      37.736 -23.947 -11.969  0.00  0.00    +0.256 C 
ENDBRANCH  22  23
ENDBRANCH  20  22
BRANCH  20  25
ATOM     25  C   UNL     1      33.538 -24.711 -13.619  0.00  0.00    +0.039 C 
BRANCH  25  26
ATOM     26  C   UNL     1      32.231 -24.056 -14.004  0.00  0.00    -0.021 C 
ATOM     27  C   UNL     1      31.169 -24.835 -14.464  0.00  0.00    -0.002 C 
ATOM     28  C   UNL     1      32.088 -22.673 -13.900  0.00  0.00    -0.004 C 
ATOM     29  C   UNL     1      29.965 -24.230 -14.821  0.00  0.00    +0.030 C 
ATOM     30  C   UNL     1      30.883 -22.068 -14.256  0.00  0.00    -0.000 C 
ATOM     31  C   UNL     1      29.821 -22.847 -14.718  0.00  0.00    +0.003 C 
BRANCH  29  34
ATOM     32  N   UNL     1      28.493 -26.225 -14.662  0.00  0.00    -0.343 N 
ATOM     33  N   UNL     1      28.182 -24.663 -16.373  0.00  0.00    -0.285 NA
ATOM     34  C   UNL     1      28.858 -25.042 -15.304  0.00  0.00    +0.117 C 
ATOM     35  H   UNL     1      27.741 -26.759 -15.006  0.00  0.00    +0.144 HD
ATOM     36  H   UNL     1      28.988 -26.525 -13.866  0.00  0.00    +0.144 HD
ATOM     37  H   UNL     1      27.432 -25.212 -16.701  0.00  0.00    +0.188 HD
ENDBRANCH  29  34
ENDBRANCH  25  26
ENDBRANCH  20  25
ENDBRANCH   1  20
TORSDOF 9
ENDMDL
MODEL 7
REMARK VINA RESULT:     -10.6      2.461      3.810
REMARK  Name = 5496659
REMARK  9 active torsions:
REMARK  status: ('A' for Active; 'I' for Inactive)
REMARK    1  A    between atoms: C_1  and  N_4
REMARK    2  A    between atoms: C_1  and  C_20
REMARK    3  A    between atoms: C_5  and  C_7
REMARK    4  A    between atoms: C_10  and  C_15
REMARK    5  A    between atoms: C_20  and  C_22
REMARK    6  A    between atoms: C_20  and  C_25
REMARK    7  A    between atoms: C_22  and  O_23
REMARK    8  A    between atoms: C_25  and  C_26
REMARK    9  A    between atoms: C_29  and  C_34
REMARK                            x       y       z     vdW  Elec       q    Type
REMARK                         _______ _______ _______ _____ _____    ______ ____
ROOT
ATOM      1  C   UNL     1      35.403 -21.916 -17.466  0.00  0.00    +0.083 C 
ATOM      2  C   UNL     1      36.894 -22.244 -17.428  0.00  0.00    +0.022 C 
ENDROOT
BRANCH   1   4
ATOM      3  O   UNL     1      37.042 -20.074 -18.938  0.00  0.00    -0.270 OA
ATOM      4  N   UNL     1      35.067 -21.268 -18.713  0.00  0.00    -0.302 N 
ATOM      5  C   UNL     1      35.929 -20.390 -19.351  0.00  0.00    +0.246 C 
ATOM      6  H   UNL     1      34.193 -21.458 -19.125  0.00  0.00    +0.150 HD
BRANCH   5   7
ATOM      7  C   UNL     1      35.426 -19.788 -20.612  0.00  0.00    +0.053 C 
ATOM      8  C   UNL     1      36.282 -19.038 -21.417  0.00  0.00    +0.005 C 
ATOM      9  C   UNL     1      34.097 -19.973 -20.991  0.00  0.00    +0.005 C 
ATOM     10  C   UNL     1      34.480 -18.657 -22.980  0.00  0.00    +0.000 C 
ATOM     11  C   UNL     1      35.810 -18.472 -22.602  0.00  0.00    +0.000 C 
ATOM     12  C   UNL     1      33.623 -19.408 -22.174  0.00  0.00    +0.000 C 
BRANCH  10  15
ATOM     13  O   UNL     1      32.607 -16.421 -27.653  0.00  0.00    -0.163 OA
ATOM     14  N   UNL     1      33.039 -16.937 -26.572  0.00  0.00    -0.127 N 
ATOM     15  C   UNL     1      33.987 -18.070 -24.207  0.00  0.00    +0.003 C 
ATOM     16  C   UNL     1      34.334 -16.765 -24.543  0.00  0.00    +0.022 C 
ATOM     17  C   UNL     1      33.167 -18.808 -25.053  0.00  0.00    +0.022 C 
ATOM     18  C   UNL     1      33.855 -16.212 -25.725  0.00  0.00    +0.121 C 
ATOM     19  C   UNL     1      32.700 -18.232 -26.230  0.00  0.00    +0.121 C 
ENDBRANCH  10  15
ENDBRANCH   5   7
ENDBRANCH   1   4
BRANCH   1  20
ATOM     20  C   UNL     1      34.522 -23.155 -17.185  0.00  0.00    +0.121 C 
BRANCH  20  22
ATOM     21  O   UNL     1      33.331 -23.889 -19.181  0.00  0.00    -0.250 OA
ATOM     22  C   UNL     1      33.343 -23.228 -18.150  0.00  0.00    +0.319 C 
BRANCH  22  23
ATOM     23  O   UNL     1      32.321 -22.450 -17.688  0.00  0.00    -0.444 OA
ATOM     24  C   UNL     1      31.338 -23.130 -16.900  0.00  0.00    +0.256 C 
ENDBRANCH  22  23
ENDBRANCH  20  22
BRANCH  20  25
ATOM     25  C   UNL     1      34.010 -23.182 -15.729  0.00  0.00    +0.039 C 
BRANCH  25  26
ATOM     26  C   UNL     1      34.844 -24.068 -14.832  0.00  0.00    -0.021 C 
ATOM     27  C   UNL     1      34.918 -23.805 -13.464  0.00  0.00    -0.002 C 
ATOM     28  C   UNL     1      35.542 -25.148 -15.373  0.00  0.00    -0.004 C 
ATOM     29  C   UNL     1      35.689 -24.621 -12.638  0.00  0.00    +0.030 C 
ATOM     30  C   UNL     1      36.312 -25.965 -14.546  0.00  0.00    -0.000 C 
ATOM     31  C   UNL     1      36.387 -25.701 -13.179  0.00  0.00    +0.003 C 
BRANCH  29  34
ATOM     32  N   UNL     1      36.636 -23.378 -10.707  0.00  0.00    -0.343 N 
ATOM     33  N   UNL     1      35.009 -25.022 -10.368  0.00  0.00    -0.285 NA
ATOM     34  C   UNL     1      35.768 -24.345 -11.212  0.00  0.00    +0.117 C 
ATOM     35  H   UNL     1      36.672 -23.208  -9.739  0.00  0.00    +0.144 HD
ATOM     36  H   UNL     1      37.211 -22.865 -11.320  0.00  0.00    +0.144 HD
ATOM     37  H   UNL     1      35.061 -24.836  -9.402  0.00  0.00    +0.188 HD
ENDBRANCH  29  34
ENDBRANCH  25  26
ENDBRANCH  20  25
ENDBRANCH   1  20
TORSDOF 9
ENDMDL
MODEL 8
REMARK VINA RESULT:     -10.6      4.784     13.136
REMARK  Name = 5496659
REMARK  9 active torsions:
REMARK  status: ('A' for Active; 'I' for Inactive)
REMARK    1  A    between atoms: C_1  and  N_4
REMARK    2  A    between atoms: C_1  and  C_20
REMARK    3  A    between atoms: C_5  and  C_7
REMARK    4  A    between atoms: C_10  and  C_15
REMARK    5  A    between atoms: C_20  and  C_22
REMARK    6  A    between atoms: C_20  and  C_25
REMARK    7  A    between atoms: C_22  and  O_23
REMARK    8  A    between atoms: C_25  and  C_26
REMARK    9  A    between atoms: C_29  and  C_34
REMARK                            x       y       z     vdW  Elec       q    Type
REMARK                         _______ _______ _______ _____ _____    ______ ____
ROOT
ATOM      1  C   UNL     1      32.751 -14.051 -26.165  0.00  0.00    +0.083 C 
ATOM      2  C   UNL     1      33.815 -14.037 -27.262  0.00  0.00    +0.022 C 
ENDROOT
BRANCH   1   4
ATOM      3  O   UNL     1      34.159 -16.513 -26.607  0.00  0.00    -0.270 OA
ATOM      4  N   UNL     1      33.069 -15.052 -25.175  0.00  0.00    -0.302 N 
ATOM      5  C   UNL     1      33.757 -16.215 -25.486  0.00  0.00    +0.246 C 
ATOM      6  H   UNL     1      32.787 -14.904 -24.243  0.00  0.00    +0.150 HD
BRANCH   5   7
ATOM      7  C   UNL     1      33.984 -17.156 -24.360  0.00  0.00    +0.053 C 
ATOM      8  C   UNL     1      33.618 -18.496 -24.486  0.00  0.00    +0.005 C 
ATOM      9  C   UNL     1      34.562 -16.700 -23.176  0.00  0.00    +0.005 C 
ATOM     10  C   UNL     1      34.409 -18.923 -22.243  0.00  0.00    +0.000 C 
ATOM     11  C   UNL     1      33.830 -19.380 -23.427  0.00  0.00    +0.000 C 
ATOM     12  C   UNL     1      34.775 -17.582 -22.117  0.00  0.00    +0.000 C 
BRANCH  10  15
ATOM     13  O   UNL     1      35.245 -22.402 -18.055  0.00  0.00    -0.163 OA
ATOM     14  N   UNL     1      35.052 -21.599 -19.024  0.00  0.00    -0.127 N 
ATOM     15  C   UNL     1      34.628 -19.838 -21.144  0.00  0.00    +0.003 C 
ATOM     16  C   UNL     1      35.919 -20.074 -20.682  0.00  0.00    +0.022 C 
ATOM     17  C   UNL     1      33.550 -20.481 -20.547  0.00  0.00    +0.022 C 
ATOM     18  C   UNL     1      36.117 -20.954 -19.624  0.00  0.00    +0.121 C 
ATOM     19  C   UNL     1      33.774 -21.357 -19.490  0.00  0.00    +0.121 C 
ENDBRANCH  10  15
ENDBRANCH   5   7
ENDBRANCH   1   4
BRANCH   1  20
ATOM     20  C   UNL     1      32.529 -12.652 -25.546  0.00  0.00    +0.121 C 
BRANCH  20  22
ATOM     21  O   UNL     1      31.921 -11.361 -27.522  0.00  0.00    -0.250 OA
ATOM     22  C   UNL     1      32.691 -11.551 -26.589  0.00  0.00    +0.319 C 
BRANCH  22  23
ATOM     23  O   UNL     1      33.816 -10.825 -26.320  0.00  0.00    -0.444 OA
ATOM     24  C   UNL     1      33.628  -9.409 -26.235  0.00  0.00    +0.256 C 
ENDBRANCH  22  23
ENDBRANCH  20  22
BRANCH  20  25
ATOM     25  C   UNL     1      33.474 -12.390 -24.355  0.00  0.00    +0.039 C 
BRANCH  25  26
ATOM     26  C   UNL     1      32.734 -12.019 -23.090  0.00  0.00    -0.021 C 
ATOM     27  C   UNL     1      32.331 -10.700 -22.879  0.00  0.00    -0.002 C 
ATOM     28  C   UNL     1      32.456 -12.995 -22.133  0.00  0.00    -0.004 C 
ATOM     29  C   UNL     1      31.650 -10.358 -21.712  0.00  0.00    +0.030 C 
ATOM     30  C   UNL     1      31.775 -12.652 -20.966  0.00  0.00    -0.000 C 
ATOM     31  C   UNL     1      31.372 -11.334 -20.754  0.00  0.00    +0.003 C 
BRANCH  29  34
ATOM     32  N   UNL     1      31.265  -8.409 -20.220  0.00  0.00    -0.343 N 
ATOM     33  N   UNL     1      30.805  -8.254 -22.506  0.00  0.00    -0.285 NA
ATOM     34  C   UNL     1      31.231  -8.982 -21.491  0.00  0.00    +0.117 C 
ATOM     35  H   UNL     1      30.977  -7.477 -20.093  0.00  0.00    +0.144 HD
ATOM     36  H   UNL     1      31.578  -8.938 -19.450  0.00  0.00    +0.144 HD
ATOM     37  H   UNL     1      30.521  -7.321 -22.358  0.00  0.00    +0.188 HD
ENDBRANCH  29  34
ENDBRANCH  25  26
ENDBRANCH  20  25
ENDBRANCH   1  20
TORSDOF 9
ENDMDL
MODEL 9
REMARK VINA RESULT:     -10.4      4.006     11.074
REMARK  Name = 5496659
REMARK  9 active torsions:
REMARK  status: ('A' for Active; 'I' for Inactive)
REMARK    1  A    between atoms: C_1  and  N_4
REMARK    2  A    between atoms: C_1  and  C_20
REMARK    3  A    between atoms: C_5  and  C_7
REMARK    4  A    between atoms: C_10  and  C_15
REMARK    5  A    between atoms: C_20  and  C_22
REMARK    6  A    between atoms: C_20  and  C_25
REMARK    7  A    between atoms: C_22  and  O_23
REMARK    8  A    between atoms: C_25  and  C_26
REMARK    9  A    between atoms: C_29  and  C_34
REMARK                            x       y       z     vdW  Elec       q    Type
REMARK                         _______ _______ _______ _____ _____    ______ ____
ROOT
ATOM      1  C   UNL     1      35.420 -19.334 -22.408  0.00  0.00    +0.083 C 
ATOM      2  C   UNL     1      36.737 -18.698 -21.968  0.00  0.00    +0.022 C 
ENDROOT
BRANCH   1   4
ATOM      3  O   UNL     1      36.707 -21.083 -20.531  0.00  0.00    -0.270 OA
ATOM      4  N   UNL     1      34.798 -20.013 -21.296  0.00  0.00    -0.302 N 
ATOM      5  C   UNL     1      35.506 -20.842 -20.440  0.00  0.00    +0.246 C 
ATOM      6  H   UNL     1      33.834 -19.883 -21.140  0.00  0.00    +0.150 HD
BRANCH   5   7
ATOM      7  C   UNL     1      34.716 -21.486 -19.360  0.00  0.00    +0.053 C 
ATOM      8  C   UNL     1      35.364 -22.019 -18.245  0.00  0.00    +0.005 C 
ATOM      9  C   UNL     1      33.327 -21.558 -19.460  0.00  0.00    +0.005 C 
ATOM     10  C   UNL     1      33.232 -22.697 -17.331  0.00  0.00    +0.000 C 
ATOM     11  C   UNL     1      34.622 -22.625 -17.231  0.00  0.00    +0.000 C 
ATOM     12  C   UNL     1      32.585 -22.164 -18.446  0.00  0.00    +0.000 C 
BRANCH  10  15
ATOM     13  O   UNL     1      30.297 -25.097 -13.336  0.00  0.00    -0.163 OA
ATOM     14  N   UNL     1      30.975 -24.542 -14.259  0.00  0.00    -0.127 N 
ATOM     15  C   UNL     1      32.461 -23.327 -16.281  0.00  0.00    +0.003 C 
ATOM     16  C   UNL     1      31.077 -23.403 -16.385  0.00  0.00    +0.022 C 
ATOM     17  C   UNL     1      33.104 -23.857 -15.168  0.00  0.00    +0.022 C 
ATOM     18  C   UNL     1      30.347 -24.012 -15.370  0.00  0.00    +0.121 C 
ATOM     19  C   UNL     1      32.351 -24.460 -14.166  0.00  0.00    +0.121 C 
ENDBRANCH  10  15
ENDBRANCH   5   7
ENDBRANCH   1   4
BRANCH   1  20
ATOM     20  C   UNL     1      34.474 -18.315 -23.086  0.00  0.00    +0.121 C 
BRANCH  20  22
ATOM     21  O   UNL     1      34.292 -19.839 -24.980  0.00  0.00    -0.250 OA
ATOM     22  C   UNL     1      33.832 -18.902 -24.339  0.00  0.00    +0.319 C 
BRANCH  22  23
ATOM     23  O   UNL     1      32.682 -18.225 -24.627  0.00  0.00    -0.444 OA
ATOM     24  C   UNL     1      32.577 -17.733 -25.967  0.00  0.00    +0.256 C 
ENDBRANCH  22  23
ENDBRANCH  20  22
BRANCH  20  25
ATOM     25  C   UNL     1      35.198 -16.997 -23.435  0.00  0.00    +0.039 C 
BRANCH  25  26
ATOM     26  C   UNL     1      34.567 -15.791 -22.778  0.00  0.00    -0.021 C 
ATOM     27  C   UNL     1      33.998 -14.787 -23.562  0.00  0.00    -0.002 C 
ATOM     28  C   UNL     1      34.556 -15.681 -21.387  0.00  0.00    -0.004 C 
ATOM     29  C   UNL     1      33.419 -13.674 -22.955  0.00  0.00    +0.030 C 
ATOM     30  C   UNL     1      33.975 -14.567 -20.781  0.00  0.00    -0.000 C 
ATOM     31  C   UNL     1      33.407 -13.563 -21.565  0.00  0.00    +0.003 C 
BRANCH  29  34
ATOM     32  N   UNL     1      32.705 -11.320 -23.301  0.00  0.00    -0.343 N 
ATOM     33  N   UNL     1      32.391 -12.907 -24.988  0.00  0.00    -0.285 NA
ATOM     34  C   UNL     1      32.827 -12.626 -23.773  0.00  0.00    +0.117 C 
ATOM     35  H   UNL     1      32.301 -10.627 -23.871  0.00  0.00    +0.144 HD
ATOM     36  H   UNL     1      33.021 -11.092 -22.397  0.00  0.00    +0.144 HD
ATOM     37  H   UNL     1      31.990 -12.198 -25.543  0.00  0.00    +0.188 HD
ENDBRANCH  29  34
ENDBRANCH  25  26
ENDBRANCH  20  25
ENDBRANCH   1  20
TORSDOF 9
ENDMDL
