MODEL 1
REMARK VINA RESULT:     -12.6      0.000      0.000
REMARK  Name = 24778473
REMARK  2 active torsions:
REMARK  status: ('A' for Active; 'I' for Inactive)
REMARK    1  A    between atoms: C_11  and  C_22
REMARK    2  A    between atoms: C_17  and  N_29
REMARK                            x       y       z     vdW  Elec       q    Type
REMARK                         _______ _______ _______ _____ _____    ______ ____
ROOT
ATOM      1  O   UNL     1      32.462 -22.405 -18.225  0.00  0.00    -0.270 OA
ATOM      2  O   UNL     1      36.586 -22.979 -16.268  0.00  0.00    -0.270 OA
ATOM      3  N   UNL     1      30.912 -24.843 -13.818  0.00  0.00    -0.353 N 
ATOM      4  N   UNL     1      34.687 -22.523 -17.543  0.00  0.00    -0.248 N 
ATOM      5  C   UNL     1      31.962 -23.852 -15.526  0.00  0.00    +0.022 A 
ATOM      6  C   UNL     1      33.128 -23.402 -16.158  0.00  0.00    +0.060 C 
ATOM      7  C   UNL     1      32.152 -24.473 -14.280  0.00  0.00    +0.057 A 
ATOM      8  C   UNL     1      30.552 -23.865 -15.794  0.00  0.00    +0.018 A 
ATOM      9  C   UNL     1      34.380 -23.572 -15.569  0.00  0.00    +0.058 C 
ATOM     10  C   UNL     1      29.930 -24.489 -14.709  0.00  0.00    +0.057 A 
ATOM     11  C   UNL     1      34.555 -24.183 -14.348  0.00  0.00    +0.007 C 
ATOM     12  C   UNL     1      33.419 -24.647 -13.681  0.00  0.00    +0.017 C 
ATOM     13  C   UNL     1      33.330 -22.722 -17.436  0.00  0.00    +0.252 C 
ATOM     14  C   UNL     1      35.386 -23.005 -16.465  0.00  0.00    +0.252 C 
ATOM     15  C   UNL     1      29.730 -23.411 -16.849  0.00  0.00    +0.016 C 
ATOM     16  C   UNL     1      28.545 -24.680 -14.628  0.00  0.00    +0.018 C 
ATOM     17  C   UNL     1      28.343 -23.594 -16.783  0.00  0.00    +0.051 C 
ATOM     18  C   UNL     1      27.760 -24.220 -15.686  0.00  0.00    +0.016 C 
ATOM     19  H   UNL     1      30.751 -25.300 -12.962  0.00  0.00    +0.166 HD
ATOM     20  H   UNL     1      35.113 -22.081 -18.312  0.00  0.00    +0.158 HD
ENDROOT
BRANCH  11  22
ATOM     21 CL   UNL     1      36.218 -26.625 -15.226  0.00  0.00    -0.082 Cl
ATOM     22  C   UNL     1      35.856 -24.357 -13.739  0.00  0.00    +0.011 C 
ATOM     23  C   UNL     1      36.685 -25.428 -14.069  0.00  0.00    +0.058 C 
ATOM     24  C   UNL     1      36.274 -23.413 -12.800  0.00  0.00    +0.001 C 
ATOM     25  C   UNL     1      37.933 -25.558 -13.459  0.00  0.00    +0.011 C 
ATOM     26  C   UNL     1      37.521 -23.544 -12.190  0.00  0.00    +0.000 C 
ATOM     27  C   UNL     1      38.351 -24.615 -12.520  0.00  0.00    +0.001 C 
ENDBRANCH  11  22
BRANCH  17  29
ATOM     28  O   UNL     1      25.985 -21.685 -16.796  0.00  0.00    -0.265 OA
ATOM     29  N   UNL     1      27.538 -23.143 -17.829  0.00  0.00    -0.277 N 
ATOM     30  C   UNL     1      26.465 -22.260 -17.763  0.00  0.00    +0.303 C 
ATOM     31  H   UNL     1      27.756 -23.491 -18.723  0.00  0.00    +0.155 HD
ENDBRANCH  17  29
TORSDOF 2
ENDMDL
MODEL 2
REMARK VINA RESULT:     -12.1      9.518     11.705
REMARK  Name = 24778473
REMARK  2 active torsions:
REMARK  status: ('A' for Active; 'I' for Inactive)
REMARK    1  A    between atoms: C_11  and  C_22
REMARK    2  A    between atoms: C_17  and  N_29
REMARK                            x       y       z     vdW  Elec       q    Type
REMARK                         _______ _______ _______ _____ _____    ______ ____
ROOT
ATOM      1  O   UNL     1      33.678 -16.832 -26.537  0.00  0.00    -0.270 OA
ATOM      2  O   UNL     1      34.804 -20.406 -23.867  0.00  0.00    -0.270 OA
ATOM      3  N   UNL     1      34.191 -14.269 -21.962  0.00  0.00    -0.353 N 
ATOM      4  N   UNL     1      34.216 -18.849 -25.502  0.00  0.00    -0.248 N 
ATOM      5  C   UNL     1      34.075 -15.702 -23.675  0.00  0.00    +0.022 A 
ATOM      6  C   UNL     1      34.178 -16.993 -24.206  0.00  0.00    +0.060 C 
ATOM      7  C   UNL     1      34.338 -15.592 -22.300  0.00  0.00    +0.057 A 
ATOM      8  C   UNL     1      33.761 -14.385 -24.152  0.00  0.00    +0.018 A 
ATOM      9  C   UNL     1      34.520 -18.080 -23.402  0.00  0.00    +0.058 C 
ATOM     10  C   UNL     1      33.843 -13.519 -23.058  0.00  0.00    +0.057 A 
ATOM     11  C   UNL     1      34.775 -17.961 -22.055  0.00  0.00    +0.007 C 
ATOM     12  C   UNL     1      34.685 -16.690 -21.482  0.00  0.00    +0.017 C 
ATOM     13  C   UNL     1      33.982 -17.495 -25.566  0.00  0.00    +0.252 C 
ATOM     14  C   UNL     1      34.543 -19.277 -24.240  0.00  0.00    +0.252 C 
ATOM     15  C   UNL     1      33.413 -13.830 -25.403  0.00  0.00    +0.016 C 
ATOM     16  C   UNL     1      33.597 -12.143 -23.153  0.00  0.00    +0.018 C 
ATOM     17  C   UNL     1      33.164 -12.457 -25.514  0.00  0.00    +0.051 C 
ATOM     18  C   UNL     1      33.256 -11.625 -24.403  0.00  0.00    +0.016 C 
ATOM     19  H   UNL     1      34.317 -13.907 -21.056  0.00  0.00    +0.166 HD
ATOM     20  H   UNL     1      34.155 -19.449 -26.279  0.00  0.00    +0.158 HD
ENDROOT
BRANCH  11  22
ATOM     21 CL   UNL     1      32.486 -19.779 -21.074  0.00  0.00    -0.082 Cl
ATOM     22  C   UNL     1      35.131 -19.090 -21.223  0.00  0.00    +0.011 C 
ATOM     23  C   UNL     1      34.170 -19.973 -20.730  0.00  0.00    +0.058 C 
ATOM     24  C   UNL     1      36.478 -19.286 -20.921  0.00  0.00    +0.001 C 
ATOM     25  C   UNL     1      34.556 -21.050 -19.932  0.00  0.00    +0.011 C 
ATOM     26  C   UNL     1      36.864 -20.363 -20.123  0.00  0.00    +0.000 C 
ATOM     27  C   UNL     1      35.903 -21.245 -19.629  0.00  0.00    +0.001 C 
ENDBRANCH  11  22
BRANCH  17  29
ATOM     28  O   UNL     1      31.043 -13.278 -27.521  0.00  0.00    -0.265 OA
ATOM     29  N   UNL     1      32.820 -11.916 -26.754  0.00  0.00    -0.277 N 
ATOM     30  C   UNL     1      31.828 -12.347 -27.628  0.00  0.00    +0.303 C 
ATOM     31  H   UNL     1      33.343 -11.135 -27.044  0.00  0.00    +0.155 HD
ENDBRANCH  17  29
TORSDOF 2
ENDMDL
MODEL 3
REMARK VINA RESULT:     -11.6      2.337      7.567
REMARK  Name = 24778473
REMARK  2 active torsions:
REMARK  status: ('A' for Active; 'I' for Inactive)
REMARK    1  A    between atoms: C_11  and  C_22
REMARK    2  A    between atoms: C_17  and  N_29
REMARK                            x       y       z     vdW  Elec       q    Type
REMARK                         _______ _______ _______ _____ _____    ______ ____
ROOT
ATOM      1  O   UNL     1      35.757 -23.068 -17.082  0.00  0.00    -0.270 OA
ATOM      2  O   UNL     1      31.266 -22.462 -17.877  0.00  0.00    -0.270 OA
ATOM      3  N   UNL     1      33.898 -24.796 -12.465  0.00  0.00    -0.353 N 
ATOM      4  N   UNL     1      33.592 -22.631 -17.824  0.00  0.00    -0.248 N 
ATOM      5  C   UNL     1      34.276 -23.998 -14.519  0.00  0.00    +0.022 A 
ATOM      6  C   UNL     1      33.825 -23.481 -15.739  0.00  0.00    +0.060 C 
ATOM      7  C   UNL     1      33.273 -24.308 -13.586  0.00  0.00    +0.057 A 
ATOM      8  C   UNL     1      35.535 -24.320 -13.909  0.00  0.00    +0.018 A 
ATOM      9  C   UNL     1      32.465 -23.296 -15.986  0.00  0.00    +0.058 C 
ATOM     10  C   UNL     1      35.261 -24.815 -12.631  0.00  0.00    +0.057 A 
ATOM     11  C   UNL     1      31.490 -23.603 -15.064  0.00  0.00    +0.007 C 
ATOM     12  C   UNL     1      31.895 -24.122 -13.832  0.00  0.00    +0.017 C 
ATOM     13  C   UNL     1      34.552 -23.049 -16.932  0.00  0.00    +0.252 C 
ATOM     14  C   UNL     1      32.316 -22.747 -17.332  0.00  0.00    +0.252 C 
ATOM     15  C   UNL     1      36.888 -24.244 -14.306  0.00  0.00    +0.016 C 
ATOM     16  C   UNL     1      36.260 -25.232 -11.742  0.00  0.00    +0.018 C 
ATOM     17  C   UNL     1      37.898 -24.658 -13.429  0.00  0.00    +0.051 C 
ATOM     18  C   UNL     1      37.587 -25.145 -12.164  0.00  0.00    +0.016 C 
ATOM     19  H   UNL     1      33.431 -25.093 -11.651  0.00  0.00    +0.166 HD
ATOM     20  H   UNL     1      33.798 -22.285 -18.722  0.00  0.00    +0.158 HD
ENDROOT
BRANCH  11  22
ATOM     21 CL   UNL     1      29.909 -26.010 -16.164  0.00  0.00    -0.082 Cl
ATOM     22  C   UNL     1      30.079 -23.411 -15.324  0.00  0.00    +0.011 C 
ATOM     23  C   UNL     1      29.277 -24.438 -15.821  0.00  0.00    +0.058 C 
ATOM     24  C   UNL     1      29.526 -22.158 -15.060  0.00  0.00    +0.001 C 
ATOM     25  C   UNL     1      27.920 -24.212 -16.056  0.00  0.00    +0.011 C 
ATOM     26  C   UNL     1      28.170 -21.932 -15.296  0.00  0.00    +0.000 C 
ATOM     27  C   UNL     1      27.367 -22.958 -15.793  0.00  0.00    +0.001 C 
ENDBRANCH  11  22
BRANCH  17  29
ATOM     28  O   UNL     1      39.690 -26.698 -14.782  0.00  0.00    -0.265 OA
ATOM     29  N   UNL     1      39.233 -24.580 -13.829  0.00  0.00    -0.277 N 
ATOM     30  C   UNL     1      39.998 -25.562 -14.450  0.00  0.00    +0.303 C 
ATOM     31  H   UNL     1      39.688 -23.726 -13.651  0.00  0.00    +0.155 HD
ENDBRANCH  17  29
TORSDOF 2
ENDMDL
MODEL 4
REMARK VINA RESULT:     -11.5      9.713     11.934
REMARK  Name = 24778473
REMARK  2 active torsions:
REMARK  status: ('A' for Active; 'I' for Inactive)
REMARK    1  A    between atoms: C_11  and  C_22
REMARK    2  A    between atoms: C_17  and  N_29
REMARK                            x       y       z     vdW  Elec       q    Type
REMARK                         _______ _______ _______ _____ _____    ______ ____
ROOT
ATOM      1  O   UNL     1      33.886 -13.333 -22.600  0.00  0.00    -0.270 OA
ATOM      2  O   UNL     1      35.242 -16.675 -19.744  0.00  0.00    -0.270 OA
ATOM      3  N   UNL     1      33.339 -17.431 -25.865  0.00  0.00    -0.353 N 
ATOM      4  N   UNL     1      34.622 -14.747 -20.900  0.00  0.00    -0.248 N 
ATOM      5  C   UNL     1      33.701 -15.985 -24.199  0.00  0.00    +0.022 A 
ATOM      6  C   UNL     1      34.093 -15.696 -22.886  0.00  0.00    +0.060 C 
ATOM      7  C   UNL     1      33.754 -17.342 -24.559  0.00  0.00    +0.057 A 
ATOM      8  C   UNL     1      33.237 -15.261 -25.347  0.00  0.00    +0.018 A 
ATOM      9  C   UNL     1      34.503 -16.705 -22.015  0.00  0.00    +0.058 C 
ATOM     10  C   UNL     1      33.021 -16.193 -26.365  0.00  0.00    +0.057 A 
ATOM     11  C   UNL     1      34.552 -18.031 -22.380  0.00  0.00    +0.007 C 
ATOM     12  C   UNL     1      34.169 -18.367 -23.681  0.00  0.00    +0.017 C 
ATOM     13  C   UNL     1      34.170 -14.429 -22.160  0.00  0.00    +0.252 C 
ATOM     14  C   UNL     1      34.845 -16.090 -20.734  0.00  0.00    +0.252 C 
ATOM     15  C   UNL     1      32.974 -13.903 -25.635  0.00  0.00    +0.016 C 
ATOM     16  C   UNL     1      32.562 -15.840 -27.641  0.00  0.00    +0.018 C 
ATOM     17  C   UNL     1      32.514 -13.534 -26.905  0.00  0.00    +0.051 C 
ATOM     18  C   UNL     1      32.311 -14.491 -27.894  0.00  0.00    +0.016 C 
ATOM     19  H   UNL     1      33.278 -18.271 -26.374  0.00  0.00    +0.166 HD
ATOM     20  H   UNL     1      34.769 -14.080 -20.191  0.00  0.00    +0.158 HD
ENDROOT
BRANCH  11  22
ATOM     21 CL   UNL     1      32.362 -19.807 -21.132  0.00  0.00    -0.082 Cl
ATOM     22  C   UNL     1      34.978 -19.076 -21.474  0.00  0.00    +0.011 C 
ATOM     23  C   UNL     1      34.065 -19.933 -20.859  0.00  0.00    +0.058 C 
ATOM     24  C   UNL     1      36.343 -19.215 -21.224  0.00  0.00    +0.001 C 
ATOM     25  C   UNL     1      34.517 -20.929 -19.993  0.00  0.00    +0.011 C 
ATOM     26  C   UNL     1      36.795 -20.210 -20.358  0.00  0.00    +0.000 C 
ATOM     27  C   UNL     1      35.883 -21.067 -19.743  0.00  0.00    +0.001 C 
ENDBRANCH  11  22
BRANCH  17  29
ATOM     28  O   UNL     1      34.285 -11.082 -26.668  0.00  0.00    -0.265 OA
ATOM     29  N   UNL     1      32.257 -12.190 -27.182  0.00  0.00    -0.277 N 
ATOM     30  C   UNL     1      33.123 -11.110 -27.049  0.00  0.00    +0.303 C 
ATOM     31  H   UNL     1      31.354 -11.982 -27.511  0.00  0.00    +0.155 HD
ENDBRANCH  17  29
TORSDOF 2
ENDMDL
MODEL 5
REMARK VINA RESULT:     -11.2      3.120      5.637
REMARK  Name = 24778473
REMARK  2 active torsions:
REMARK  status: ('A' for Active; 'I' for Inactive)
REMARK    1  A    between atoms: C_11  and  C_22
REMARK    2  A    between atoms: C_17  and  N_29
REMARK                            x       y       z     vdW  Elec       q    Type
REMARK                         _______ _______ _______ _____ _____    ______ ____
ROOT
ATOM      1  O   UNL     1      31.806 -22.562 -18.007  0.00  0.00    -0.270 OA
ATOM      2  O   UNL     1      33.083 -24.760 -14.173  0.00  0.00    -0.270 OA
ATOM      3  N   UNL     1      36.956 -21.455 -18.141  0.00  0.00    -0.353 N 
ATOM      4  N   UNL     1      32.086 -23.767 -16.033  0.00  0.00    -0.248 N 
ATOM      5  C   UNL     1      34.866 -22.134 -17.726  0.00  0.00    +0.022 A 
ATOM      6  C   UNL     1      33.929 -22.820 -16.943  0.00  0.00    +0.060 C 
ATOM      7  C   UNL     1      36.190 -22.173 -17.256  0.00  0.00    +0.057 A 
ATOM      8  C   UNL     1      34.869 -21.359 -18.934  0.00  0.00    +0.018 A 
ATOM      9  C   UNL     1      34.311 -23.490 -15.781  0.00  0.00    +0.058 C 
ATOM     10  C   UNL     1      36.187 -20.953 -19.162  0.00  0.00    +0.057 A 
ATOM     11  C   UNL     1      35.610 -23.521 -15.330  0.00  0.00    +0.007 C 
ATOM     12  C   UNL     1      36.580 -22.850 -16.079  0.00  0.00    +0.017 C 
ATOM     13  C   UNL     1      32.488 -23.002 -17.104  0.00  0.00    +0.252 C 
ATOM     14  C   UNL     1      33.120 -24.099 -15.194  0.00  0.00    +0.252 C 
ATOM     15  C   UNL     1      33.888 -20.954 -19.865  0.00  0.00    +0.016 C 
ATOM     16  C   UNL     1      36.567 -20.172 -20.261  0.00  0.00    +0.018 C 
ATOM     17  C   UNL     1      34.252 -20.174 -20.969  0.00  0.00    +0.051 C 
ATOM     18  C   UNL     1      35.574 -19.789 -21.163  0.00  0.00    +0.016 C 
ATOM     19  H   UNL     1      37.927 -21.319 -18.056  0.00  0.00    +0.166 HD
ATOM     20  H   UNL     1      31.154 -24.047 -15.884  0.00  0.00    +0.158 HD
ENDROOT
BRANCH  11  22
ATOM     21 CL   UNL     1      36.273 -26.521 -15.574  0.00  0.00    -0.082 Cl
ATOM     22  C   UNL     1      36.004 -24.217 -14.123  0.00  0.00    +0.011 C 
ATOM     23  C   UNL     1      36.325 -25.574 -14.129  0.00  0.00    +0.058 C 
ATOM     24  C   UNL     1      36.059 -23.491 -12.933  0.00  0.00    +0.001 C 
ATOM     25  C   UNL     1      36.701 -26.207 -12.944  0.00  0.00    +0.011 C 
ATOM     26  C   UNL     1      36.434 -24.124 -11.748  0.00  0.00    +0.000 C 
ATOM     27  C   UNL     1      36.755 -25.481 -11.754  0.00  0.00    +0.001 C 
ENDBRANCH  11  22
BRANCH  17  29
ATOM     28  O   UNL     1      34.473 -18.595 -23.551  0.00  0.00    -0.265 OA
ATOM     29  N   UNL     1      33.276 -19.778 -21.886  0.00  0.00    -0.277 N 
ATOM     30  C   UNL     1      33.450 -19.050 -23.058  0.00  0.00    +0.303 C 
ATOM     31  H   UNL     1      32.353 -20.047 -21.677  0.00  0.00    +0.155 HD
ENDBRANCH  17  29
TORSDOF 2
ENDMDL
MODEL 6
REMARK VINA RESULT:     -10.6     12.149     14.873
REMARK  Name = 24778473
REMARK  2 active torsions:
REMARK  status: ('A' for Active; 'I' for Inactive)
REMARK    1  A    between atoms: C_11  and  C_22
REMARK    2  A    between atoms: C_17  and  N_29
REMARK                            x       y       z     vdW  Elec       q    Type
REMARK                         _______ _______ _______ _____ _____    ______ ____
ROOT
ATOM      1  O   UNL     1      33.161 -15.576 -26.842  0.00  0.00    -0.270 OA
ATOM      2  O   UNL     1      32.497 -11.023 -26.829  0.00  0.00    -0.270 OA
ATOM      3  N   UNL     1      34.506 -14.597 -21.843  0.00  0.00    -0.353 N 
ATOM      4  N   UNL     1      32.724 -13.315 -27.199  0.00  0.00    -0.248 N 
ATOM      5  C   UNL     1      33.868 -14.592 -23.986  0.00  0.00    +0.022 A 
ATOM      6  C   UNL     1      33.427 -13.925 -25.136  0.00  0.00    +0.060 C 
ATOM      7  C   UNL     1      34.082 -13.779 -22.861  0.00  0.00    +0.057 A 
ATOM      8  C   UNL     1      34.183 -15.938 -23.600  0.00  0.00    +0.018 A 
ATOM      9  C   UNL     1      33.223 -12.546 -25.137  0.00  0.00    +0.058 C 
ATOM     10  C   UNL     1      34.575 -15.903 -22.260  0.00  0.00    +0.057 A 
ATOM     11  C   UNL     1      33.437 -11.758 -24.029  0.00  0.00    +0.007 C 
ATOM     12  C   UNL     1      33.877 -12.381 -22.858  0.00  0.00    +0.017 C 
ATOM     13  C   UNL     1      33.103 -14.420 -26.472  0.00  0.00    +0.252 C 
ATOM     14  C   UNL     1      32.770 -12.153 -26.470  0.00  0.00    +0.252 C 
ATOM     15  C   UNL     1      34.176 -17.192 -24.249  0.00  0.00    +0.016 C 
ATOM     16  C   UNL     1      34.958 -17.046 -21.545  0.00  0.00    +0.018 C 
ATOM     17  C   UNL     1      34.556 -18.344 -23.548  0.00  0.00    +0.051 C 
ATOM     18  C   UNL     1      34.941 -18.270 -22.214  0.00  0.00    +0.016 C 
ATOM     19  H   UNL     1      34.729 -14.288 -20.935  0.00  0.00    +0.166 HD
ATOM     20  H   UNL     1      32.449 -13.353 -28.143  0.00  0.00    +0.158 HD
ENDROOT
BRANCH  11  22
ATOM     21 CL   UNL     1      35.695  -9.988 -25.159  0.00  0.00    -0.082 Cl
ATOM     22  C   UNL     1      33.223 -10.327 -24.033  0.00  0.00    +0.011 C 
ATOM     23  C   UNL     1      34.182  -9.441 -24.524  0.00  0.00    +0.058 C 
ATOM     24  C   UNL     1      32.016  -9.841 -23.530  0.00  0.00    +0.001 C 
ATOM     25  C   UNL     1      33.936  -8.068 -24.511  0.00  0.00    +0.011 C 
ATOM     26  C   UNL     1      31.770  -8.468 -23.517  0.00  0.00    +0.000 C 
ATOM     27  C   UNL     1      32.729  -7.582 -24.007  0.00  0.00    +0.001 C 
ENDBRANCH  11  22
BRANCH  17  29
ATOM     28  O   UNL     1      33.816 -19.090 -26.394  0.00  0.00    -0.265 OA
ATOM     29  N   UNL     1      34.548 -19.580 -24.197  0.00  0.00    -0.277 N 
ATOM     30  C   UNL     1      34.194 -19.851 -25.515  0.00  0.00    +0.303 C 
ATOM     31  H   UNL     1      34.826 -20.353 -23.657  0.00  0.00    +0.155 HD
ENDBRANCH  17  29
TORSDOF 2
ENDMDL
MODEL 7
REMARK VINA RESULT:     -10.5      4.845      8.614
REMARK  Name = 24778473
REMARK  2 active torsions:
REMARK  status: ('A' for Active; 'I' for Inactive)
REMARK    1  A    between atoms: C_11  and  C_22
REMARK    2  A    between atoms: C_17  and  N_29
REMARK                            x       y       z     vdW  Elec       q    Type
REMARK                         _______ _______ _______ _____ _____    ______ ____
ROOT
ATOM      1  O   UNL     1      32.062 -22.484 -18.035  0.00  0.00    -0.270 OA
ATOM      2  O   UNL     1      32.021 -19.818 -21.783  0.00  0.00    -0.270 OA
ATOM      3  N   UNL     1      37.197 -21.320 -18.231  0.00  0.00    -0.353 N 
ATOM      4  N   UNL     1      31.668 -21.204 -19.941  0.00  0.00    -0.248 N 
ATOM      5  C   UNL     1      34.991 -21.571 -18.497  0.00  0.00    +0.022 A 
ATOM      6  C   UNL     1      33.799 -21.317 -19.187  0.00  0.00    +0.060 C 
ATOM      7  C   UNL     1      36.139 -20.961 -19.029  0.00  0.00    +0.057 A 
ATOM      8  C   UNL     1      35.406 -22.316 -17.342  0.00  0.00    +0.018 A 
ATOM      9  C   UNL     1      33.780 -20.508 -20.323  0.00  0.00    +0.058 C 
ATOM     10  C   UNL     1      36.785 -22.136 -17.207  0.00  0.00    +0.057 A 
ATOM     11  C   UNL     1      34.911 -19.916 -20.836  0.00  0.00    +0.007 C 
ATOM     12  C   UNL     1      36.124 -20.142 -20.180  0.00  0.00    +0.017 C 
ATOM     13  C   UNL     1      32.430 -21.766 -18.942  0.00  0.00    +0.252 C 
ATOM     14  C   UNL     1      32.404 -20.437 -20.809  0.00  0.00    +0.252 C 
ATOM     15  C   UNL     1      34.754 -23.129 -16.390  0.00  0.00    +0.016 C 
ATOM     16  C   UNL     1      37.535 -22.722 -16.180  0.00  0.00    +0.018 C 
ATOM     17  C   UNL     1      35.490 -23.722 -15.356  0.00  0.00    +0.051 C 
ATOM     18  C   UNL     1      36.862 -23.520 -15.254  0.00  0.00    +0.016 C 
ATOM     19  H   UNL     1      38.127 -21.031 -18.375  0.00  0.00    +0.166 HD
ATOM     20  H   UNL     1      30.697 -21.338 -20.025  0.00  0.00    +0.158 HD
ENDROOT
BRANCH  11  22
ATOM     21 CL   UNL     1      34.878 -16.864 -20.404  0.00  0.00    -0.082 Cl
ATOM     22  C   UNL     1      34.889 -19.076 -22.015  0.00  0.00    +0.011 C 
ATOM     23  C   UNL     1      34.874 -17.685 -21.926  0.00  0.00    +0.058 C 
ATOM     24  C   UNL     1      34.885 -19.696 -23.264  0.00  0.00    +0.001 C 
ATOM     25  C   UNL     1      34.854 -16.912 -23.087  0.00  0.00    +0.011 C 
ATOM     26  C   UNL     1      34.864 -18.923 -24.425  0.00  0.00    +0.000 C 
ATOM     27  C   UNL     1      34.849 -17.532 -24.337  0.00  0.00    +0.001 C 
ENDBRANCH  11  22
BRANCH  17  29
ATOM     28  O   UNL     1      35.340 -23.525 -12.333  0.00  0.00    -0.265 OA
ATOM     29  N   UNL     1      34.839 -24.526 -14.419  0.00  0.00    -0.277 N 
ATOM     30  C   UNL     1      34.812 -24.375 -13.036  0.00  0.00    +0.303 C 
ATOM     31  H   UNL     1      34.337 -25.291 -14.780  0.00  0.00    +0.155 HD
ENDBRANCH  17  29
TORSDOF 2
ENDMDL
MODEL 8
REMARK VINA RESULT:     -10.1      4.971      8.114
REMARK  Name = 24778473
REMARK  2 active torsions:
REMARK  status: ('A' for Active; 'I' for Inactive)
REMARK    1  A    between atoms: C_11  and  C_22
REMARK    2  A    between atoms: C_17  and  N_29
REMARK                            x       y       z     vdW  Elec       q    Type
REMARK                         _______ _______ _______ _____ _____    ______ ____
ROOT
ATOM      1  O   UNL     1      36.834 -22.035 -17.856  0.00  0.00    -0.270 OA
ATOM      2  O   UNL     1      37.092 -19.277 -21.528  0.00  0.00    -0.270 OA
ATOM      3  N   UNL     1      31.688 -21.654 -18.918  0.00  0.00    -0.353 N 
ATOM      4  N   UNL     1      37.340 -20.649 -19.659  0.00  0.00    -0.248 N 
ATOM      5  C   UNL     1      33.919 -21.560 -18.805  0.00  0.00    +0.022 A 
ATOM      6  C   UNL     1      35.156 -21.107 -19.280  0.00  0.00    +0.060 C 
ATOM      7  C   UNL     1      32.797 -21.115 -19.523  0.00  0.00    +0.057 A 
ATOM      8  C   UNL     1      33.436 -22.390 -17.738  0.00  0.00    +0.018 A 
ATOM      9  C   UNL     1      35.240 -20.272 -20.393  0.00  0.00    +0.058 C 
ATOM     10  C   UNL     1      32.043 -22.426 -17.841  0.00  0.00    +0.057 A 
ATOM     11  C   UNL     1      34.134 -19.842 -21.090  0.00  0.00    +0.007 C 
ATOM     12  C   UNL     1      32.878 -20.269 -20.651  0.00  0.00    +0.017 C 
ATOM     13  C   UNL     1      36.518 -21.350 -18.807  0.00  0.00    +0.252 C 
ATOM     14  C   UNL     1      36.651 -19.977 -20.636  0.00  0.00    +0.252 C 
ATOM     15  C   UNL     1      34.036 -23.120 -16.689  0.00  0.00    +0.016 C 
ATOM     16  C   UNL     1      31.230 -23.148 -16.957  0.00  0.00    +0.018 C 
ATOM     17  C   UNL     1      33.237 -23.847 -15.797  0.00  0.00    +0.051 C 
ATOM     18  C   UNL     1      31.853 -23.859 -15.931  0.00  0.00    +0.016 C 
ATOM     19  H   UNL     1      30.762 -21.506 -19.218  0.00  0.00    +0.166 HD
ATOM     20  H   UNL     1      38.320 -20.632 -19.576  0.00  0.00    +0.158 HD
ENDROOT
BRANCH  11  22
ATOM     21 CL   UNL     1      34.755 -16.864 -20.588  0.00  0.00    -0.082 Cl
ATOM     22  C   UNL     1      34.224 -18.976 -22.246  0.00  0.00    +0.011 C 
ATOM     23  C   UNL     1      34.502 -17.615 -22.125  0.00  0.00    +0.058 C 
ATOM     24  C   UNL     1      34.028 -19.540 -23.506  0.00  0.00    +0.001 C 
ATOM     25  C   UNL     1      34.583 -16.815 -23.266  0.00  0.00    +0.011 C 
ATOM     26  C   UNL     1      34.107 -18.740 -24.647  0.00  0.00    +0.000 C 
ATOM     27  C   UNL     1      34.385 -17.379 -24.527  0.00  0.00    +0.001 C 
ENDBRANCH  11  22
BRANCH  17  29
ATOM     28  O   UNL     1      35.727 -25.578 -15.764  0.00  0.00    -0.265 OA
ATOM     29  N   UNL     1      33.837 -24.566 -14.762  0.00  0.00    -0.277 N 
ATOM     30  C   UNL     1      34.988 -25.345 -14.819  0.00  0.00    +0.303 C 
ATOM     31  H   UNL     1      33.392 -24.515 -13.886  0.00  0.00    +0.155 HD
ENDBRANCH  17  29
TORSDOF 2
ENDMDL
