MODEL 1
REMARK VINA RESULT:     -11.8      0.000      0.000
REMARK  Name = 158376
REMARK  11 active torsions:
REMARK  status: ('A' for Active; 'I' for Inactive)
REMARK    1  A    between atoms: C_1  and  N_22
REMARK    2  A    between atoms: C_2  and  C_9
REMARK    3  A    between atoms: N_8  and  CA_11
REMARK    4  A    between atoms: CA_11  and  C_13
REMARK    5  A    between atoms: CA_11  and  CB_16
REMARK    6  A    between atoms: C_13  and  O_14
REMARK    7  A    between atoms: CB_16  and  CG_17
REMARK    8  A    between atoms: CG_17  and  CD_19
REMARK    9  A    between atoms: CD_19  and  OE1_20
REMARK   10  A    between atoms: N_22  and  C_24
REMARK   11  A    between atoms: C_24  and  C_29
REMARK                            x       y       z     vdW  Elec       q    Type
REMARK                         _______ _______ _______ _____ _____    ______ ____
ROOT
ATOM      1  C   UNL     1      34.852 -19.781 -20.907  0.00  0.00    +0.048 C 
ATOM      2  C   UNL     1      33.751 -21.810 -19.340  0.00  0.00    +0.053 C 
ATOM      3  C   UNL     1      35.688 -20.673 -20.234  0.00  0.00    +0.015 C 
ATOM      4  C   UNL     1      33.468 -19.903 -20.797  0.00  0.00    +0.015 C 
ATOM      5  C   UNL     1      35.137 -21.687 -19.451  0.00  0.00    +0.006 C 
ATOM      6  C   UNL     1      32.917 -20.918 -20.013  0.00  0.00    +0.006 C 
ENDROOT
BRANCH   2   9
ATOM      7  O   UNL     1      33.403 -24.062 -18.788  0.00  0.00    -0.270 OA
ATOM      8  N   UNL     1      32.393 -22.476 -17.429  0.00  0.00    -0.293 N 
ATOM      9  C   ACE A   0      33.165 -22.890 -18.506  0.00  0.00    +0.246 C 
ATOM     10  H   UNL     1      32.259 -21.511 -17.285  0.00  0.00    +0.150 HD
BRANCH   8  11
ATOM     11  CA  UNL     1      31.778 -23.404 -16.514  0.00  0.00    +0.172 C 
BRANCH  11  13
ATOM     12  OXT UNL     1      29.620 -22.484 -17.169  0.00  0.00    -0.248 OA
ATOM     13  C   UNL     1      30.345 -22.959 -16.304  0.00  0.00    +0.332 C 
BRANCH  13  14
ATOM     14  O   UNL     1      29.925 -23.184 -15.032  0.00  0.00    -0.479 OA
ATOM     15  H   UNL     1      30.534 -23.133 -14.322  0.00  0.00    +0.295 HD
ENDBRANCH  13  14
ENDBRANCH  11  13
BRANCH  11  16
ATOM     16  CB  UNL     1      32.572 -23.567 -15.212  0.00  0.00    +0.043 C 
BRANCH  16  17
ATOM     17  CG  UNL     1      34.099 -23.523 -15.352  0.00  0.00    +0.112 C 
BRANCH  17  19
ATOM     18  OE2 UNL     1      35.416 -25.561 -15.571  0.00  0.00    -0.250 OA
ATOM     19  CD  UNL     1      34.792 -24.778 -14.868  0.00  0.00    +0.314 C 
BRANCH  19  20
ATOM     20  OE1 UNL     1      34.609 -24.969 -13.535  0.00  0.00    -0.480 OA
ATOM     21  HE1 UNL     1      34.158 -25.731 -13.229  0.00  0.00    +0.295 HD
ENDBRANCH  19  20
ENDBRANCH  17  19
ENDBRANCH  16  17
ENDBRANCH  11  16
ENDBRANCH   8  11
ENDBRANCH   2   9
BRANCH   1  22
ATOM     22  N   UNL     1      35.408 -18.756 -21.700  0.00  0.00    -0.302 N 
ATOM     23  C   UNL     1      36.818 -18.772 -22.038  0.00  0.00    +0.112 C 
BRANCH  22  24
ATOM     24  C   UNL     1      34.574 -17.681 -22.201  0.00  0.00    +0.118 C 
BRANCH  24  29
ATOM     25  O   UNL     1      33.835 -18.607 -25.703  0.00  0.00    -0.427 OA
ATOM     26  N   UNL     1      33.259 -16.611 -26.880  0.00  0.00    -0.294 NA
ATOM     27  N   UNL     1      33.317 -14.604 -25.501  0.00  0.00    -0.317 NA
ATOM     28  N   UNL     1      32.740 -14.509 -27.768  0.00  0.00    -0.283 N 
ATOM     29  C   UNL     1      34.223 -17.756 -23.655  0.00  0.00    +0.031 C 
ATOM     30  C   UNL     1      33.860 -16.691 -24.514  0.00  0.00    +0.180 C 
ATOM     31  C   UNL     1      33.629 -17.260 -25.763  0.00  0.00    +0.281 C 
ATOM     32  C   UNL     1      34.195 -18.896 -24.425  0.00  0.00    +0.176 C 
ATOM     33  C   UNL     1      33.689 -15.312 -24.410  0.00  0.00    +0.181 C 
ATOM     34  C   UNL     1      33.127 -15.288 -26.652  0.00  0.00    +0.200 C 
ATOM     35  H   UNL     1      32.584 -14.942 -28.639  0.00  0.00    +0.156 HD
ATOM     36  H   UNL     1      32.625 -13.537 -27.673  0.00  0.00    +0.156 HD
ATOM     37  N   UNL     1      33.899 -14.645 -23.190  0.00  0.00    -0.335 N 
ATOM     38  H   UNL     1      33.774 -13.671 -23.133  0.00  0.00    +0.144 HD
ATOM     39  H   UNL     1      34.171 -15.153 -22.391  0.00  0.00    +0.144 HD
ENDBRANCH  24  29
ENDBRANCH  22  24
ENDBRANCH   1  22
TORSDOF 11
ENDMDL
MODEL 2
REMARK VINA RESULT:     -11.7      1.305      2.143
REMARK  Name = 158376
REMARK  11 active torsions:
REMARK  status: ('A' for Active; 'I' for Inactive)
REMARK    1  A    between atoms: C_1  and  N_22
REMARK    2  A    between atoms: C_2  and  C_9
REMARK    3  A    between atoms: N_8  and  CA_11
REMARK    4  A    between atoms: CA_11  and  C_13
REMARK    5  A    between atoms: CA_11  and  CB_16
REMARK    6  A    between atoms: C_13  and  O_14
REMARK    7  A    between atoms: CB_16  and  CG_17
REMARK    8  A    between atoms: CG_17  and  CD_19
REMARK    9  A    between atoms: CD_19  and  OE1_20
REMARK   10  A    between atoms: N_22  and  C_24
REMARK   11  A    between atoms: C_24  and  C_29
REMARK                            x       y       z     vdW  Elec       q    Type
REMARK                         _______ _______ _______ _____ _____    ______ ____
ROOT
ATOM      1  C   UNL     1      34.673 -20.392 -20.607  0.00  0.00    +0.048 C 
ATOM      2  C   UNL     1      33.542 -22.072 -18.687  0.00  0.00    +0.053 C 
ATOM      3  C   UNL     1      33.287 -20.440 -20.452  0.00  0.00    +0.015 C 
ATOM      4  C   UNL     1      35.493 -21.184 -19.803  0.00  0.00    +0.015 C 
ATOM      5  C   UNL     1      32.722 -21.279 -19.491  0.00  0.00    +0.006 C 
ATOM      6  C   UNL     1      34.927 -22.024 -18.843  0.00  0.00    +0.006 C 
ENDROOT
BRANCH   2   9
ATOM      7  O   UNL     1      33.597 -23.908 -17.231  0.00  0.00    -0.270 OA
ATOM      8  N   UNL     1      31.656 -22.638 -17.252  0.00  0.00    -0.293 N 
ATOM      9  C   ACE A   0      32.940 -22.965 -17.664  0.00  0.00    +0.246 C 
ATOM     10  H   UNL     1      31.210 -21.861 -17.660  0.00  0.00    +0.150 HD
BRANCH   8  11
ATOM     11  CA  UNL     1      30.948 -23.394 -16.250  0.00  0.00    +0.172 C 
BRANCH  11  13
ATOM     12  OXT UNL     1      28.990 -22.322 -17.225  0.00  0.00    -0.248 OA
ATOM     13  C   UNL     1      29.469 -23.117 -16.427  0.00  0.00    +0.332 C 
BRANCH  13  14
ATOM     14  O   UNL     1      28.707 -23.892 -15.611  0.00  0.00    -0.479 OA
ATOM     15  H   UNL     1      28.974 -24.044 -14.727  0.00  0.00    +0.295 HD
ENDBRANCH  13  14
ENDBRANCH  11  13
BRANCH  11  16
ATOM     16  CB  UNL     1      31.463 -23.124 -14.831  0.00  0.00    +0.043 C 
BRANCH  16  17
ATOM     17  CG  UNL     1      31.840 -24.364 -14.010  0.00  0.00    +0.112 C 
BRANCH  17  19
ATOM     18  OE2 UNL     1      33.748 -23.952 -12.552  0.00  0.00    -0.250 OA
ATOM     19  CD  UNL     1      33.294 -24.401 -13.596  0.00  0.00    +0.314 C 
BRANCH  19  20
ATOM     20  OE1 UNL     1      34.073 -24.971 -14.554  0.00  0.00    -0.480 OA
ATOM     21  HE1 UNL     1      34.532 -25.767 -14.371  0.00  0.00    +0.295 HD
ENDBRANCH  19  20
ENDBRANCH  17  19
ENDBRANCH  16  17
ENDBRANCH  11  16
ENDBRANCH   8  11
ENDBRANCH   2   9
BRANCH   1  22
ATOM     22  N   UNL     1      35.245 -19.543 -21.577  0.00  0.00    -0.302 N 
ATOM     23  C   UNL     1      36.522 -18.904 -21.331  0.00  0.00    +0.112 C 
BRANCH  22  24
ATOM     24  C   UNL     1      34.569 -19.309 -22.838  0.00  0.00    +0.118 C 
BRANCH  24  29
ATOM     25  O   UNL     1      34.330 -15.628 -23.066  0.00  0.00    -0.427 OA
ATOM     26  N   UNL     1      33.624 -15.077 -25.279  0.00  0.00    -0.294 NA
ATOM     27  N   UNL     1      33.272 -17.016 -26.711  0.00  0.00    -0.317 NA
ATOM     28  N   UNL     1      32.929 -14.839 -27.501  0.00  0.00    -0.283 N 
ATOM     29  C   UNL     1      34.386 -17.873 -23.219  0.00  0.00    +0.031 C 
ATOM     30  C   UNL     1      33.976 -17.355 -24.471  0.00  0.00    +0.180 C 
ATOM     31  C   UNL     1      33.956 -15.970 -24.332  0.00  0.00    +0.281 C 
ATOM     32  C   UNL     1      34.586 -16.784 -22.402  0.00  0.00    +0.176 C 
ATOM     33  C   UNL     1      33.616 -17.866 -25.717  0.00  0.00    +0.181 C 
ATOM     34  C   UNL     1      33.297 -15.692 -26.434  0.00  0.00    +0.200 C 
ATOM     35  H   UNL     1      32.925 -13.863 -27.370  0.00  0.00    +0.156 HD
ATOM     36  H   UNL     1      32.678 -15.221 -28.372  0.00  0.00    +0.156 HD
ATOM     37  N   UNL     1      33.605 -19.252 -25.955  0.00  0.00    -0.335 N 
ATOM     38  H   UNL     1      33.349 -19.597 -26.840  0.00  0.00    +0.144 HD
ATOM     39  H   UNL     1      33.854 -19.878 -25.237  0.00  0.00    +0.144 HD
ENDBRANCH  24  29
ENDBRANCH  22  24
ENDBRANCH   1  22
TORSDOF 11
ENDMDL
MODEL 3
REMARK VINA RESULT:     -11.6      2.703      3.833
REMARK  Name = 158376
REMARK  11 active torsions:
REMARK  status: ('A' for Active; 'I' for Inactive)
REMARK    1  A    between atoms: C_1  and  N_22
REMARK    2  A    between atoms: C_2  and  C_9
REMARK    3  A    between atoms: N_8  and  CA_11
REMARK    4  A    between atoms: CA_11  and  C_13
REMARK    5  A    between atoms: CA_11  and  CB_16
REMARK    6  A    between atoms: C_13  and  O_14
REMARK    7  A    between atoms: CB_16  and  CG_17
REMARK    8  A    between atoms: CG_17  and  CD_19
REMARK    9  A    between atoms: CD_19  and  OE1_20
REMARK   10  A    between atoms: N_22  and  C_24
REMARK   11  A    between atoms: C_24  and  C_29
REMARK                            x       y       z     vdW  Elec       q    Type
REMARK                         _______ _______ _______ _____ _____    ______ ____
ROOT
ATOM      1  C   UNL     1      34.521 -20.889 -19.880  0.00  0.00    +0.048 C 
ATOM      2  C   UNL     1      35.653 -22.157 -17.668  0.00  0.00    +0.053 C 
ATOM      3  C   UNL     1      35.870 -20.696 -19.581  0.00  0.00    +0.015 C 
ATOM      4  C   UNL     1      33.739 -21.716 -19.074  0.00  0.00    +0.015 C 
ATOM      5  C   UNL     1      36.436 -21.331 -18.475  0.00  0.00    +0.006 C 
ATOM      6  C   UNL     1      34.305 -22.350 -17.968  0.00  0.00    +0.006 C 
ENDROOT
BRANCH   2   9
ATOM      7  O   UNL     1      37.446 -22.657 -16.242  0.00  0.00    -0.270 OA
ATOM      8  N   UNL     1      35.396 -23.613 -15.731  0.00  0.00    -0.293 N 
ATOM      9  C   ACE A   0      36.256 -22.833 -16.491  0.00  0.00    +0.246 C 
ATOM     10  H   UNL     1      34.456 -23.693 -16.012  0.00  0.00    +0.150 HD
BRANCH   8  11
ATOM     11  CA  UNL     1      35.825 -24.311 -14.545  0.00  0.00    +0.172 C 
BRANCH  11  13
ATOM     12  OXT UNL     1      35.583 -26.382 -15.804  0.00  0.00    -0.248 OA
ATOM     13  C   UNL     1      36.168 -25.731 -14.948  0.00  0.00    +0.332 C 
BRANCH  13  14
ATOM     14  O   UNL     1      37.246 -26.204 -14.269  0.00  0.00    -0.479 OA
ATOM     15  H   UNL     1      37.408 -25.921 -13.391  0.00  0.00    +0.295 HD
ENDBRANCH  13  14
ENDBRANCH  11  13
BRANCH  11  16
ATOM     16  CB  UNL     1      34.807 -24.221 -13.402  0.00  0.00    +0.043 C 
BRANCH  16  17
ATOM     17  CG  UNL     1      35.334 -23.648 -12.081  0.00  0.00    +0.112 C 
BRANCH  17  19
ATOM     18  OE2 UNL     1      35.146 -24.580  -9.837  0.00  0.00    -0.250 OA
ATOM     19  CD  UNL     1      35.520 -24.688 -10.997  0.00  0.00    +0.314 C 
BRANCH  19  20
ATOM     20  OE1 UNL     1      36.202 -25.771 -11.454  0.00  0.00    -0.480 OA
ATOM     21  HE1 UNL     1      36.012 -26.119 -12.303  0.00  0.00    +0.295 HD
ENDBRANCH  19  20
ENDBRANCH  17  19
ENDBRANCH  16  17
ENDBRANCH  11  16
ENDBRANCH   8  11
ENDBRANCH   2   9
BRANCH   1  22
ATOM     22  N   UNL     1      33.949 -20.249 -20.999  0.00  0.00    -0.302 N 
ATOM     23  C   UNL     1      32.509 -20.136 -21.123  0.00  0.00    +0.112 C 
BRANCH  22  24
ATOM     24  C   UNL     1      34.793 -19.683 -22.032  0.00  0.00    +0.118 C 
BRANCH  24  29
ATOM     25  O   UNL     1      34.781 -15.995 -21.783  0.00  0.00    -0.427 OA
ATOM     26  N   UNL     1      34.000 -15.124 -23.865  0.00  0.00    -0.294 NA
ATOM     27  N   UNL     1      33.451 -16.840 -25.504  0.00  0.00    -0.317 NA
ATOM     28  N   UNL     1      33.210 -14.563 -25.994  0.00  0.00    -0.283 N 
ATOM     29  C   UNL     1      34.684 -18.201 -22.219  0.00  0.00    +0.031 C 
ATOM     30  C   UNL     1      34.245 -17.504 -23.370  0.00  0.00    +0.180 C 
ATOM     31  C   UNL     1      34.322 -16.150 -23.058  0.00  0.00    +0.281 C 
ATOM     32  C   UNL     1      34.996 -17.240 -21.285  0.00  0.00    +0.176 C 
ATOM     33  C   UNL     1      33.791 -17.829 -24.647  0.00  0.00    +0.181 C 
ATOM     34  C   UNL     1      33.576 -15.566 -25.066  0.00  0.00    +0.200 C 
ATOM     35  H   UNL     1      33.276 -13.613 -25.742  0.00  0.00    +0.156 HD
ATOM     36  H   UNL     1      32.891 -14.815 -26.890  0.00  0.00    +0.156 HD
ATOM     37  N   UNL     1      33.678 -19.170 -25.056  0.00  0.00    -0.335 N 
ATOM     38  H   UNL     1      33.355 -19.383 -25.961  0.00  0.00    +0.144 HD
ATOM     39  H   UNL     1      33.922 -19.896 -24.437  0.00  0.00    +0.144 HD
ENDBRANCH  24  29
ENDBRANCH  22  24
ENDBRANCH   1  22
TORSDOF 11
ENDMDL
MODEL 4
REMARK VINA RESULT:     -11.2      2.128      3.052
REMARK  Name = 158376
REMARK  11 active torsions:
REMARK  status: ('A' for Active; 'I' for Inactive)
REMARK    1  A    between atoms: C_1  and  N_22
REMARK    2  A    between atoms: C_2  and  C_9
REMARK    3  A    between atoms: N_8  and  CA_11
REMARK    4  A    between atoms: CA_11  and  C_13
REMARK    5  A    between atoms: CA_11  and  CB_16
REMARK    6  A    between atoms: C_13  and  O_14
REMARK    7  A    between atoms: CB_16  and  CG_17
REMARK    8  A    between atoms: CG_17  and  CD_19
REMARK    9  A    between atoms: CD_19  and  OE1_20
REMARK   10  A    between atoms: N_22  and  C_24
REMARK   11  A    between atoms: C_24  and  C_29
REMARK                            x       y       z     vdW  Elec       q    Type
REMARK                         _______ _______ _______ _____ _____    ______ ____
ROOT
ATOM      1  C   UNL     1      33.985 -21.143 -19.692  0.00  0.00    +0.048 C 
ATOM      2  C   UNL     1      34.241 -22.762 -17.434  0.00  0.00    +0.053 C 
ATOM      3  C   UNL     1      35.240 -21.342 -19.115  0.00  0.00    +0.015 C 
ATOM      4  C   UNL     1      32.859 -21.753 -19.140  0.00  0.00    +0.015 C 
ATOM      5  C   UNL     1      35.367 -22.152 -17.987  0.00  0.00    +0.006 C 
ATOM      6  C   UNL     1      32.987 -22.562 -18.011  0.00  0.00    +0.006 C 
ENDROOT
BRANCH   2   9
ATOM      7  O   UNL     1      35.430 -24.228 -16.044  0.00  0.00    -0.270 OA
ATOM      8  N   UNL     1      33.279 -23.662 -15.383  0.00  0.00    -0.293 N 
ATOM      9  C   ACE A   0      34.377 -23.625 -16.232  0.00  0.00    +0.246 C 
ATOM     10  H   UNL     1      32.478 -23.143 -15.622  0.00  0.00    +0.150 HD
BRANCH   8  11
ATOM     11  CA  UNL     1      33.267 -24.432 -14.166  0.00  0.00    +0.172 C 
BRANCH  11  13
ATOM     12  OXT UNL     1      31.071 -25.484 -14.146  0.00  0.00    -0.248 OA
ATOM     13  C   UNL     1      31.822 -24.604 -13.745  0.00  0.00    +0.332 C 
BRANCH  13  14
ATOM     14  O   UNL     1      31.448 -23.677 -12.825  0.00  0.00    -0.479 OA
ATOM     15  H   UNL     1      31.702 -23.777 -11.929  0.00  0.00    +0.295 HD
ENDBRANCH  13  14
ENDBRANCH  11  13
BRANCH  11  16
ATOM     16  CB  UNL     1      34.162 -23.831 -13.075  0.00  0.00    +0.043 C 
BRANCH  16  17
ATOM     17  CG  UNL     1      35.382 -24.670 -12.674  0.00  0.00    +0.112 C 
BRANCH  17  19
ATOM     18  OE2 UNL     1      36.760 -23.922 -10.809  0.00  0.00    -0.250 OA
ATOM     19  CD  UNL     1      35.775 -24.519 -11.221  0.00  0.00    +0.314 C 
BRANCH  19  20
ATOM     20  OE1 UNL     1      34.911 -25.170 -10.398  0.00  0.00    -0.480 OA
ATOM     21  HE1 UNL     1      34.042 -24.840 -10.276  0.00  0.00    +0.295 HD
ENDBRANCH  19  20
ENDBRANCH  17  19
ENDBRANCH  16  17
ENDBRANCH  11  16
ENDBRANCH   8  11
ENDBRANCH   2   9
BRANCH   1  22
ATOM     22  N   UNL     1      33.855 -20.325 -20.833  0.00  0.00    -0.302 N 
ATOM     23  C   UNL     1      32.545 -19.923 -21.303  0.00  0.00    +0.112 C 
BRANCH  22  24
ATOM     24  C   UNL     1      35.032 -19.864 -21.544  0.00  0.00    +0.118 C 
BRANCH  24  29
ATOM     25  O   UNL     1      34.402 -18.083 -24.721  0.00  0.00    -0.427 OA
ATOM     26  N   UNL     1      34.260 -15.750 -24.235  0.00  0.00    -0.294 NA
ATOM     27  N   UNL     1      34.559 -15.216 -21.877  0.00  0.00    -0.317 NA
ATOM     28  N   UNL     1      34.171 -13.542 -23.466  0.00  0.00    -0.283 N 
ATOM     29  C   UNL     1      34.780 -18.892 -22.654  0.00  0.00    +0.031 C 
ATOM     30  C   UNL     1      34.666 -17.484 -22.563  0.00  0.00    +0.180 C 
ATOM     31  C   UNL     1      34.433 -17.028 -23.857  0.00  0.00    +0.281 C 
ATOM     32  C   UNL     1      34.614 -19.204 -23.984  0.00  0.00    +0.176 C 
ATOM     33  C   UNL     1      34.725 -16.520 -21.558  0.00  0.00    +0.181 C 
ATOM     34  C   UNL     1      34.339 -14.916 -23.177  0.00  0.00    +0.200 C 
ATOM     35  H   UNL     1      34.008 -13.251 -24.393  0.00  0.00    +0.156 HD
ATOM     36  H   UNL     1      34.217 -12.878 -22.742  0.00  0.00    +0.156 HD
ATOM     37  N   UNL     1      34.956 -16.883 -20.219  0.00  0.00    -0.335 N 
ATOM     38  H   UNL     1      34.995 -16.190 -19.521  0.00  0.00    +0.144 HD
ATOM     39  H   UNL     1      35.079 -17.830 -19.979  0.00  0.00    +0.144 HD
ENDBRANCH  24  29
ENDBRANCH  22  24
ENDBRANCH   1  22
TORSDOF 11
ENDMDL
MODEL 5
REMARK VINA RESULT:     -11.1      3.927     11.121
REMARK  Name = 158376
REMARK  11 active torsions:
REMARK  status: ('A' for Active; 'I' for Inactive)
REMARK    1  A    between atoms: C_1  and  N_22
REMARK    2  A    between atoms: C_2  and  C_9
REMARK    3  A    between atoms: N_8  and  CA_11
REMARK    4  A    between atoms: CA_11  and  C_13
REMARK    5  A    between atoms: CA_11  and  CB_16
REMARK    6  A    between atoms: C_13  and  O_14
REMARK    7  A    between atoms: CB_16  and  CG_17
REMARK    8  A    between atoms: CG_17  and  CD_19
REMARK    9  A    between atoms: CD_19  and  OE1_20
REMARK   10  A    between atoms: N_22  and  C_24
REMARK   11  A    between atoms: C_24  and  C_29
REMARK                            x       y       z     vdW  Elec       q    Type
REMARK                         _______ _______ _______ _____ _____    ______ ____
ROOT
ATOM      1  C   UNL     1      33.539 -23.264 -15.786  0.00  0.00    +0.048 C 
ATOM      2  C   UNL     1      34.401 -22.384 -18.290  0.00  0.00    +0.053 C 
ATOM      3  C   UNL     1      32.661 -23.277 -16.870  0.00  0.00    +0.015 C 
ATOM      4  C   UNL     1      34.848 -22.811 -15.954  0.00  0.00    +0.015 C 
ATOM      5  C   UNL     1      33.092 -22.838 -18.121  0.00  0.00    +0.006 C 
ATOM      6  C   UNL     1      35.278 -22.370 -17.206  0.00  0.00    +0.006 C 
ENDROOT
BRANCH   2   9
ATOM      7  O   UNL     1      35.350 -22.725 -20.406  0.00  0.00    -0.270 OA
ATOM      8  N   UNL     1      34.670 -20.567 -19.892  0.00  0.00    -0.293 N 
ATOM      9  C   ACE A   0      34.860 -21.916 -19.623  0.00  0.00    +0.246 C 
ATOM     10  H   UNL     1      34.268 -19.997 -19.197  0.00  0.00    +0.150 HD
BRANCH   8  11
ATOM     11  CA  UNL     1      35.040 -19.968 -21.149  0.00  0.00    +0.172 C 
BRANCH  11  13
ATOM     12  OXT UNL     1      37.322 -19.134 -20.969  0.00  0.00    -0.248 OA
ATOM     13  C   UNL     1      36.117 -18.940 -20.868  0.00  0.00    +0.332 C 
BRANCH  13  14
ATOM     14  O   UNL     1      35.590 -17.736 -20.520  0.00  0.00    -0.479 OA
ATOM     15  H   UNL     1      34.844 -17.402 -20.976  0.00  0.00    +0.295 HD
ENDBRANCH  13  14
ENDBRANCH  11  13
BRANCH  11  16
ATOM     16  CB  UNL     1      33.836 -19.410 -21.917  0.00  0.00    +0.043 C 
BRANCH  16  17
ATOM     17  CG  UNL     1      34.026 -19.247 -23.430  0.00  0.00    +0.112 C 
BRANCH  17  19
ATOM     18  OE2 UNL     1      33.247 -17.183 -24.466  0.00  0.00    -0.250 OA
ATOM     19  CD  UNL     1      34.123 -17.806 -23.881  0.00  0.00    +0.314 C 
BRANCH  19  20
ATOM     20  OE1 UNL     1      35.339 -17.272 -23.592  0.00  0.00    -0.480 OA
ATOM     21  HE1 UNL     1      35.627 -17.218 -22.702  0.00  0.00    +0.295 HD
ENDBRANCH  19  20
ENDBRANCH  17  19
ENDBRANCH  16  17
ENDBRANCH  11  16
ENDBRANCH   8  11
ENDBRANCH   2   9
BRANCH   1  22
ATOM     22  N   UNL     1      33.105 -23.709 -14.521  0.00  0.00    -0.302 N 
ATOM     23  C   UNL     1      31.948 -23.107 -13.888  0.00  0.00    +0.112 C 
BRANCH  22  24
ATOM     24  C   UNL     1      33.800 -24.786 -13.843  0.00  0.00    +0.118 C 
BRANCH  24  29
ATOM     25  O   UNL     1      37.003 -23.535 -12.488  0.00  0.00    -0.427 OA
ATOM     26  N   UNL     1      38.756 -24.878 -13.397  0.00  0.00    -0.294 NA
ATOM     27  N   UNL     1      37.975 -26.626 -14.903  0.00  0.00    -0.317 NA
ATOM     28  N   UNL     1      40.251 -26.347 -14.436  0.00  0.00    -0.283 N 
ATOM     29  C   UNL     1      35.220 -24.503 -13.463  0.00  0.00    +0.031 C 
ATOM     30  C   UNL     1      36.384 -25.184 -13.896  0.00  0.00    +0.180 C 
ATOM     31  C   UNL     1      37.457 -24.556 -13.271  0.00  0.00    +0.281 C 
ATOM     32  C   UNL     1      35.651 -23.512 -12.612  0.00  0.00    +0.176 C 
ATOM     33  C   UNL     1      36.685 -26.254 -14.736  0.00  0.00    +0.181 C 
ATOM     34  C   UNL     1      38.917 -25.925 -14.232  0.00  0.00    +0.200 C 
ATOM     35  H   UNL     1      40.989 -25.882 -13.979  0.00  0.00    +0.156 HD
ATOM     36  H   UNL     1      40.442 -27.105 -15.033  0.00  0.00    +0.156 HD
ATOM     37  N   UNL     1      35.669 -26.952 -15.413  0.00  0.00    -0.335 N 
ATOM     38  H   UNL     1      35.898 -27.706 -16.003  0.00  0.00    +0.144 HD
ATOM     39  H   UNL     1      34.727 -26.687 -15.298  0.00  0.00    +0.144 HD
ENDBRANCH  24  29
ENDBRANCH  22  24
ENDBRANCH   1  22
TORSDOF 11
ENDMDL
MODEL 6
REMARK VINA RESULT:     -11.1      2.945     11.076
REMARK  Name = 158376
REMARK  11 active torsions:
REMARK  status: ('A' for Active; 'I' for Inactive)
REMARK    1  A    between atoms: C_1  and  N_22
REMARK    2  A    between atoms: C_2  and  C_9
REMARK    3  A    between atoms: N_8  and  CA_11
REMARK    4  A    between atoms: CA_11  and  C_13
REMARK    5  A    between atoms: CA_11  and  CB_16
REMARK    6  A    between atoms: C_13  and  O_14
REMARK    7  A    between atoms: CB_16  and  CG_17
REMARK    8  A    between atoms: CG_17  and  CD_19
REMARK    9  A    between atoms: CD_19  and  OE1_20
REMARK   10  A    between atoms: N_22  and  C_24
REMARK   11  A    between atoms: C_24  and  C_29
REMARK                            x       y       z     vdW  Elec       q    Type
REMARK                         _______ _______ _______ _____ _____    ______ ____
ROOT
ATOM      1  C   UNL     1      33.627 -22.237 -18.337  0.00  0.00    +0.048 C 
ATOM      2  C   UNL     1      34.895 -20.546 -20.158  0.00  0.00    +0.053 C 
ATOM      3  C   UNL     1      32.870 -21.504 -19.251  0.00  0.00    +0.015 C 
ATOM      4  C   UNL     1      35.017 -22.125 -18.333  0.00  0.00    +0.015 C 
ATOM      5  C   UNL     1      33.504 -20.659 -20.162  0.00  0.00    +0.006 C 
ATOM      6  C   UNL     1      35.651 -21.279 -19.244  0.00  0.00    +0.006 C 
ENDROOT
BRANCH   2   9
ATOM      7  O   UNL     1      36.746 -19.342 -20.946  0.00  0.00    -0.270 OA
ATOM      8  N   UNL     1      34.802 -19.228 -22.206  0.00  0.00    -0.293 N 
ATOM      9  C   ACE A   0      35.570 -19.646 -21.128  0.00  0.00    +0.246 C 
ATOM     10  H   UNL     1      33.865 -19.526 -22.264  0.00  0.00    +0.150 HD
BRANCH   8  11
ATOM     11  CA  UNL     1      35.321 -18.374 -23.244  0.00  0.00    +0.172 C 
BRANCH  11  13
ATOM     12  OXT UNL     1      34.591 -16.590 -21.755  0.00  0.00    -0.248 OA
ATOM     13  C   UNL     1      35.064 -16.940 -22.829  0.00  0.00    +0.332 C 
BRANCH  13  14
ATOM     14  O   UNL     1      35.458 -16.057 -23.784  0.00  0.00    -0.479 OA
ATOM     15  H   UNL     1      35.828 -16.369 -24.586  0.00  0.00    +0.295 HD
ENDBRANCH  13  14
ENDBRANCH  11  13
BRANCH  11  16
ATOM     16  CB  UNL     1      34.772 -18.726 -24.631  0.00  0.00    +0.043 C 
BRANCH  16  17
ATOM     17  CG  UNL     1      33.309 -18.342 -24.887  0.00  0.00    +0.112 C 
BRANCH  17  19
ATOM     18  OE2 UNL     1      32.200 -17.984 -27.027  0.00  0.00    -0.250 OA
ATOM     19  CD  UNL     1      33.077 -17.683 -26.229  0.00  0.00    +0.314 C 
BRANCH  19  20
ATOM     20  OE1 UNL     1      33.999 -16.716 -26.477  0.00  0.00    -0.480 OA
ATOM     21  HE1 UNL     1      34.791 -16.685 -25.977  0.00  0.00    +0.295 HD
ENDBRANCH  19  20
ENDBRANCH  17  19
ENDBRANCH  16  17
ENDBRANCH  11  16
ENDBRANCH   8  11
ENDBRANCH   2   9
BRANCH   1  22
ATOM     22  N   UNL     1      32.987 -23.093 -17.417  0.00  0.00    -0.302 N 
ATOM     23  C   UNL     1      31.571 -22.948 -17.142  0.00  0.00    +0.112 C 
BRANCH  22  24
ATOM     24  C   UNL     1      33.733 -24.139 -16.745  0.00  0.00    +0.118 C 
BRANCH  24  29
ATOM     25  O   UNL     1      32.821 -24.243 -13.164  0.00  0.00    -0.427 OA
ATOM     26  N   UNL     1      34.808 -23.874 -11.893  0.00  0.00    -0.294 NA
ATOM     27  N   UNL     1      36.800 -23.545 -13.255  0.00  0.00    -0.317 NA
ATOM     28  N   UNL     1      36.899 -23.492 -10.917  0.00  0.00    -0.283 N 
ATOM     29  C   UNL     1      33.662 -24.128 -15.249  0.00  0.00    +0.031 C 
ATOM     30  C   UNL     1      34.723 -23.926 -14.334  0.00  0.00    +0.180 C 
ATOM     31  C   UNL     1      34.160 -24.006 -13.063  0.00  0.00    +0.281 C 
ATOM     32  C   UNL     1      32.530 -24.313 -14.489  0.00  0.00    +0.176 C 
ATOM     33  C   UNL     1      36.094 -23.687 -14.399  0.00  0.00    +0.181 C 
ATOM     34  C   UNL     1      36.123 -23.647 -12.088  0.00  0.00    +0.200 C 
ATOM     35  H   UNL     1      36.471 -23.554 -10.032  0.00  0.00    +0.156 HD
ATOM     36  H   UNL     1      37.866 -23.323 -10.986  0.00  0.00    +0.156 HD
ATOM     37  N   UNL     1      36.753 -23.589 -15.638  0.00  0.00    -0.335 N 
ATOM     38  H   UNL     1      37.722 -23.420 -15.667  0.00  0.00    +0.144 HD
ATOM     39  H   UNL     1      36.246 -23.690 -16.476  0.00  0.00    +0.144 HD
ENDBRANCH  24  29
ENDBRANCH  22  24
ENDBRANCH   1  22
TORSDOF 11
ENDMDL
MODEL 7
REMARK VINA RESULT:     -10.8      4.414     11.488
REMARK  Name = 158376
REMARK  11 active torsions:
REMARK  status: ('A' for Active; 'I' for Inactive)
REMARK    1  A    between atoms: C_1  and  N_22
REMARK    2  A    between atoms: C_2  and  C_9
REMARK    3  A    between atoms: N_8  and  CA_11
REMARK    4  A    between atoms: CA_11  and  C_13
REMARK    5  A    between atoms: CA_11  and  CB_16
REMARK    6  A    between atoms: C_13  and  O_14
REMARK    7  A    between atoms: CB_16  and  CG_17
REMARK    8  A    between atoms: CG_17  and  CD_19
REMARK    9  A    between atoms: CD_19  and  OE1_20
REMARK   10  A    between atoms: N_22  and  C_24
REMARK   11  A    between atoms: C_24  and  C_29
REMARK                            x       y       z     vdW  Elec       q    Type
REMARK                         _______ _______ _______ _____ _____    ______ ____
ROOT
ATOM      1  C   UNL     1      34.488 -17.298 -23.196  0.00  0.00    +0.048 C 
ATOM      2  C   UNL     1      33.898 -14.588 -23.507  0.00  0.00    +0.053 C 
ATOM      3  C   UNL     1      33.949 -16.835 -24.397  0.00  0.00    +0.015 C 
ATOM      4  C   UNL     1      34.733 -16.406 -22.152  0.00  0.00    +0.015 C 
ATOM      5  C   UNL     1      33.655 -15.481 -24.552  0.00  0.00    +0.006 C 
ATOM      6  C   UNL     1      34.437 -15.052 -22.307  0.00  0.00    +0.006 C 
ENDROOT
BRANCH   2   9
ATOM      7  O   UNL     1      33.050 -12.538 -22.749  0.00  0.00    -0.270 OA
ATOM      8  N   UNL     1      33.952 -12.580 -24.886  0.00  0.00    -0.293 N 
ATOM      9  C   ACE A   0      33.584 -13.146 -23.673  0.00  0.00    +0.246 C 
ATOM     10  H   UNL     1      34.375 -13.151 -25.567  0.00  0.00    +0.150 HD
BRANCH   8  11
ATOM     11  CA  UNL     1      33.737 -11.187 -25.188  0.00  0.00    +0.172 C 
BRANCH  11  13
ATOM     12  OXT UNL     1      32.376 -12.068 -27.005  0.00  0.00    -0.248 OA
ATOM     13  C   UNL     1      32.754 -11.114 -26.338  0.00  0.00    +0.332 C 
BRANCH  13  14
ATOM     14  O   UNL     1      32.294  -9.850 -26.532  0.00  0.00    -0.479 OA
ATOM     15  H   UNL     1      32.582  -9.156 -25.973  0.00  0.00    +0.295 HD
ENDBRANCH  13  14
ENDBRANCH  11  13
BRANCH  11  16
ATOM     16  CB  UNL     1      35.045 -10.427 -25.442  0.00  0.00    +0.043 C 
BRANCH  16  17
ATOM     17  CG  UNL     1      35.427  -9.385 -24.384  0.00  0.00    +0.112 C 
BRANCH  17  19
ATOM     18  OE2 UNL     1      33.830  -8.127 -23.041  0.00  0.00    -0.250 OA
ATOM     19  CD  UNL     1      34.349  -8.355 -24.125  0.00  0.00    +0.314 C 
BRANCH  19  20
ATOM     20  OE1 UNL     1      33.980  -7.718 -25.268  0.00  0.00    -0.480 OA
ATOM     21  HE1 UNL     1      34.334  -6.874 -25.468  0.00  0.00    +0.295 HD
ENDBRANCH  19  20
ENDBRANCH  17  19
ENDBRANCH  16  17
ENDBRANCH  11  16
ENDBRANCH   8  11
ENDBRANCH   2   9
BRANCH   1  22
ATOM     22  N   UNL     1      34.788 -18.667 -23.039  0.00  0.00    -0.302 N 
ATOM     23  C   UNL     1      34.781 -19.556 -24.183  0.00  0.00    +0.112 C 
BRANCH  22  24
ATOM     24  C   UNL     1      35.121 -19.200 -21.732  0.00  0.00    +0.118 C 
BRANCH  24  29
ATOM     25  O   UNL     1      31.929 -20.507 -20.404  0.00  0.00    -0.427 OA
ATOM     26  N   UNL     1      32.444 -22.116 -18.716  0.00  0.00    -0.294 NA
ATOM     27  N   UNL     1      34.832 -22.434 -18.356  0.00  0.00    -0.317 NA
ATOM     28  N   UNL     1      33.243 -23.632 -17.123  0.00  0.00    -0.283 N 
ATOM     29  C   UNL     1      34.009 -19.899 -21.014  0.00  0.00    +0.031 C 
ATOM     30  C   UNL     1      34.116 -20.874 -19.993  0.00  0.00    +0.180 C 
ATOM     31  C   UNL     1      32.813 -21.220 -19.648  0.00  0.00    +0.281 C 
ATOM     32  C   UNL     1      32.662 -19.712 -21.225  0.00  0.00    +0.176 C 
ATOM     33  C   UNL     1      35.141 -21.521 -19.306  0.00  0.00    +0.181 C 
ATOM     34  C   UNL     1      33.521 -22.672 -18.124  0.00  0.00    +0.200 C 
ATOM     35  H   UNL     1      32.310 -23.855 -16.902  0.00  0.00    +0.156 HD
ATOM     36  H   UNL     1      33.982 -24.077 -16.650  0.00  0.00    +0.156 HD
ATOM     37  N   UNL     1      36.490 -21.238 -19.583  0.00  0.00    -0.335 N 
ATOM     38  H   UNL     1      37.202 -21.704 -19.088  0.00  0.00    +0.144 HD
ATOM     39  H   UNL     1      36.723 -20.575 -20.272  0.00  0.00    +0.144 HD
ENDBRANCH  24  29
ENDBRANCH  22  24
ENDBRANCH   1  22
TORSDOF 11
ENDMDL
MODEL 8
REMARK VINA RESULT:     -10.7      1.723      2.492
REMARK  Name = 158376
REMARK  11 active torsions:
REMARK  status: ('A' for Active; 'I' for Inactive)
REMARK    1  A    between atoms: C_1  and  N_22
REMARK    2  A    between atoms: C_2  and  C_9
REMARK    3  A    between atoms: N_8  and  CA_11
REMARK    4  A    between atoms: CA_11  and  C_13
REMARK    5  A    between atoms: CA_11  and  CB_16
REMARK    6  A    between atoms: C_13  and  O_14
REMARK    7  A    between atoms: CB_16  and  CG_17
REMARK    8  A    between atoms: CG_17  and  CD_19
REMARK    9  A    between atoms: CD_19  and  OE1_20
REMARK   10  A    between atoms: N_22  and  C_24
REMARK   11  A    between atoms: C_24  and  C_29
REMARK                            x       y       z     vdW  Elec       q    Type
REMARK                         _______ _______ _______ _____ _____    ______ ____
ROOT
ATOM      1  C   UNL     1      35.097 -20.023 -20.883  0.00  0.00    +0.048 C 
ATOM      2  C   UNL     1      34.145 -21.962 -19.116  0.00  0.00    +0.053 C 
ATOM      3  C   UNL     1      35.994 -20.784 -20.133  0.00  0.00    +0.015 C 
ATOM      4  C   UNL     1      33.724 -20.232 -20.749  0.00  0.00    +0.015 C 
ATOM      5  C   UNL     1      35.518 -21.754 -19.250  0.00  0.00    +0.006 C 
ATOM      6  C   UNL     1      33.249 -21.202 -19.865  0.00  0.00    +0.006 C 
ENDROOT
BRANCH   2   9
ATOM      7  O   UNL     1      33.081 -23.993 -18.625  0.00  0.00    -0.270 OA
ATOM      8  N   UNL     1      33.863 -22.752 -16.828  0.00  0.00    -0.293 N 
ATOM      9  C   ACE A   0      33.638 -22.995 -18.176  0.00  0.00    +0.246 C 
ATOM     10  H   UNL     1      34.319 -21.920 -16.566  0.00  0.00    +0.150 HD
BRANCH   8  11
ATOM     11  CA  UNL     1      33.454 -23.671 -15.796  0.00  0.00    +0.172 C 
BRANCH  11  13
ATOM     12  OXT UNL     1      31.773 -22.749 -14.294  0.00  0.00    -0.248 OA
ATOM     13  C   UNL     1      32.057 -23.280 -15.361  0.00  0.00    +0.332 C 
BRANCH  13  14
ATOM     14  O   UNL     1      31.132 -23.552 -16.319  0.00  0.00    -0.479 OA
ATOM     15  H   UNL     1      31.093 -23.029 -17.094  0.00  0.00    +0.295 HD
ENDBRANCH  13  14
ENDBRANCH  11  13
BRANCH  11  16
ATOM     16  CB  UNL     1      34.461 -23.754 -14.643  0.00  0.00    +0.043 C 
BRANCH  16  17
ATOM     17  CG  UNL     1      35.849 -23.167 -14.925  0.00  0.00    +0.112 C 
BRANCH  17  19
ATOM     18  OE2 UNL     1      38.106 -24.043 -14.644  0.00  0.00    -0.250 OA
ATOM     19  CD  UNL     1      36.947 -24.206 -15.001  0.00  0.00    +0.314 C 
BRANCH  19  20
ATOM     20  OE1 UNL     1      36.504 -25.362 -15.562  0.00  0.00    -0.480 OA
ATOM     21  HE1 UNL     1      37.047 -25.825 -16.169  0.00  0.00    +0.295 HD
ENDBRANCH  19  20
ENDBRANCH  17  19
ENDBRANCH  16  17
ENDBRANCH  11  16
ENDBRANCH   8  11
ENDBRANCH   2   9
BRANCH   1  22
ATOM     22  N   UNL     1      35.577 -19.044 -21.776  0.00  0.00    -0.302 N 
ATOM     23  C   UNL     1      36.998 -18.781 -21.882  0.00  0.00    +0.112 C 
BRANCH  22  24
ATOM     24  C   UNL     1      34.656 -18.298 -22.612  0.00  0.00    +0.118 C 
BRANCH  24  29
ATOM     25  O   UNL     1      34.553 -14.914 -21.128  0.00  0.00    -0.427 OA
ATOM     26  N   UNL     1      33.859 -13.390 -22.831  0.00  0.00    -0.294 NA
ATOM     27  N   UNL     1      33.428 -14.449 -24.982  0.00  0.00    -0.317 NA
ATOM     28  N   UNL     1      33.164 -12.143 -24.684  0.00  0.00    -0.283 N 
ATOM     29  C   UNL     1      34.525 -16.841 -22.291  0.00  0.00    +0.031 C 
ATOM     30  C   UNL     1      34.129 -15.796 -23.160  0.00  0.00    +0.180 C 
ATOM     31  C   UNL     1      34.162 -14.628 -22.403  0.00  0.00    +0.281 C 
ATOM     32  C   UNL     1      34.770 -16.253 -21.071  0.00  0.00    +0.176 C 
ATOM     33  C   UNL     1      33.746 -15.670 -24.493  0.00  0.00    +0.181 C 
ATOM     34  C   UNL     1      33.504 -13.400 -24.132  0.00  0.00    +0.200 C 
ATOM     35  H   UNL     1      33.196 -11.334 -24.122  0.00  0.00    +0.156 HD
ATOM     36  H   UNL     1      32.895 -12.076 -25.628  0.00  0.00    +0.156 HD
ATOM     37  N   UNL     1      33.682 -16.793 -25.338  0.00  0.00    -0.335 N 
ATOM     38  H   UNL     1      33.409 -16.687 -26.277  0.00  0.00    +0.144 HD
ATOM     39  H   UNL     1      33.910 -17.685 -24.990  0.00  0.00    +0.144 HD
ENDBRANCH  24  29
ENDBRANCH  22  24
ENDBRANCH   1  22
TORSDOF 11
ENDMDL
MODEL 9
REMARK VINA RESULT:     -10.7      3.977     10.707
REMARK  Name = 158376
REMARK  11 active torsions:
REMARK  status: ('A' for Active; 'I' for Inactive)
REMARK    1  A    between atoms: C_1  and  N_22
REMARK    2  A    between atoms: C_2  and  C_9
REMARK    3  A    between atoms: N_8  and  CA_11
REMARK    4  A    between atoms: CA_11  and  C_13
REMARK    5  A    between atoms: CA_11  and  CB_16
REMARK    6  A    between atoms: C_13  and  O_14
REMARK    7  A    between atoms: CB_16  and  CG_17
REMARK    8  A    between atoms: CG_17  and  CD_19
REMARK    9  A    between atoms: CD_19  and  OE1_20
REMARK   10  A    between atoms: N_22  and  C_24
REMARK   11  A    between atoms: C_24  and  C_29
REMARK                            x       y       z     vdW  Elec       q    Type
REMARK                         _______ _______ _______ _____ _____    ______ ____
ROOT
ATOM      1  C   UNL     1      34.457 -17.557 -23.533  0.00  0.00    +0.048 C 
ATOM      2  C   UNL     1      33.736 -14.983 -24.336  0.00  0.00    +0.053 C 
ATOM      3  C   UNL     1      34.789 -16.460 -22.737  0.00  0.00    +0.015 C 
ATOM      4  C   UNL     1      33.765 -17.368 -24.729  0.00  0.00    +0.015 C 
ATOM      5  C   UNL     1      34.429 -15.174 -23.139  0.00  0.00    +0.006 C 
ATOM      6  C   UNL     1      33.405 -16.080 -25.130  0.00  0.00    +0.006 C 
ENDROOT
BRANCH   2   9
ATOM      7  O   UNL     1      32.652 -13.471 -25.761  0.00  0.00    -0.270 OA
ATOM      8  N   UNL     1      33.810 -12.577 -23.961  0.00  0.00    -0.293 N 
ATOM      9  C   ACE A   0      33.352 -13.613 -24.762  0.00  0.00    +0.246 C 
ATOM     10  H   UNL     1      34.367 -12.793 -23.179  0.00  0.00    +0.150 HD
BRANCH   8  11
ATOM     11  CA  UNL     1      33.500 -11.195 -24.229  0.00  0.00    +0.172 C 
BRANCH  11  13
ATOM     12  OXT UNL     1      34.814 -10.671 -26.212  0.00  0.00    -0.248 OA
ATOM     13  C   UNL     1      34.665 -10.605 -24.998  0.00  0.00    +0.332 C 
BRANCH  13  14
ATOM     14  O   UNL     1      35.530  -9.947 -24.183  0.00  0.00    -0.479 OA
ATOM     15  H   UNL     1      36.218 -10.415 -23.754  0.00  0.00    +0.295 HD
ENDBRANCH  13  14
ENDBRANCH  11  13
BRANCH  11  16
ATOM     16  CB  UNL     1      33.135 -10.412 -22.962  0.00  0.00    +0.043 C 
BRANCH  16  17
ATOM     17  CG  UNL     1      31.650 -10.418 -22.578  0.00  0.00    +0.112 C 
BRANCH  17  19
ATOM     18  OE2 UNL     1      31.901 -12.593 -21.509  0.00  0.00    -0.250 OA
ATOM     19  CD  UNL     1      31.259 -11.565 -21.671  0.00  0.00    +0.314 C 
BRANCH  19  20
ATOM     20  OE1 UNL     1      30.062 -11.339 -21.068  0.00  0.00    -0.480 OA
ATOM     21  HE1 UNL     1      29.823 -10.470 -20.812  0.00  0.00    +0.295 HD
ENDBRANCH  19  20
ENDBRANCH  17  19
ENDBRANCH  16  17
ENDBRANCH  11  16
ENDBRANCH   8  11
ENDBRANCH   2   9
BRANCH   1  22
ATOM     22  N   UNL     1      34.820 -18.858 -23.127  0.00  0.00    -0.302 N 
ATOM     23  C   UNL     1      34.963 -19.918 -24.105  0.00  0.00    +0.112 C 
BRANCH  22  24
ATOM     24  C   UNL     1      35.069 -19.148 -21.729  0.00  0.00    +0.118 C 
BRANCH  24  29
ATOM     25  O   UNL     1      31.899 -20.492 -20.385  0.00  0.00    -0.427 OA
ATOM     26  N   UNL     1      32.441 -22.120 -18.725  0.00  0.00    -0.294 NA
ATOM     27  N   UNL     1      34.835 -22.427 -18.393  0.00  0.00    -0.317 NA
ATOM     28  N   UNL     1      33.266 -23.651 -17.160  0.00  0.00    -0.283 N 
ATOM     29  C   UNL     1      33.969 -19.863 -21.009  0.00  0.00    +0.031 C 
ATOM     30  C   UNL     1      34.092 -20.851 -20.002  0.00  0.00    +0.180 C 
ATOM     31  C   UNL     1      32.795 -21.210 -19.648  0.00  0.00    +0.281 C 
ATOM     32  C   UNL     1      32.619 -19.681 -21.203  0.00  0.00    +0.176 C 
ATOM     33  C   UNL     1      35.128 -21.500 -19.333  0.00  0.00    +0.181 C 
ATOM     34  C   UNL     1      33.528 -22.676 -18.151  0.00  0.00    +0.200 C 
ATOM     35  H   UNL     1      32.337 -23.883 -16.932  0.00  0.00    +0.156 HD
ATOM     36  H   UNL     1      34.013 -24.098 -16.700  0.00  0.00    +0.156 HD
ATOM     37  N   UNL     1      36.473 -21.205 -19.621  0.00  0.00    -0.335 N 
ATOM     38  H   UNL     1      37.193 -21.673 -19.140  0.00  0.00    +0.144 HD
ATOM     39  H   UNL     1      36.695 -20.531 -20.304  0.00  0.00    +0.144 HD
ENDBRANCH  24  29
ENDBRANCH  22  24
ENDBRANCH   1  22
TORSDOF 11
ENDMDL
