MODEL 1
REMARK VINA RESULT:     -12.4      0.000      0.000
REMARK  Name = 657140
REMARK  9 active torsions:
REMARK  status: ('A' for Active; 'I' for Inactive)
REMARK    1  A    between atoms: C_1  and  N_8
REMARK    2  A    between atoms: C_2  and  O_20
REMARK    3  A    between atoms: C_9  and  C_11
REMARK    4  A    between atoms: C_14  and  N_19
REMARK    5  A    between atoms: O_20  and  C_21
REMARK    6  A    between atoms: C_22  and  C_28
REMARK    7  A    between atoms: C_24  and  C_32
REMARK    8  A    between atoms: C_28  and  O_29
REMARK    9  A    between atoms: C_32  and  O_33
REMARK                            x       y       z     vdW  Elec       q    Type
REMARK                         _______ _______ _______ _____ _____    ______ ____
ROOT
ATOM      1  C   UNL     1      31.173 -23.422 -16.220  0.00  0.00    +0.086 C 
ATOM      2  C   UNL     1      31.832 -23.564 -15.010  0.00  0.00    +0.159 C 
ATOM      3  C   UNL     1      29.961 -24.049 -16.461  0.00  0.00    +0.018 C 
ATOM      4  C   UNL     1      31.264 -24.358 -14.014  0.00  0.00    +0.039 C 
ATOM      5  C   UNL     1      29.394 -24.843 -15.465  0.00  0.00    +0.001 C 
ATOM      6  C   UNL     1      30.045 -24.996 -14.240  0.00  0.00    +0.003 C 
ENDROOT
BRANCH   1   8
ATOM      7  O   UNL     1      33.436 -23.985 -18.104  0.00  0.00    -0.270 OA
ATOM      8  N   UNL     1      31.736 -22.618 -17.242  0.00  0.00    -0.278 N 
ATOM      9  C   UNL     1      32.799 -22.920 -18.105  0.00  0.00    +0.250 C 
ATOM     10  H   UNL     1      31.327 -21.730 -17.362  0.00  0.00    +0.155 HD
BRANCH   9  11
ATOM     11  C   UNL     1      33.173 -21.873 -19.041  0.00  0.00    +0.055 C 
ATOM     12  C   UNL     1      34.519 -21.563 -19.239  0.00  0.00    +0.029 C 
ATOM     13  C   UNL     1      32.188 -21.180 -19.744  0.00  0.00    +0.005 C 
ATOM     14  C   UNL     1      34.878 -20.560 -20.140  0.00  0.00    +0.143 C 
ATOM     15  C   UNL     1      32.546 -20.177 -20.644  0.00  0.00    +0.002 C 
ATOM     16  C   UNL     1      33.892 -19.867 -20.841  0.00  0.00    +0.024 C 
BRANCH  14  19
ATOM     17  O   UNL     1      37.104 -21.156 -20.238  0.00  0.00    -0.126 OA
ATOM     18  O   UNL     1      36.565 -19.063 -20.621  0.00  0.00    -0.126 OA
ATOM     19  N   UNL     1      36.248 -20.244 -20.343  0.00  0.00    +0.058 N 
ENDBRANCH  14  19
ENDBRANCH   9  11
ENDBRANCH   1   8
BRANCH   2  20
ATOM     20  O   UNL     1      33.023 -22.948 -14.768  0.00  0.00    -0.452 OA
BRANCH  20  21
ATOM     21  C   UNL     1      34.049 -23.717 -14.245  0.00  0.00    +0.146 C 
ATOM     22  C   UNL     1      35.461 -24.307 -12.402  0.00  0.00    +0.085 C 
ATOM     23  C   UNL     1      34.429 -23.531 -12.928  0.00  0.00    +0.044 C 
ATOM     24  C   UNL     1      36.097 -25.257 -13.201  0.00  0.00    +0.082 C 
ATOM     25  C   UNL     1      34.667 -24.654 -15.054  0.00  0.00    +0.038 C 
ATOM     26  C   UNL     1      35.700 -25.430 -14.527  0.00  0.00    +0.010 C 
BRANCH  22  28
ATOM     27  O   UNL     1      35.330 -24.648 -10.038  0.00  0.00    -0.245 OA
ATOM     28  C   UNL     1      35.853 -24.102 -11.014  0.00  0.00    +0.338 C 
BRANCH  28  29
ATOM     29  O   UNL     1      36.883 -23.224 -10.890  0.00  0.00    -0.477 OA
ATOM     30  H   UNL     1      36.816 -22.505 -10.293  0.00  0.00    +0.295 HD
ENDBRANCH  28  29
ENDBRANCH  22  28
BRANCH  24  32
ATOM     31  O   UNL     1      38.317 -26.149 -13.157  0.00  0.00    -0.245 OA
ATOM     32  C   UNL     1      37.179 -26.082 -12.682  0.00  0.00    +0.338 C 
BRANCH  32  33
ATOM     33  O   UNL     1      36.805 -26.797 -11.588  0.00  0.00    -0.477 OA
ATOM     34  H   UNL     1      36.085 -27.395 -11.642  0.00  0.00    +0.295 HD
ENDBRANCH  32  33
ENDBRANCH  24  32
ENDBRANCH  20  21
ENDBRANCH   2  20
TORSDOF 9
ENDMDL
MODEL 2
REMARK VINA RESULT:     -11.2      1.111      2.121
REMARK  Name = 657140
REMARK  9 active torsions:
REMARK  status: ('A' for Active; 'I' for Inactive)
REMARK    1  A    between atoms: C_1  and  N_8
REMARK    2  A    between atoms: C_2  and  O_20
REMARK    3  A    between atoms: C_9  and  C_11
REMARK    4  A    between atoms: C_14  and  N_19
REMARK    5  A    between atoms: O_20  and  C_21
REMARK    6  A    between atoms: C_22  and  C_28
REMARK    7  A    between atoms: C_24  and  C_32
REMARK    8  A    between atoms: C_28  and  O_29
REMARK    9  A    between atoms: C_32  and  O_33
REMARK                            x       y       z     vdW  Elec       q    Type
REMARK                         _______ _______ _______ _____ _____    ______ ____
ROOT
ATOM      1  C   UNL     1      31.560 -22.926 -16.815  0.00  0.00    +0.086 C 
ATOM      2  C   UNL     1      32.432 -23.552 -15.940  0.00  0.00    +0.159 C 
ATOM      3  C   UNL     1      30.189 -23.093 -16.710  0.00  0.00    +0.018 C 
ATOM      4  C   UNL     1      31.919 -24.368 -14.933  0.00  0.00    +0.039 C 
ATOM      5  C   UNL     1      29.675 -23.909 -15.703  0.00  0.00    +0.001 C 
ATOM      6  C   UNL     1      30.541 -24.547 -14.814  0.00  0.00    +0.003 C 
ENDROOT
BRANCH   1   8
ATOM      7  O   UNL     1      33.414 -23.555 -19.086  0.00  0.00    -0.270 OA
ATOM      8  N   UNL     1      32.065 -22.092 -17.843  0.00  0.00    -0.278 N 
ATOM      9  C   UNL     1      32.935 -22.427 -18.890  0.00  0.00    +0.250 C 
ATOM     10  H   UNL     1      31.767 -21.153 -17.817  0.00  0.00    +0.155 HD
BRANCH   9  11
ATOM     11  C   UNL     1      33.302 -21.338 -19.783  0.00  0.00    +0.055 C 
ATOM     12  C   UNL     1      34.626 -20.904 -19.844  0.00  0.00    +0.029 C 
ATOM     13  C   UNL     1      32.331 -20.731 -20.578  0.00  0.00    +0.005 C 
ATOM     14  C   UNL     1      34.978 -19.861 -20.702  0.00  0.00    +0.143 C 
ATOM     15  C   UNL     1      32.682 -19.688 -21.435  0.00  0.00    +0.002 C 
ATOM     16  C   UNL     1      34.006 -19.253 -21.496  0.00  0.00    +0.024 C 
BRANCH  14  19
ATOM     17  O   UNL     1      36.681 -18.689 -21.724  0.00  0.00    -0.126 OA
ATOM     18  O   UNL     1      37.126 -19.771 -19.867  0.00  0.00    -0.126 OA
ATOM     19  N   UNL     1      36.326 -19.419 -20.767  0.00  0.00    +0.058 N 
ENDBRANCH  14  19
ENDBRANCH   9  11
ENDBRANCH   1   8
BRANCH   2  20
ATOM     20  O   UNL     1      33.782 -23.389 -16.038  0.00  0.00    -0.452 OA
BRANCH  20  21
ATOM     21  C   UNL     1      34.563 -23.866 -14.999  0.00  0.00    +0.146 C 
ATOM     22  C   UNL     1      36.586 -24.894 -14.232  0.00  0.00    +0.085 C 
ATOM     23  C   UNL     1      35.801 -24.415 -15.280  0.00  0.00    +0.044 C 
ATOM     24  C   UNL     1      36.121 -24.817 -12.919  0.00  0.00    +0.082 C 
ATOM     25  C   UNL     1      34.083 -23.781 -13.703  0.00  0.00    +0.038 C 
ATOM     26  C   UNL     1      34.870 -24.261 -12.655  0.00  0.00    +0.010 C 
BRANCH  22  28
ATOM     27  O   UNL     1      38.934 -24.830 -14.685  0.00  0.00    -0.245 OA
ATOM     28  C   UNL     1      37.889 -25.469 -14.541  0.00  0.00    +0.338 C 
BRANCH  28  29
ATOM     29  O   UNL     1      37.843 -26.823 -14.660  0.00  0.00    -0.477 OA
ATOM     30  H   UNL     1      38.351 -27.253 -15.319  0.00  0.00    +0.295 HD
ENDBRANCH  28  29
ENDBRANCH  22  28
BRANCH  24  32
ATOM     31  O   UNL     1      37.646 -24.617 -11.087  0.00  0.00    -0.245 OA
ATOM     32  C   UNL     1      36.917 -25.309 -11.804  0.00  0.00    +0.338 C 
BRANCH  32  33
ATOM     33  O   UNL     1      36.778 -26.650 -11.619  0.00  0.00    -0.477 OA
ATOM     34  H   UNL     1      37.507 -27.220 -11.759  0.00  0.00    +0.295 HD
ENDBRANCH  32  33
ENDBRANCH  24  32
ENDBRANCH  20  21
ENDBRANCH   2  20
TORSDOF 9
ENDMDL
MODEL 3
REMARK VINA RESULT:     -10.8      3.027      8.739
REMARK  Name = 657140
REMARK  9 active torsions:
REMARK  status: ('A' for Active; 'I' for Inactive)
REMARK    1  A    between atoms: C_1  and  N_8
REMARK    2  A    between atoms: C_2  and  O_20
REMARK    3  A    between atoms: C_9  and  C_11
REMARK    4  A    between atoms: C_14  and  N_19
REMARK    5  A    between atoms: O_20  and  C_21
REMARK    6  A    between atoms: C_22  and  C_28
REMARK    7  A    between atoms: C_24  and  C_32
REMARK    8  A    between atoms: C_28  and  O_29
REMARK    9  A    between atoms: C_32  and  O_33
REMARK                            x       y       z     vdW  Elec       q    Type
REMARK                         _______ _______ _______ _____ _____    ______ ____
ROOT
ATOM      1  C   UNL     1      34.282 -22.833 -16.628  0.00  0.00    +0.086 C 
ATOM      2  C   UNL     1      34.677 -22.409 -17.885  0.00  0.00    +0.159 C 
ATOM      3  C   UNL     1      35.166 -22.852 -15.561  0.00  0.00    +0.018 C 
ATOM      4  C   UNL     1      35.994 -21.993 -18.082  0.00  0.00    +0.039 C 
ATOM      5  C   UNL     1      36.483 -22.437 -15.758  0.00  0.00    +0.001 C 
ATOM      6  C   UNL     1      36.897 -22.006 -17.020  0.00  0.00    +0.003 C 
ENDROOT
BRANCH   1   8
ATOM      7  O   UNL     1      32.731 -23.120 -14.078  0.00  0.00    -0.270 OA
ATOM      8  N   UNL     1      32.948 -23.257 -16.410  0.00  0.00    -0.278 N 
ATOM      9  C   UNL     1      32.258 -23.378 -15.196  0.00  0.00    +0.250 C 
ATOM     10  H   UNL     1      32.440 -23.500 -17.218  0.00  0.00    +0.155 HD
BRANCH   9  11
ATOM     11  C   UNL     1      30.893 -23.871 -15.289  0.00  0.00    +0.055 C 
ATOM     12  C   UNL     1      29.957 -23.189 -16.067  0.00  0.00    +0.029 C 
ATOM     13  C   UNL     1      30.520 -25.027 -14.603  0.00  0.00    +0.005 C 
ATOM     14  C   UNL     1      28.648 -23.663 -16.158  0.00  0.00    +0.143 C 
ATOM     15  C   UNL     1      29.211 -25.500 -14.692  0.00  0.00    +0.002 C 
ATOM     16  C   UNL     1      28.275 -24.819 -15.470  0.00  0.00    +0.024 C 
BRANCH  14  19
ATOM     17  O   UNL     1      27.461 -21.763 -16.704  0.00  0.00    -0.126 OA
ATOM     18  O   UNL     1      27.110 -23.586 -17.875  0.00  0.00    -0.126 OA
ATOM     19  N   UNL     1      27.694 -22.971 -16.950  0.00  0.00    +0.058 N 
ENDBRANCH  14  19
ENDBRANCH   9  11
ENDBRANCH   1   8
BRANCH   2  20
ATOM     20  O   UNL     1      33.811 -22.387 -18.937  0.00  0.00    -0.452 OA
BRANCH  20  21
ATOM     21  C   UNL     1      33.884 -21.311 -19.806  0.00  0.00    +0.146 C 
ATOM     22  C   UNL     1      35.197 -19.756 -21.071  0.00  0.00    +0.085 C 
ATOM     23  C   UNL     1      35.125 -20.839 -20.195  0.00  0.00    +0.044 C 
ATOM     24  C   UNL     1      34.027 -19.162 -21.543  0.00  0.00    +0.082 C 
ATOM     25  C   UNL     1      32.712 -20.734 -20.264  0.00  0.00    +0.038 C 
ATOM     26  C   UNL     1      32.785 -19.651 -21.139  0.00  0.00    +0.010 C 
BRANCH  22  28
ATOM     27  O   UNL     1      37.534 -19.334 -20.789  0.00  0.00    -0.245 OA
ATOM     28  C   UNL     1      36.509 -19.269 -21.473  0.00  0.00    +0.338 C 
BRANCH  28  29
ATOM     29  O   UNL     1      36.499 -18.717 -22.716  0.00  0.00    -0.477 OA
ATOM     30  H   UNL     1      35.696 -18.405 -23.083  0.00  0.00    +0.295 HD
ENDBRANCH  28  29
ENDBRANCH  22  28
BRANCH  24  32
ATOM     31  O   UNL     1      34.466 -16.896 -22.172  0.00  0.00    -0.245 OA
ATOM     32  C   UNL     1      34.069 -18.029 -22.457  0.00  0.00    +0.338 C 
BRANCH  32  33
ATOM     33  O   UNL     1      33.612 -18.348 -23.698  0.00  0.00    -0.477 OA
ATOM     34  H   UNL     1      32.848 -17.926 -24.039  0.00  0.00    +0.295 HD
ENDBRANCH  32  33
ENDBRANCH  24  32
ENDBRANCH  20  21
ENDBRANCH   2  20
TORSDOF 9
ENDMDL
MODEL 4
REMARK VINA RESULT:     -10.6      7.160     13.364
REMARK  Name = 657140
REMARK  9 active torsions:
REMARK  status: ('A' for Active; 'I' for Inactive)
REMARK    1  A    between atoms: C_1  and  N_8
REMARK    2  A    between atoms: C_2  and  O_20
REMARK    3  A    between atoms: C_9  and  C_11
REMARK    4  A    between atoms: C_14  and  N_19
REMARK    5  A    between atoms: O_20  and  C_21
REMARK    6  A    between atoms: C_22  and  C_28
REMARK    7  A    between atoms: C_24  and  C_32
REMARK    8  A    between atoms: C_28  and  O_29
REMARK    9  A    between atoms: C_32  and  O_33
REMARK                            x       y       z     vdW  Elec       q    Type
REMARK                         _______ _______ _______ _____ _____    ______ ____
ROOT
ATOM      1  C   UNL     1      32.948 -16.215 -25.454  0.00  0.00    +0.086 C 
ATOM      2  C   UNL     1      33.188 -14.857 -25.586  0.00  0.00    +0.159 C 
ATOM      3  C   UNL     1      32.167 -16.902 -26.369  0.00  0.00    +0.018 C 
ATOM      4  C   UNL     1      32.630 -14.167 -26.662  0.00  0.00    +0.039 C 
ATOM      5  C   UNL     1      31.608 -16.211 -27.445  0.00  0.00    +0.001 C 
ATOM      6  C   UNL     1      31.841 -14.843 -27.591  0.00  0.00    +0.003 C 
ENDROOT
BRANCH   1   8
ATOM      7  O   UNL     1      34.179 -18.946 -25.364  0.00  0.00    -0.270 OA
ATOM      8  N   UNL     1      33.508 -16.931 -24.368  0.00  0.00    -0.278 N 
ATOM      9  C   UNL     1      34.076 -18.213 -24.368  0.00  0.00    +0.250 C 
ATOM     10  H   UNL     1      33.496 -16.468 -23.499  0.00  0.00    +0.155 HD
BRANCH   9  11
ATOM     11  C   UNL     1      34.547 -18.698 -23.081  0.00  0.00    +0.055 C 
ATOM     12  C   UNL     1      33.683 -19.405 -22.244  0.00  0.00    +0.029 C 
ATOM     13  C   UNL     1      35.862 -18.458 -22.683  0.00  0.00    +0.005 C 
ATOM     14  C   UNL     1      34.136 -19.872 -21.010  0.00  0.00    +0.143 C 
ATOM     15  C   UNL     1      36.315 -18.924 -21.449  0.00  0.00    +0.002 C 
ATOM     16  C   UNL     1      35.451 -19.632 -20.613  0.00  0.00    +0.024 C 
BRANCH  14  19
ATOM     17  O   UNL     1      33.728 -21.500 -19.428  0.00  0.00    -0.126 OA
ATOM     18  O   UNL     1      32.037 -20.305 -20.158  0.00  0.00    -0.126 OA
ATOM     19  N   UNL     1      33.258 -20.594 -20.158  0.00  0.00    +0.058 N 
ENDBRANCH  14  19
ENDBRANCH   9  11
ENDBRANCH   1   8
BRANCH   2  20
ATOM     20  O   UNL     1      33.957 -14.177 -24.690  0.00  0.00    -0.452 OA
BRANCH  20  21
ATOM     21  C   UNL     1      33.446 -13.000 -24.169  0.00  0.00    +0.146 C 
ATOM     22  C   UNL     1      32.170 -11.860 -22.492  0.00  0.00    +0.085 C 
ATOM     23  C   UNL     1      32.683 -13.046 -23.016  0.00  0.00    +0.044 C 
ATOM     24  C   UNL     1      32.427 -10.647 -23.129  0.00  0.00    +0.082 C 
ATOM     25  C   UNL     1      33.712 -11.806 -24.816  0.00  0.00    +0.038 C 
ATOM     26  C   UNL     1      33.198 -10.620 -24.291  0.00  0.00    +0.010 C 
BRANCH  22  28
ATOM     27  O   UNL     1      31.778 -12.282 -20.170  0.00  0.00    -0.245 OA
ATOM     28  C   UNL     1      31.368 -11.922 -21.277  0.00  0.00    +0.338 C 
BRANCH  28  29
ATOM     29  O   UNL     1      30.082 -11.531 -21.483  0.00  0.00    -0.477 OA
ATOM     30  H   UNL     1      29.452 -12.146 -21.802  0.00  0.00    +0.295 HD
ENDBRANCH  28  29
ENDBRANCH  22  28
BRANCH  24  32
ATOM     31  O   UNL     1      30.801  -8.910 -22.879  0.00  0.00    -0.245 OA
ATOM     32  C   UNL     1      31.905  -9.391 -22.608  0.00  0.00    +0.338 C 
BRANCH  32  33
ATOM     33  O   UNL     1      32.778  -8.777 -21.765  0.00  0.00    -0.477 OA
ATOM     34  H   UNL     1      33.665  -9.075 -21.711  0.00  0.00    +0.295 HD
ENDBRANCH  32  33
ENDBRANCH  24  32
ENDBRANCH  20  21
ENDBRANCH   2  20
TORSDOF 9
ENDMDL
MODEL 5
REMARK VINA RESULT:     -10.6      2.284      5.424
REMARK  Name = 657140
REMARK  9 active torsions:
REMARK  status: ('A' for Active; 'I' for Inactive)
REMARK    1  A    between atoms: C_1  and  N_8
REMARK    2  A    between atoms: C_2  and  O_20
REMARK    3  A    between atoms: C_9  and  C_11
REMARK    4  A    between atoms: C_14  and  N_19
REMARK    5  A    between atoms: O_20  and  C_21
REMARK    6  A    between atoms: C_22  and  C_28
REMARK    7  A    between atoms: C_24  and  C_32
REMARK    8  A    between atoms: C_28  and  O_29
REMARK    9  A    between atoms: C_32  and  O_33
REMARK                            x       y       z     vdW  Elec       q    Type
REMARK                         _______ _______ _______ _____ _____    ______ ____
ROOT
ATOM      1  C   UNL     1      35.480 -24.342 -14.745  0.00  0.00    +0.086 C 
ATOM      2  C   UNL     1      34.832 -24.111 -13.543  0.00  0.00    +0.159 C 
ATOM      3  C   UNL     1      36.551 -25.216 -14.831  0.00  0.00    +0.018 C 
ATOM      4  C   UNL     1      35.268 -24.771 -12.395  0.00  0.00    +0.039 C 
ATOM      5  C   UNL     1      36.988 -25.876 -13.683  0.00  0.00    +0.001 C 
ATOM      6  C   UNL     1      36.345 -25.654 -12.464  0.00  0.00    +0.003 C 
ENDROOT
BRANCH   1   8
ATOM      7  O   UNL     1      36.886 -22.328 -16.463  0.00  0.00    -0.270 OA
ATOM      8  N   UNL     1      35.048 -23.680 -15.921  0.00  0.00    -0.278 N 
ATOM      9  C   UNL     1      35.740 -22.740 -16.697  0.00  0.00    +0.250 C 
ATOM     10  H   UNL     1      34.143 -23.911 -16.233  0.00  0.00    +0.155 HD
BRANCH   9  11
ATOM     11  C   UNL     1      35.018 -22.211 -17.844  0.00  0.00    +0.055 C 
ATOM     12  C   UNL     1      35.659 -21.347 -18.732  0.00  0.00    +0.029 C 
ATOM     13  C   UNL     1      33.687 -22.569 -18.057  0.00  0.00    +0.005 C 
ATOM     14  C   UNL     1      34.968 -20.840 -19.833  0.00  0.00    +0.143 C 
ATOM     15  C   UNL     1      32.995 -22.062 -19.156  0.00  0.00    +0.002 C 
ATOM     16  C   UNL     1      33.636 -21.198 -20.044  0.00  0.00    +0.024 C 
BRANCH  14  19
ATOM     17  O   UNL     1      35.107 -19.762 -21.867  0.00  0.00    -0.126 OA
ATOM     18  O   UNL     1      36.689 -19.408 -20.386  0.00  0.00    -0.126 OA
ATOM     19  N   UNL     1      35.619 -19.961 -20.738  0.00  0.00    +0.058 N 
ENDBRANCH  14  19
ENDBRANCH   9  11
ENDBRANCH   1   8
BRANCH   2  20
ATOM     20  O   UNL     1      33.776 -23.253 -13.453  0.00  0.00    -0.452 OA
BRANCH  20  21
ATOM     21  C   UNL     1      32.547 -23.699 -13.909  0.00  0.00    +0.146 C 
ATOM     22  C   UNL     1      30.566 -23.339 -15.208  0.00  0.00    +0.085 C 
ATOM     23  C   UNL     1      31.804 -22.889 -14.749  0.00  0.00    +0.044 C 
ATOM     24  C   UNL     1      30.091 -24.592 -14.820  0.00  0.00    +0.082 C 
ATOM     25  C   UNL     1      32.093 -24.945 -13.513  0.00  0.00    +0.038 C 
ATOM     26  C   UNL     1      30.856 -25.395 -13.973  0.00  0.00    +0.010 C 
BRANCH  22  28
ATOM     27  O   UNL     1      30.099 -22.185 -17.250  0.00  0.00    -0.245 OA
ATOM     28  C   UNL     1      29.793 -22.477 -16.092  0.00  0.00    +0.338 C 
BRANCH  28  29
ATOM     29  O   UNL     1      28.662 -22.009 -15.500  0.00  0.00    -0.477 OA
ATOM     30  H   UNL     1      28.059 -21.485 -15.990  0.00  0.00    +0.295 HD
ENDBRANCH  28  29
ENDBRANCH  22  28
BRANCH  24  32
ATOM     31  O   UNL     1      28.340 -24.930 -16.415  0.00  0.00    -0.245 OA
ATOM     32  C   UNL     1      28.803 -25.090 -15.282  0.00  0.00    +0.338 C 
BRANCH  32  33
ATOM     33  O   UNL     1      28.135 -25.772 -14.313  0.00  0.00    -0.477 OA
ATOM     34  H   UNL     1      27.866 -25.333 -13.531  0.00  0.00    +0.295 HD
ENDBRANCH  32  33
ENDBRANCH  24  32
ENDBRANCH  20  21
ENDBRANCH   2  20
TORSDOF 9
ENDMDL
MODEL 6
REMARK VINA RESULT:     -10.2      7.449     13.829
REMARK  Name = 657140
REMARK  9 active torsions:
REMARK  status: ('A' for Active; 'I' for Inactive)
REMARK    1  A    between atoms: C_1  and  N_8
REMARK    2  A    between atoms: C_2  and  O_20
REMARK    3  A    between atoms: C_9  and  C_11
REMARK    4  A    between atoms: C_14  and  N_19
REMARK    5  A    between atoms: O_20  and  C_21
REMARK    6  A    between atoms: C_22  and  C_28
REMARK    7  A    between atoms: C_24  and  C_32
REMARK    8  A    between atoms: C_28  and  O_29
REMARK    9  A    between atoms: C_32  and  O_33
REMARK                            x       y       z     vdW  Elec       q    Type
REMARK                         _______ _______ _______ _____ _____    ______ ____
ROOT
ATOM      1  C   UNL     1      33.049 -16.116 -25.387  0.00  0.00    +0.086 C 
ATOM      2  C   UNL     1      33.255 -14.748 -25.452  0.00  0.00    +0.159 C 
ATOM      3  C   UNL     1      32.324 -16.784 -26.360  0.00  0.00    +0.018 C 
ATOM      4  C   UNL     1      32.719 -14.027 -26.519  0.00  0.00    +0.039 C 
ATOM      5  C   UNL     1      31.789 -16.064 -27.428  0.00  0.00    +0.001 C 
ATOM      6  C   UNL     1      31.987 -14.685 -27.507  0.00  0.00    +0.003 C 
ENDROOT
BRANCH   1   8
ATOM      7  O   UNL     1      34.134 -18.910 -25.316  0.00  0.00    -0.270 OA
ATOM      8  N   UNL     1      33.587 -16.862 -24.310  0.00  0.00    -0.278 N 
ATOM      9  C   UNL     1      34.086 -18.172 -24.319  0.00  0.00    +0.250 C 
ATOM     10  H   UNL     1      33.614 -16.400 -23.440  0.00  0.00    +0.155 HD
BRANCH   9  11
ATOM     11  C   UNL     1      34.550 -18.684 -23.039  0.00  0.00    +0.055 C 
ATOM     12  C   UNL     1      33.676 -19.391 -22.213  0.00  0.00    +0.029 C 
ATOM     13  C   UNL     1      35.868 -18.469 -22.639  0.00  0.00    +0.005 C 
ATOM     14  C   UNL     1      34.122 -19.883 -20.986  0.00  0.00    +0.143 C 
ATOM     15  C   UNL     1      36.314 -18.960 -21.412  0.00  0.00    +0.002 C 
ATOM     16  C   UNL     1      35.441 -19.667 -20.586  0.00  0.00    +0.024 C 
BRANCH  14  19
ATOM     17  O   UNL     1      32.010 -20.332 -20.177  0.00  0.00    -0.126 OA
ATOM     18  O   UNL     1      33.698 -21.494 -19.391  0.00  0.00    -0.126 OA
ATOM     19  N   UNL     1      33.234 -20.604 -20.144  0.00  0.00    +0.058 N 
ENDBRANCH  14  19
ENDBRANCH   9  11
ENDBRANCH   1   8
BRANCH   2  20
ATOM     20  O   UNL     1      33.968 -14.086 -24.498  0.00  0.00    -0.452 OA
BRANCH  20  21
ATOM     21  C   UNL     1      33.394 -12.960 -23.932  0.00  0.00    +0.146 C 
ATOM     22  C   UNL     1      33.210 -10.575 -23.798  0.00  0.00    +0.085 C 
ATOM     23  C   UNL     1      33.790 -11.708 -24.367  0.00  0.00    +0.044 C 
ATOM     24  C   UNL     1      32.243 -10.712 -22.802  0.00  0.00    +0.082 C 
ATOM     25  C   UNL     1      32.435 -13.117 -22.946  0.00  0.00    +0.038 C 
ATOM     26  C   UNL     1      31.855 -11.983 -22.377  0.00  0.00    +0.010 C 
BRANCH  22  28
ATOM     27  O   UNL     1      34.674  -8.688 -23.925  0.00  0.00    -0.245 OA
ATOM     28  C   UNL     1      33.636  -9.262 -24.264  0.00  0.00    +0.338 C 
BRANCH  28  29
ATOM     29  O   UNL     1      32.753  -8.710 -25.138  0.00  0.00    -0.477 OA
ATOM     30  H   UNL     1      31.845  -8.935 -25.091  0.00  0.00    +0.295 HD
ENDBRANCH  28  29
ENDBRANCH  22  28
BRANCH  24  32
ATOM     31  O   UNL     1      30.676  -8.909 -22.664  0.00  0.00    -0.245 OA
ATOM     32  C   UNL     1      31.619  -9.549 -22.187  0.00  0.00    +0.338 C 
BRANCH  32  33
ATOM     33  O   UNL     1      32.191  -9.222 -20.998  0.00  0.00    -0.477 OA
ATOM     34  H   UNL     1      33.085  -9.449 -20.830  0.00  0.00    +0.295 HD
ENDBRANCH  32  33
ENDBRANCH  24  32
ENDBRANCH  20  21
ENDBRANCH   2  20
TORSDOF 9
ENDMDL
MODEL 7
REMARK VINA RESULT:     -10.2      2.622      5.974
REMARK  Name = 657140
REMARK  9 active torsions:
REMARK  status: ('A' for Active; 'I' for Inactive)
REMARK    1  A    between atoms: C_1  and  N_8
REMARK    2  A    between atoms: C_2  and  O_20
REMARK    3  A    between atoms: C_9  and  C_11
REMARK    4  A    between atoms: C_14  and  N_19
REMARK    5  A    between atoms: O_20  and  C_21
REMARK    6  A    between atoms: C_22  and  C_28
REMARK    7  A    between atoms: C_24  and  C_32
REMARK    8  A    between atoms: C_28  and  O_29
REMARK    9  A    between atoms: C_32  and  O_33
REMARK                            x       y       z     vdW  Elec       q    Type
REMARK                         _______ _______ _______ _____ _____    ______ ____
ROOT
ATOM      1  C   UNL     1      33.413 -22.353 -18.177  0.00  0.00    +0.086 C 
ATOM      2  C   UNL     1      34.619 -22.383 -17.496  0.00  0.00    +0.159 C 
ATOM      3  C   UNL     1      33.318 -21.826 -19.455  0.00  0.00    +0.018 C 
ATOM      4  C   UNL     1      35.761 -21.868 -18.110  0.00  0.00    +0.039 C 
ATOM      5  C   UNL     1      34.460 -21.311 -20.068  0.00  0.00    +0.001 C 
ATOM      6  C   UNL     1      35.682 -21.333 -19.395  0.00  0.00    +0.003 C 
ENDROOT
BRANCH   1   8
ATOM      7  O   UNL     1      32.740 -22.733 -15.280  0.00  0.00    -0.270 OA
ATOM      8  N   UNL     1      32.244 -22.873 -17.569  0.00  0.00    -0.278 N 
ATOM      9  C   UNL     1      31.968 -23.035 -16.204  0.00  0.00    +0.250 C 
ATOM     10  H   UNL     1      31.532 -23.159 -18.186  0.00  0.00    +0.155 HD
BRANCH   9  11
ATOM     11  C   UNL     1      30.680 -23.628 -15.883  0.00  0.00    +0.055 C 
ATOM     12  C   UNL     1      29.508 -23.069 -16.394  0.00  0.00    +0.029 C 
ATOM     13  C   UNL     1      30.615 -24.756 -15.065  0.00  0.00    +0.005 C 
ATOM     14  C   UNL     1      28.272 -23.639 -16.088  0.00  0.00    +0.143 C 
ATOM     15  C   UNL     1      29.380 -25.326 -14.758  0.00  0.00    +0.002 C 
ATOM     16  C   UNL     1      28.209 -24.767 -15.269  0.00  0.00    +0.024 C 
BRANCH  14  19
ATOM     17  O   UNL     1      26.254 -22.557 -15.816  0.00  0.00    -0.126 OA
ATOM     18  O   UNL     1      26.882 -23.104 -17.848  0.00  0.00    -0.126 OA
ATOM     19  N   UNL     1      27.079 -23.073 -16.609  0.00  0.00    +0.058 N 
ENDBRANCH  14  19
ENDBRANCH   9  11
ENDBRANCH   1   8
BRANCH   2  20
ATOM     20  O   UNL     1      34.718 -22.902 -16.240  0.00  0.00    -0.452 OA
BRANCH  20  21
ATOM     21  C   UNL     1      35.919 -23.491 -15.883  0.00  0.00    +0.146 C 
ATOM     22  C   UNL     1      37.121 -25.352 -14.971  0.00  0.00    +0.085 C 
ATOM     23  C   UNL     1      35.911 -24.760 -15.330  0.00  0.00    +0.044 C 
ATOM     24  C   UNL     1      38.320 -24.668 -15.170  0.00  0.00    +0.082 C 
ATOM     25  C   UNL     1      37.098 -22.796 -16.088  0.00  0.00    +0.038 C 
ATOM     26  C   UNL     1      38.308 -23.390 -15.729  0.00  0.00    +0.010 C 
BRANCH  22  28
ATOM     27  O   UNL     1      37.602 -27.695 -14.899  0.00  0.00    -0.245 OA
ATOM     28  C   UNL     1      37.100 -26.688 -14.390  0.00  0.00    +0.338 C 
BRANCH  28  29
ATOM     29  O   UNL     1      36.454 -26.724 -13.194  0.00  0.00    -0.477 OA
ATOM     30  H   UNL     1      36.654 -27.396 -12.574  0.00  0.00    +0.295 HD
ENDBRANCH  28  29
ENDBRANCH  22  28
BRANCH  24  32
ATOM     31  O   UNL     1      40.196 -25.069 -13.742  0.00  0.00    -0.245 OA
ATOM     32  C   UNL     1      39.600 -25.259 -14.806  0.00  0.00    +0.338 C 
BRANCH  32  33
ATOM     33  O   UNL     1      40.093 -26.069 -15.781  0.00  0.00    -0.477 OA
ATOM     34  H   UNL     1      39.854 -25.924 -16.675  0.00  0.00    +0.295 HD
ENDBRANCH  32  33
ENDBRANCH  24  32
ENDBRANCH  20  21
ENDBRANCH   2  20
TORSDOF 9
ENDMDL
MODEL 8
REMARK VINA RESULT:     -10.1      8.816     13.951
REMARK  Name = 657140
REMARK  9 active torsions:
REMARK  status: ('A' for Active; 'I' for Inactive)
REMARK    1  A    between atoms: C_1  and  N_8
REMARK    2  A    between atoms: C_2  and  O_20
REMARK    3  A    between atoms: C_9  and  C_11
REMARK    4  A    between atoms: C_14  and  N_19
REMARK    5  A    between atoms: O_20  and  C_21
REMARK    6  A    between atoms: C_22  and  C_28
REMARK    7  A    between atoms: C_24  and  C_32
REMARK    8  A    between atoms: C_28  and  O_29
REMARK    9  A    between atoms: C_32  and  O_33
REMARK                            x       y       z     vdW  Elec       q    Type
REMARK                         _______ _______ _______ _____ _____    ______ ____
ROOT
ATOM      1  C   UNL     1      32.828 -14.145 -26.035  0.00  0.00    +0.086 C 
ATOM      2  C   UNL     1      33.106 -12.854 -25.619  0.00  0.00    +0.159 C 
ATOM      3  C   UNL     1      32.112 -14.391 -27.196  0.00  0.00    +0.018 C 
ATOM      4  C   UNL     1      32.655 -11.778 -26.384  0.00  0.00    +0.039 C 
ATOM      5  C   UNL     1      31.661 -13.315 -27.961  0.00  0.00    +0.001 C 
ATOM      6  C   UNL     1      31.933 -12.008 -27.554  0.00  0.00    +0.003 C 
ENDROOT
BRANCH   1   8
ATOM      7  O   UNL     1      33.764 -16.855 -26.911  0.00  0.00    -0.270 OA
ATOM      8  N   UNL     1      33.280 -15.248 -25.271  0.00  0.00    -0.278 N 
ATOM      9  C   UNL     1      33.711 -16.504 -25.721  0.00  0.00    +0.250 C 
ATOM     10  H   UNL     1      33.293 -15.116 -24.295  0.00  0.00    +0.155 HD
BRANCH   9  11
ATOM     11  C   UNL     1      34.093 -17.452 -24.687  0.00  0.00    +0.055 C 
ATOM     12  C   UNL     1      34.434 -16.995 -23.414  0.00  0.00    +0.029 C 
ATOM     13  C   UNL     1      34.115 -18.819 -24.967  0.00  0.00    +0.005 C 
ATOM     14  C   UNL     1      34.798 -17.905 -22.421  0.00  0.00    +0.143 C 
ATOM     15  C   UNL     1      34.480 -19.728 -23.975  0.00  0.00    +0.002 C 
ATOM     16  C   UNL     1      34.822 -19.271 -22.702  0.00  0.00    +0.024 C 
BRANCH  14  19
ATOM     17  O   UNL     1      34.809 -16.281 -20.784  0.00  0.00    -0.126 OA
ATOM     18  O   UNL     1      35.777 -18.204 -20.354  0.00  0.00    -0.126 OA
ATOM     19  N   UNL     1      35.145 -17.441 -21.124  0.00  0.00    +0.058 N 
ENDBRANCH  14  19
ENDBRANCH   9  11
ENDBRANCH   1   8
BRANCH   2  20
ATOM     20  O   UNL     1      33.811 -12.607 -24.479  0.00  0.00    -0.452 OA
BRANCH  20  21
ATOM     21  C   UNL     1      33.109 -12.145 -23.378  0.00  0.00    +0.146 C 
ATOM     22  C   UNL     1      32.166 -10.325 -22.139  0.00  0.00    +0.085 C 
ATOM     23  C   UNL     1      32.873 -10.788 -23.248  0.00  0.00    +0.044 C 
ATOM     24  C   UNL     1      31.706 -11.225 -21.179  0.00  0.00    +0.082 C 
ATOM     25  C   UNL     1      32.661 -13.054 -22.436  0.00  0.00    +0.038 C 
ATOM     26  C   UNL     1      31.953 -12.589 -21.328  0.00  0.00    +0.010 C 
BRANCH  22  28
ATOM     27  O   UNL     1      32.688  -8.086 -21.479  0.00  0.00    -0.245 OA
ATOM     28  C   UNL     1      31.923  -8.893 -22.013  0.00  0.00    +0.338 C 
BRANCH  28  29
ATOM     29  O   UNL     1      30.736  -8.518 -22.559  0.00  0.00    -0.477 OA
ATOM     30  H   UNL     1      30.582  -8.639 -23.475  0.00  0.00    +0.295 HD
ENDBRANCH  28  29
ENDBRANCH  22  28
BRANCH  24  32
ATOM     31  O   UNL     1      31.431 -10.647 -18.873  0.00  0.00    -0.245 OA
ATOM     32  C   UNL     1      30.965 -10.772 -20.010  0.00  0.00    +0.338 C 
BRANCH  32  33
ATOM     33  O   UNL     1      29.665 -10.491 -20.297  0.00  0.00    -0.477 OA
ATOM     34  H   UNL     1      29.273  -9.705 -19.971  0.00  0.00    +0.295 HD
ENDBRANCH  32  33
ENDBRANCH  24  32
ENDBRANCH  20  21
ENDBRANCH   2  20
TORSDOF 9
ENDMDL
MODEL 9
REMARK VINA RESULT:     -10.0      2.551      5.725
REMARK  Name = 657140
REMARK  9 active torsions:
REMARK  status: ('A' for Active; 'I' for Inactive)
REMARK    1  A    between atoms: C_1  and  N_8
REMARK    2  A    between atoms: C_2  and  O_20
REMARK    3  A    between atoms: C_9  and  C_11
REMARK    4  A    between atoms: C_14  and  N_19
REMARK    5  A    between atoms: O_20  and  C_21
REMARK    6  A    between atoms: C_22  and  C_28
REMARK    7  A    between atoms: C_24  and  C_32
REMARK    8  A    between atoms: C_28  and  O_29
REMARK    9  A    between atoms: C_32  and  O_33
REMARK                            x       y       z     vdW  Elec       q    Type
REMARK                         _______ _______ _______ _____ _____    ______ ____
ROOT
ATOM      1  C   UNL     1      33.110 -22.443 -18.166  0.00  0.00    +0.086 C 
ATOM      2  C   UNL     1      34.291 -22.996 -17.700  0.00  0.00    +0.159 C 
ATOM      3  C   UNL     1      33.109 -21.464 -19.146  0.00  0.00    +0.018 C 
ATOM      4  C   UNL     1      35.505 -22.557 -18.227  0.00  0.00    +0.039 C 
ATOM      5  C   UNL     1      34.323 -21.025 -19.674  0.00  0.00    +0.001 C 
ATOM      6  C   UNL     1      35.522 -21.572 -19.215  0.00  0.00    +0.003 C 
ENDROOT
BRANCH   1   8
ATOM      7  O   UNL     1      32.067 -22.388 -15.356  0.00  0.00    -0.270 OA
ATOM      8  N   UNL     1      31.868 -22.879 -17.641  0.00  0.00    -0.278 N 
ATOM      9  C   UNL     1      31.418 -22.835 -16.314  0.00  0.00    +0.250 C 
ATOM     10  H   UNL     1      31.240 -23.263 -18.294  0.00  0.00    +0.155 HD
BRANCH   9  11
ATOM     11  C   UNL     1      30.095 -23.389 -16.075  0.00  0.00    +0.055 C 
ATOM     12  C   UNL     1      28.962 -22.701 -16.511  0.00  0.00    +0.029 C 
ATOM     13  C   UNL     1      29.958 -24.608 -15.412  0.00  0.00    +0.005 C 
ATOM     14  C   UNL     1      27.693 -23.233 -16.284  0.00  0.00    +0.143 C 
ATOM     15  C   UNL     1      28.689 -25.140 -15.184  0.00  0.00    +0.002 C 
ATOM     16  C   UNL     1      27.557 -24.452 -15.620  0.00  0.00    +0.024 C 
BRANCH  14  19
ATOM     17  O   UNL     1      25.639 -22.257 -15.899  0.00  0.00    -0.126 OA
ATOM     18  O   UNL     1      26.451 -22.214 -17.938  0.00  0.00    -0.126 OA
ATOM     19  N   UNL     1      26.539 -22.534 -16.728  0.00  0.00    +0.058 N 
ENDBRANCH  14  19
ENDBRANCH   9  11
ENDBRANCH   1   8
BRANCH   2  20
ATOM     20  O   UNL     1      34.297 -23.960 -16.736  0.00  0.00    -0.452 OA
BRANCH  20  21
ATOM     21  C   UNL     1      35.116 -23.764 -15.637  0.00  0.00    +0.146 C 
ATOM     22  C   UNL     1      35.510 -23.981 -13.284  0.00  0.00    +0.085 C 
ATOM     23  C   UNL     1      34.684 -24.179 -14.390  0.00  0.00    +0.044 C 
ATOM     24  C   UNL     1      36.754 -23.371 -13.442  0.00  0.00    +0.082 C 
ATOM     25  C   UNL     1      36.347 -23.157 -15.814  0.00  0.00    +0.038 C 
ATOM     26  C   UNL     1      37.172 -22.959 -14.707  0.00  0.00    +0.010 C 
BRANCH  22  28
ATOM     27  O   UNL     1      35.421 -25.442 -11.392  0.00  0.00    -0.245 OA
ATOM     28  C   UNL     1      35.044 -24.422 -11.976  0.00  0.00    +0.338 C 
BRANCH  28  29
ATOM     29  O   UNL     1      34.124 -23.576 -11.440  0.00  0.00    -0.477 OA
ATOM     30  H   UNL     1      34.306 -23.137 -10.633  0.00  0.00    +0.295 HD
ENDBRANCH  28  29
ENDBRANCH  22  28
BRANCH  24  32
ATOM     31  O   UNL     1      38.748 -23.669 -12.154  0.00  0.00    -0.245 OA
ATOM     32  C   UNL     1      37.638 -23.149 -12.307  0.00  0.00    +0.338 C 
BRANCH  32  33
ATOM     33  O   UNL     1      37.109 -22.285 -11.399  0.00  0.00    -0.477 OA
ATOM     34  H   UNL     1      36.190 -22.301 -11.217  0.00  0.00    +0.295 HD
ENDBRANCH  32  33
ENDBRANCH  24  32
ENDBRANCH  20  21
ENDBRANCH   2  20
TORSDOF 9
ENDMDL
