MODEL 1
REMARK VINA RESULT:     -13.0      0.000      0.000
REMARK  Name = 49831257
REMARK  4 active torsions:
REMARK  status: ('A' for Active; 'I' for Inactive)
REMARK    1  A    between atoms: C_1  and  C_23
REMARK    2  A    between atoms: C_4  and  C_14
REMARK    3  A    between atoms: C_12  and  C_20
REMARK    4  A    between atoms: C_23  and  N_27
REMARK                            x       y       z     vdW  Elec       q    Type
REMARK                         _______ _______ _______ _____ _____    ______ ____
ROOT
ATOM      1  C   UNL     1      35.111 -20.141 -20.973  0.00  0.00    -0.043 C 
ATOM      2  C   UNL     1      33.732 -20.161 -20.771  0.00  0.00    -0.006 C 
ATOM      3  C   UNL     1      35.951 -20.870 -20.131  0.00  0.00    -0.006 C 
ATOM      4  C   UNL     1      34.031 -21.640 -18.883  0.00  0.00    +0.016 C 
ATOM      5  C   UNL     1      33.192 -20.910 -19.725  0.00  0.00    +0.001 C 
ATOM      6  C   UNL     1      35.412 -21.619 -19.086  0.00  0.00    +0.001 C 
ENDROOT
BRANCH   4  14
ATOM      7  O   UNL     1      36.663 -25.523 -13.296  0.00  0.00    -0.274 OA
ATOM      8  N   UNL     1      37.094 -24.166 -15.176  0.00  0.00    -0.217 N 
ATOM      9  N   UNL     1      34.279 -23.082 -16.833  0.00  0.00    -0.152 N 
ATOM     10  N   UNL     1      35.636 -23.098 -16.739  0.00  0.00    -0.092 NA
ATOM     11  N   UNL     1      34.731 -24.341 -15.051  0.00  0.00    -0.319 NA
ATOM     12  C   UNL     1      37.430 -24.951 -14.058  0.00  0.00    +0.234 C 
ATOM     13  C   UNL     1      35.843 -23.861 -15.667  0.00  0.00    +0.167 C 
ATOM     14  C   UNL     1      33.461 -22.430 -17.778  0.00  0.00    +0.077 C 
ATOM     15  C   UNL     1      33.756 -23.849 -15.782  0.00  0.00    +0.219 C 
ATOM     16  C   UNL     1      32.122 -22.552 -17.661  0.00  0.00    +0.017 C 
ATOM     17  C   UNL     1      32.343 -23.962 -15.680  0.00  0.00    +0.051 C 
ATOM     18  C   UNL     1      31.559 -23.341 -16.579  0.00  0.00    +0.005 C 
ATOM     19  H   UNL     1      37.853 -23.783 -15.673  0.00  0.00    +0.167 HD
BRANCH  12  20
ATOM     20  C   UNL     1      38.901 -25.075 -13.811  0.00  0.00    +0.077 C 
ATOM     21  C   UNL     1      39.848 -24.959 -14.969  0.00  0.00    +0.010 C 
ATOM     22  C   UNL     1      39.627 -26.290 -14.311  0.00  0.00    +0.010 C 
ENDBRANCH  12  20
ENDBRANCH   4  14
BRANCH   1  23
ATOM     23  C   UNL     1      35.694 -19.334 -22.103  0.00  0.00    -0.050 C 
BRANCH  23  27
ATOM     24  S   UNL     1      33.438 -17.193 -25.376  0.00  0.00    -0.014 S 
ATOM     25  O   UNL     1      32.136 -16.675 -25.745  0.00  0.00    -0.173 OA
ATOM     26  O   UNL     1      34.573 -17.069 -26.271  0.00  0.00    -0.173 OA
ATOM     27  N   UNL     1      34.652 -18.682 -22.901  0.00  0.00    +0.392 N 
ATOM     28  C   UNL     1      34.449 -19.422 -24.159  0.00  0.00    -0.051 C 
ATOM     29  C   UNL     1      35.015 -17.276 -23.145  0.00  0.00    -0.051 C 
ATOM     30  C   UNL     1      33.885 -16.494 -23.805  0.00  0.00    +0.128 C 
ATOM     31  C   UNL     1      33.249 -18.906 -24.945  0.00  0.00    +0.128 C 
ATOM     32  H   UNL     1      33.769 -18.691 -22.391  0.00  0.00    -0.079 HD
ENDBRANCH  23  27
ENDBRANCH   1  23
TORSDOF 4
ENDMDL
MODEL 2
REMARK VINA RESULT:     -11.9      4.591     11.807
REMARK  Name = 49831257
REMARK  4 active torsions:
REMARK  status: ('A' for Active; 'I' for Inactive)
REMARK    1  A    between atoms: C_1  and  C_23
REMARK    2  A    between atoms: C_4  and  C_14
REMARK    3  A    between atoms: C_12  and  C_20
REMARK    4  A    between atoms: C_23  and  N_27
REMARK                            x       y       z     vdW  Elec       q    Type
REMARK                         _______ _______ _______ _____ _____    ______ ____
ROOT
ATOM      1  C   UNL     1      35.486 -18.715 -22.052  0.00  0.00    -0.043 C 
ATOM      2  C   UNL     1      35.130 -17.379 -21.873  0.00  0.00    -0.006 C 
ATOM      3  C   UNL     1      35.164 -19.370 -23.241  0.00  0.00    -0.006 C 
ATOM      4  C   UNL     1      34.128 -17.352 -24.071  0.00  0.00    +0.016 C 
ATOM      5  C   UNL     1      34.450 -16.697 -22.882  0.00  0.00    +0.001 C 
ATOM      6  C   UNL     1      34.485 -18.689 -24.251  0.00  0.00    +0.001 C 
ENDROOT
BRANCH   4  14
ATOM      7  O   UNL     1      32.829 -10.372 -25.752  0.00  0.00    -0.274 OA
ATOM      8  N   UNL     1      33.846 -11.932 -24.304  0.00  0.00    -0.217 N 
ATOM      9  N   UNL     1      33.344 -15.225 -25.171  0.00  0.00    -0.152 N 
ATOM     10  N   UNL     1      33.900 -14.321 -24.319  0.00  0.00    -0.092 NA
ATOM     11  N   UNL     1      32.755 -13.229 -25.965  0.00  0.00    -0.319 NA
ATOM     12  C   UNL     1      33.501 -10.650 -24.768  0.00  0.00    +0.234 C 
ATOM     13  C   UNL     1      33.513 -13.158 -24.840  0.00  0.00    +0.167 C 
ATOM     14  C   UNL     1      33.409 -16.633 -25.137  0.00  0.00    +0.077 C 
ATOM     15  C   UNL     1      32.654 -14.524 -26.169  0.00  0.00    +0.219 C 
ATOM     16  C   UNL     1      32.778 -17.328 -26.109  0.00  0.00    +0.017 C 
ATOM     17  C   UNL     1      32.000 -15.277 -27.181  0.00  0.00    +0.051 C 
ATOM     18  C   UNL     1      32.059 -16.619 -27.154  0.00  0.00    +0.005 C 
ATOM     19  H   UNL     1      34.398 -11.958 -23.489  0.00  0.00    +0.167 HD
BRANCH  12  20
ATOM     20  C   UNL     1      34.037  -9.528 -23.934  0.00  0.00    +0.077 C 
ATOM     21  C   UNL     1      34.050  -8.139 -24.503  0.00  0.00    +0.010 C 
ATOM     22  C   UNL     1      35.338  -8.887 -24.319  0.00  0.00    +0.010 C 
ENDBRANCH  12  20
ENDBRANCH   4  14
BRANCH   1  23
ATOM     23  C   UNL     1      36.222 -19.450 -20.963  0.00  0.00    -0.050 C 
BRANCH  23  27
ATOM     24  S   UNL     1      33.534 -22.451 -18.923  0.00  0.00    -0.014 S 
ATOM     25  O   UNL     1      32.664 -22.646 -17.781  0.00  0.00    -0.173 OA
ATOM     26  O   UNL     1      33.747 -23.510 -19.891  0.00  0.00    -0.173 OA
ATOM     27  N   UNL     1      35.300 -20.115 -20.036  0.00  0.00    +0.392 N 
ATOM     28  C   UNL     1      35.955 -21.290 -19.436  0.00  0.00    -0.051 C 
ATOM     29  C   UNL     1      34.060 -20.479 -20.742  0.00  0.00    -0.051 C 
ATOM     30  C   UNL     1      32.988 -21.001 -19.792  0.00  0.00    +0.128 C 
ATOM     31  C   UNL     1      35.118 -21.912 -18.325  0.00  0.00    +0.128 C 
ATOM     32  H   UNL     1      35.052 -19.478 -19.280  0.00  0.00    -0.079 HD
ENDBRANCH  23  27
ENDBRANCH   1  23
TORSDOF 4
ENDMDL
MODEL 3
REMARK VINA RESULT:     -11.9      1.204      1.554
REMARK  Name = 49831257
REMARK  4 active torsions:
REMARK  status: ('A' for Active; 'I' for Inactive)
REMARK    1  A    between atoms: C_1  and  C_23
REMARK    2  A    between atoms: C_4  and  C_14
REMARK    3  A    between atoms: C_12  and  C_20
REMARK    4  A    between atoms: C_23  and  N_27
REMARK                            x       y       z     vdW  Elec       q    Type
REMARK                         _______ _______ _______ _____ _____    ______ ____
ROOT
ATOM      1  C   UNL     1      34.694 -20.623 -20.843  0.00  0.00    -0.043 C 
ATOM      2  C   UNL     1      35.558 -21.332 -20.008  0.00  0.00    -0.006 C 
ATOM      3  C   UNL     1      33.329 -20.581 -20.559  0.00  0.00    -0.006 C 
ATOM      4  C   UNL     1      33.692 -21.956 -18.607  0.00  0.00    +0.016 C 
ATOM      5  C   UNL     1      35.057 -21.999 -18.891  0.00  0.00    +0.001 C 
ATOM      6  C   UNL     1      32.827 -21.247 -19.441  0.00  0.00    +0.001 C 
ENDROOT
BRANCH   4  14
ATOM      7  O   UNL     1      36.522 -25.556 -12.927  0.00  0.00    -0.274 OA
ATOM      8  N   UNL     1      36.885 -24.329 -14.908  0.00  0.00    -0.217 N 
ATOM      9  N   UNL     1      34.013 -23.276 -16.485  0.00  0.00    -0.152 N 
ATOM     10  N   UNL     1      35.373 -23.321 -16.459  0.00  0.00    -0.092 NA
ATOM     11  N   UNL     1      34.528 -24.434 -14.653  0.00  0.00    -0.319 NA
ATOM     12  C   UNL     1      37.261 -25.052 -13.761  0.00  0.00    +0.234 C 
ATOM     13  C   UNL     1      35.617 -24.022 -15.353  0.00  0.00    +0.167 C 
ATOM     14  C   UNL     1      33.162 -22.662 -17.427  0.00  0.00    +0.077 C 
ATOM     15  C   UNL     1      33.528 -23.963 -15.363  0.00  0.00    +0.219 C 
ATOM     16  C   UNL     1      31.828 -22.743 -17.235  0.00  0.00    +0.017 C 
ATOM     17  C   UNL     1      32.120 -24.033 -15.183  0.00  0.00    +0.051 C 
ATOM     18  C   UNL     1      31.305 -23.448 -16.078  0.00  0.00    +0.005 C 
ATOM     19  H   UNL     1      37.626 -23.997 -15.466  0.00  0.00    +0.167 HD
BRANCH  12  20
ATOM     20  C   UNL     1      38.740 -25.199 -13.581  0.00  0.00    +0.077 C 
ATOM     21  C   UNL     1      39.647 -24.917 -14.743  0.00  0.00    +0.010 C 
ATOM     22  C   UNL     1      39.452 -26.328 -14.268  0.00  0.00    +0.010 C 
ENDBRANCH  12  20
ENDBRANCH   4  14
BRANCH   1  23
ATOM     23  C   UNL     1      35.234 -19.901 -22.049  0.00  0.00    -0.050 C 
BRANCH  23  27
ATOM     24  S   UNL     1      34.292 -15.649 -23.239  0.00  0.00    -0.014 S 
ATOM     25  O   UNL     1      33.268 -14.626 -23.185  0.00  0.00    -0.173 OA
ATOM     26  O   UNL     1      35.569 -15.396 -23.879  0.00  0.00    -0.173 OA
ATOM     27  N   UNL     1      34.573 -18.608 -22.251  0.00  0.00    +0.392 N 
ATOM     28  C   UNL     1      34.427 -18.341 -23.692  0.00  0.00    -0.051 C 
ATOM     29  C   UNL     1      35.334 -17.547 -21.570  0.00  0.00    -0.051 C 
ATOM     30  C   UNL     1      34.598 -16.212 -21.582  0.00  0.00    +0.128 C 
ATOM     31  C   UNL     1      33.579 -17.105 -23.966  0.00  0.00    +0.128 C 
ATOM     32  H   UNL     1      33.639 -18.630 -21.843  0.00  0.00    -0.079 HD
ENDBRANCH  23  27
ENDBRANCH   1  23
TORSDOF 4
ENDMDL
MODEL 4
REMARK VINA RESULT:     -11.0      7.476     12.351
REMARK  Name = 49831257
REMARK  4 active torsions:
REMARK  status: ('A' for Active; 'I' for Inactive)
REMARK    1  A    between atoms: C_1  and  C_23
REMARK    2  A    between atoms: C_4  and  C_14
REMARK    3  A    between atoms: C_12  and  C_20
REMARK    4  A    between atoms: C_23  and  N_27
REMARK                            x       y       z     vdW  Elec       q    Type
REMARK                         _______ _______ _______ _____ _____    ______ ____
ROOT
ATOM      1  C   UNL     1      33.459  -8.928 -23.187  0.00  0.00    -0.043 C 
ATOM      2  C   UNL     1      34.313  -9.172 -24.262  0.00  0.00    -0.006 C 
ATOM      3  C   UNL     1      32.480  -9.861 -22.848  0.00  0.00    -0.006 C 
ATOM      4  C   UNL     1      33.208 -11.283 -24.660  0.00  0.00    +0.016 C 
ATOM      5  C   UNL     1      34.188 -10.349 -24.999  0.00  0.00    +0.001 C 
ATOM      6  C   UNL     1      32.353 -11.039 -23.585  0.00  0.00    +0.001 C 
ENDROOT
BRANCH   4  14
ATOM      7  O   UNL     1      34.459 -18.376 -23.497  0.00  0.00    -0.274 OA
ATOM      8  N   UNL     1      34.480 -16.171 -22.661  0.00  0.00    -0.217 N 
ATOM      9  N   UNL     1      33.418 -13.782 -24.900  0.00  0.00    -0.152 N 
ATOM     10  N   UNL     1      33.880 -14.083 -23.655  0.00  0.00    -0.092 NA
ATOM     11  N   UNL     1      33.691 -15.993 -24.892  0.00  0.00    -0.319 NA
ATOM     12  C   UNL     1      34.667 -17.564 -22.606  0.00  0.00    +0.234 C 
ATOM     13  C   UNL     1      34.025 -15.405 -23.713  0.00  0.00    +0.167 C 
ATOM     14  C   UNL     1      33.074 -12.526 -25.440  0.00  0.00    +0.077 C 
ATOM     15  C   UNL     1      33.310 -14.974 -25.629  0.00  0.00    +0.219 C 
ATOM     16  C   UNL     1      32.623 -12.476 -26.712  0.00  0.00    +0.017 C 
ATOM     17  C   UNL     1      32.832 -14.896 -26.965  0.00  0.00    +0.051 C 
ATOM     18  C   UNL     1      32.502 -13.700 -27.484  0.00  0.00    +0.005 C 
ATOM     19  H   UNL     1      34.702 -15.677 -21.838  0.00  0.00    +0.167 HD
BRANCH  12  20
ATOM     20  C   UNL     1      35.179 -18.067 -21.293  0.00  0.00    +0.077 C 
ATOM     21  C   UNL     1      36.313 -19.050 -21.281  0.00  0.00    +0.010 C 
ATOM     22  C   UNL     1      34.929 -19.496 -20.909  0.00  0.00    +0.010 C 
ENDBRANCH  12  20
ENDBRANCH   4  14
BRANCH   1  23
ATOM     23  C   UNL     1      33.596  -7.657 -22.390  0.00  0.00    -0.050 C 
BRANCH  23  27
ATOM     24  S   UNL     1      30.176  -4.754 -21.877  0.00  0.00    -0.014 S 
ATOM     25  O   UNL     1      28.790  -4.650 -21.467  0.00  0.00    -0.173 OA
ATOM     26  O   UNL     1      30.913  -3.588 -22.325  0.00  0.00    -0.173 OA
ATOM     27  N   UNL     1      32.292  -7.054 -22.100  0.00  0.00    +0.392 N 
ATOM     28  C   UNL     1      31.722  -6.477 -23.330  0.00  0.00    -0.051 C 
ATOM     29  C   UNL     1      32.434  -6.045 -21.036  0.00  0.00    -0.051 C 
ATOM     30  C   UNL     1      31.085  -5.519 -20.557  0.00  0.00    +0.128 C 
ATOM     31  C   UNL     1      30.286  -6.005 -23.134  0.00  0.00    +0.128 C 
ATOM     32  H   UNL     1      31.646  -7.769 -21.765  0.00  0.00    -0.079 HD
ENDBRANCH  23  27
ENDBRANCH   1  23
TORSDOF 4
ENDMDL
MODEL 5
REMARK VINA RESULT:     -10.9      6.792     11.771
REMARK  Name = 49831257
REMARK  4 active torsions:
REMARK  status: ('A' for Active; 'I' for Inactive)
REMARK    1  A    between atoms: C_1  and  C_23
REMARK    2  A    between atoms: C_4  and  C_14
REMARK    3  A    between atoms: C_12  and  C_20
REMARK    4  A    between atoms: C_23  and  N_27
REMARK                            x       y       z     vdW  Elec       q    Type
REMARK                         _______ _______ _______ _____ _____    ______ ____
ROOT
ATOM      1  C   UNL     1      33.836 -10.049 -24.649  0.00  0.00    -0.043 C 
ATOM      2  C   UNL     1      33.102 -10.944 -23.872  0.00  0.00    -0.006 C 
ATOM      3  C   UNL     1      34.202 -10.391 -25.951  0.00  0.00    -0.006 C 
ATOM      4  C   UNL     1      33.100 -12.526 -25.698  0.00  0.00    +0.016 C 
ATOM      5  C   UNL     1      32.735 -12.184 -24.396  0.00  0.00    +0.001 C 
ATOM      6  C   UNL     1      33.834 -11.630 -26.475  0.00  0.00    +0.001 C 
ENDROOT
BRANCH   4  14
ATOM      7  O   UNL     1      34.372 -19.517 -24.040  0.00  0.00    -0.274 OA
ATOM      8  N   UNL     1      34.700 -17.239 -23.521  0.00  0.00    -0.217 N 
ATOM      9  N   UNL     1      33.148 -15.045 -25.671  0.00  0.00    -0.152 N 
ATOM     10  N   UNL     1      33.924 -15.238 -24.570  0.00  0.00    -0.092 NA
ATOM     11  N   UNL     1      33.335 -17.255 -25.462  0.00  0.00    -0.319 NA
ATOM     12  C   UNL     1      34.846 -18.627 -23.346  0.00  0.00    +0.234 C 
ATOM     13  C   UNL     1      34.001 -16.565 -24.500  0.00  0.00    +0.167 C 
ATOM     14  C   UNL     1      32.713 -13.836 -26.251  0.00  0.00    +0.077 C 
ATOM     15  C   UNL     1      32.802 -16.300 -26.191  0.00  0.00    +0.219 C 
ATOM     16  C   UNL     1      31.932 -13.896 -27.351  0.00  0.00    +0.017 C 
ATOM     17  C   UNL     1      31.977 -16.337 -27.348  0.00  0.00    +0.051 C 
ATOM     18  C   UNL     1      31.559 -15.187 -27.903  0.00  0.00    +0.005 C 
ATOM     19  H   UNL     1      35.157 -16.674 -22.856  0.00  0.00    +0.167 HD
BRANCH  12  20
ATOM     20  C   UNL     1      35.682 -19.016 -22.167  0.00  0.00    +0.077 C 
ATOM     21  C   UNL     1      35.103 -19.940 -21.135  0.00  0.00    +0.010 C 
ATOM     22  C   UNL     1      35.319 -18.491 -20.808  0.00  0.00    +0.010 C 
ENDBRANCH  12  20
ENDBRANCH   4  14
BRANCH   1  23
ATOM     23  C   UNL     1      34.232  -8.710 -24.084  0.00  0.00    -0.050 C 
BRANCH  23  27
ATOM     24  S   UNL     1      31.516  -5.501 -22.436  0.00  0.00    -0.014 S 
ATOM     25  O   UNL     1      30.152  -5.227 -22.032  0.00  0.00    -0.173 OA
ATOM     26  O   UNL     1      32.542  -4.480 -22.350  0.00  0.00    -0.173 OA
ATOM     27  N   UNL     1      33.072  -7.968 -23.580  0.00  0.00    +0.392 N 
ATOM     28  C   UNL     1      32.789  -6.822 -24.462  0.00  0.00    -0.051 C 
ATOM     29  C   UNL     1      33.317  -7.543 -22.191  0.00  0.00    -0.051 C 
ATOM     30  C   UNL     1      32.076  -6.934 -21.548  0.00  0.00    +0.128 C 
ATOM     31  C   UNL     1      31.483  -6.125 -24.099  0.00  0.00    +0.128 C 
ATOM     32  H   UNL     1      32.249  -8.570 -23.580  0.00  0.00    -0.079 HD
ENDBRANCH  23  27
ENDBRANCH   1  23
TORSDOF 4
ENDMDL
MODEL 6
REMARK VINA RESULT:     -10.4      2.707      5.233
REMARK  Name = 49831257
REMARK  4 active torsions:
REMARK  status: ('A' for Active; 'I' for Inactive)
REMARK    1  A    between atoms: C_1  and  C_23
REMARK    2  A    between atoms: C_4  and  C_14
REMARK    3  A    between atoms: C_12  and  C_20
REMARK    4  A    between atoms: C_23  and  N_27
REMARK                            x       y       z     vdW  Elec       q    Type
REMARK                         _______ _______ _______ _____ _____    ______ ____
ROOT
ATOM      1  C   UNL     1      34.977 -20.324 -21.270  0.00  0.00    -0.043 C 
ATOM      2  C   UNL     1      33.711 -20.625 -20.769  0.00  0.00    -0.006 C 
ATOM      3  C   UNL     1      36.116 -20.697 -20.556  0.00  0.00    -0.006 C 
ATOM      4  C   UNL     1      34.722 -21.669 -18.840  0.00  0.00    +0.016 C 
ATOM      5  C   UNL     1      33.583 -21.297 -19.554  0.00  0.00    +0.001 C 
ATOM      6  C   UNL     1      35.989 -21.369 -19.341  0.00  0.00    +0.001 C 
ENDROOT
BRANCH   4  14
ATOM      7  O   UNL     1      29.211 -24.241 -14.809  0.00  0.00    -0.274 OA
ATOM      8  N   UNL     1      29.920 -23.145 -16.774  0.00  0.00    -0.217 N 
ATOM      9  N   UNL     1      33.328 -22.744 -17.037  0.00  0.00    -0.152 N 
ATOM     10  N   UNL     1      32.092 -22.557 -17.576  0.00  0.00    -0.092 NA
ATOM     11  N   UNL     1      31.906 -23.630 -15.569  0.00  0.00    -0.319 NA
ATOM     12  C   UNL     1      28.983 -23.693 -15.878  0.00  0.00    +0.234 C 
ATOM     13  C   UNL     1      31.293 -23.099 -16.659  0.00  0.00    +0.167 C 
ATOM     14  C   UNL     1      34.587 -22.378 -17.555  0.00  0.00    +0.077 C 
ATOM     15  C   UNL     1      33.178 -23.407 -15.811  0.00  0.00    +0.219 C 
ATOM     16  C   UNL     1      35.689 -22.682 -16.837  0.00  0.00    +0.017 C 
ATOM     17  C   UNL     1      34.353 -23.717 -15.074  0.00  0.00    +0.051 C 
ATOM     18  C   UNL     1      35.556 -23.371 -15.565  0.00  0.00    +0.005 C 
ATOM     19  H   UNL     1      29.545 -22.742 -17.591  0.00  0.00    +0.167 HD
BRANCH  12  20
ATOM     20  C   UNL     1      27.559 -23.567 -16.322  0.00  0.00    +0.077 C 
ATOM     21  C   UNL     1      27.191 -22.485 -17.294  0.00  0.00    +0.010 C 
ATOM     22  C   UNL     1      26.750 -22.389 -15.862  0.00  0.00    +0.010 C 
ENDBRANCH  12  20
ENDBRANCH   4  14
BRANCH   1  23
ATOM     23  C   UNL     1      35.116 -19.600 -22.583  0.00  0.00    -0.050 C 
BRANCH  23  27
ATOM     24  S   UNL     1      34.148 -15.222 -23.115  0.00  0.00    -0.014 S 
ATOM     25  O   UNL     1      33.152 -14.208 -22.833  0.00  0.00    -0.173 OA
ATOM     26  O   UNL     1      35.366 -14.895 -23.832  0.00  0.00    -0.173 OA
ATOM     27  N   UNL     1      34.463 -18.288 -22.552  0.00  0.00    +0.392 N 
ATOM     28  C   UNL     1      34.192 -17.831 -23.927  0.00  0.00    -0.051 C 
ATOM     29  C   UNL     1      35.302 -17.330 -21.812  0.00  0.00    -0.051 C 
ATOM     30  C   UNL     1      34.592 -16.000 -21.582  0.00  0.00    +0.128 C 
ATOM     31  C   UNL     1      33.345 -16.565 -23.957  0.00  0.00    +0.128 C 
ATOM     32  H   UNL     1      33.569 -18.357 -22.067  0.00  0.00    -0.079 HD
ENDBRANCH  23  27
ENDBRANCH   1  23
TORSDOF 4
ENDMDL
MODEL 7
REMARK VINA RESULT:     -10.2      6.676     11.560
REMARK  Name = 49831257
REMARK  4 active torsions:
REMARK  status: ('A' for Active; 'I' for Inactive)
REMARK    1  A    between atoms: C_1  and  C_23
REMARK    2  A    between atoms: C_4  and  C_14
REMARK    3  A    between atoms: C_12  and  C_20
REMARK    4  A    between atoms: C_23  and  N_27
REMARK                            x       y       z     vdW  Elec       q    Type
REMARK                         _______ _______ _______ _____ _____    ______ ____
ROOT
ATOM      1  C   UNL     1      34.056 -10.562 -25.970  0.00  0.00    -0.043 C 
ATOM      2  C   UNL     1      34.203 -11.170 -27.217  0.00  0.00    -0.006 C 
ATOM      3  C   UNL     1      33.449 -11.255 -24.923  0.00  0.00    -0.006 C 
ATOM      4  C   UNL     1      33.136 -13.165 -26.369  0.00  0.00    +0.016 C 
ATOM      5  C   UNL     1      33.742 -12.471 -27.416  0.00  0.00    +0.001 C 
ATOM      6  C   UNL     1      32.989 -12.557 -25.122  0.00  0.00    +0.001 C 
ENDROOT
BRANCH   4  14
ATOM      7  O   UNL     1      34.503 -19.727 -23.489  0.00  0.00    -0.274 OA
ATOM      8  N   UNL     1      34.945 -17.411 -23.504  0.00  0.00    -0.217 N 
ATOM      9  N   UNL     1      33.139 -15.625 -25.828  0.00  0.00    -0.152 N 
ATOM     10  N   UNL     1      34.063 -15.628 -24.828  0.00  0.00    -0.092 NA
ATOM     11  N   UNL     1      33.313 -17.753 -25.192  0.00  0.00    -0.319 NA
ATOM     12  C   UNL     1      35.089 -18.740 -23.067  0.00  0.00    +0.234 C 
ATOM     13  C   UNL     1      34.124 -16.916 -24.495  0.00  0.00    +0.167 C 
ATOM     14  C   UNL     1      32.648 -14.539 -26.580  0.00  0.00    +0.077 C 
ATOM     15  C   UNL     1      32.697 -16.941 -26.023  0.00  0.00    +0.219 C 
ATOM     16  C   UNL     1      31.714 -14.782 -27.524  0.00  0.00    +0.017 C 
ATOM     17  C   UNL     1      31.713 -17.172 -27.022  0.00  0.00    +0.051 C 
ATOM     18  C   UNL     1      31.241 -16.139 -27.741  0.00  0.00    +0.005 C 
ATOM     19  H   UNL     1      35.505 -16.745 -23.041  0.00  0.00    +0.167 HD
BRANCH  12  20
ATOM     20  C   UNL     1      36.079 -18.922 -21.960  0.00  0.00    +0.077 C 
ATOM     21  C   UNL     1      35.804 -19.943 -20.895  0.00  0.00    +0.010 C 
ATOM     22  C   UNL     1      35.715 -18.479 -20.573  0.00  0.00    +0.010 C 
ENDBRANCH  12  20
ENDBRANCH   4  14
BRANCH   1  23
ATOM     23  C   UNL     1      34.554  -9.157 -25.754  0.00  0.00    -0.050 C 
BRANCH  23  27
ATOM     24  S   UNL     1      32.474  -5.512 -27.418  0.00  0.00    -0.014 S 
ATOM     25  O   UNL     1      31.889  -4.955 -28.621  0.00  0.00    -0.173 OA
ATOM     26  O   UNL     1      32.490  -4.762 -26.177  0.00  0.00    -0.173 OA
ATOM     27  N   UNL     1      33.883  -8.199 -26.637  0.00  0.00    +0.392 N 
ATOM     28  C   UNL     1      34.686  -6.969 -26.743  0.00  0.00    -0.051 C 
ATOM     29  C   UNL     1      32.525  -7.926 -26.135  0.00  0.00    -0.051 C 
ATOM     30  C   UNL     1      31.709  -7.086 -27.112  0.00  0.00    +0.128 C 
ATOM     31  C   UNL     1      34.137  -6.011 -27.795  0.00  0.00    +0.128 C 
ATOM     32  H   UNL     1      33.795  -8.594 -27.572  0.00  0.00    -0.079 HD
ENDBRANCH  23  27
ENDBRANCH   1  23
TORSDOF 4
ENDMDL
