MODEL 1
REMARK VINA RESULT:     -12.0      0.000      0.000
REMARK  Name = 104758
REMARK  11 active torsions:
REMARK  status: ('A' for Active; 'I' for Inactive)
REMARK    1  A    between atoms: C_2  and  N_21
REMARK    2  A    between atoms: C_3  and  C_8
REMARK    3  A    between atoms: N_7  and  CA_10
REMARK    4  A    between atoms: CA_10  and  C_12
REMARK    5  A    between atoms: CA_10  and  CB_15
REMARK    6  A    between atoms: C_12  and  O_13
REMARK    7  A    between atoms: CB_15  and  CG_16
REMARK    8  A    between atoms: CG_16  and  CD_18
REMARK    9  A    between atoms: CD_18  and  OE1_19
REMARK   10  A    between atoms: N_21  and  C_23
REMARK   11  A    between atoms: C_23  and  C_27
REMARK                            x       y       z     vdW  Elec       q    Type
REMARK                         _______ _______ _______ _____ _____    ______ ____
ROOT
ATOM      1  S   UNL     1      36.131 -21.740 -17.955  0.00  0.00    -0.068 S 
ATOM      2  C   UNL     1      34.621 -21.705 -18.762  0.00  0.00    +0.079 C 
ATOM      3  C   UNL     1      35.526 -22.801 -16.755  0.00  0.00    +0.084 C 
ATOM      4  C   UNL     1      33.678 -22.485 -18.129  0.00  0.00    +0.022 C 
ATOM      5  C   UNL     1      34.203 -23.120 -16.967  0.00  0.00    +0.013 C 
ENDROOT
BRANCH   3   8
ATOM      6  O   UNL     1      37.201 -22.477 -15.112  0.00  0.00    -0.270 OA
ATOM      7  N   UNL     1      36.352 -24.597 -15.352  0.00  0.00    -0.293 N 
ATOM      8  C   ACE A   0      36.394 -23.231 -15.707  0.00  0.00    +0.252 C 
ATOM      9  H   UNL     1      35.716 -25.181 -15.825  0.00  0.00    +0.150 HD
BRANCH   7  10
ATOM     10  CA  UNL     1      37.191 -25.187 -14.334  0.00  0.00    +0.172 C 
BRANCH  10  12
ATOM     11  OXT UNL     1      38.973 -26.824 -14.607  0.00  0.00    -0.248 OA
ATOM     12  C   UNL     1      37.882 -26.388 -14.948  0.00  0.00    +0.332 C 
BRANCH  12  13
ATOM     13  O   UNL     1      37.125 -26.967 -15.916  0.00  0.00    -0.479 OA
ATOM     14  H   UNL     1      36.202 -27.066 -15.793  0.00  0.00    +0.295 HD
ENDBRANCH  12  13
ENDBRANCH  10  12
BRANCH  10  15
ATOM     15  CB  UNL     1      36.423 -25.507 -13.046  0.00  0.00    +0.043 C 
BRANCH  15  16
ATOM     16  CG  UNL     1      36.651 -24.544 -11.874  0.00  0.00    +0.112 C 
BRANCH  16  18
ATOM     17  OE2 UNL     1      35.240 -24.573  -9.887  0.00  0.00    -0.250 OA
ATOM     18  CD  UNL     1      35.405 -24.269 -11.060  0.00  0.00    +0.314 C 
BRANCH  18  19
ATOM     19  OE1 UNL     1      34.444 -23.663 -11.807  0.00  0.00    -0.480 OA
ATOM     20  HE1 UNL     1      34.685 -23.137 -12.545  0.00  0.00    +0.295 HD
ENDBRANCH  18  19
ENDBRANCH  16  18
ENDBRANCH  15  16
ENDBRANCH  10  15
ENDBRANCH   7  10
ENDBRANCH   3   8
BRANCH   2  21
ATOM     21  N   UNL     1      34.433 -20.957 -19.917  0.00  0.00    -0.297 N 
ATOM     22  C   UNL     1      33.088 -20.578 -20.353  0.00  0.00    +0.113 C 
BRANCH  21  23
ATOM     23  C   UNL     1      35.541 -20.512 -20.733  0.00  0.00    +0.118 C 
BRANCH  23  27
ATOM     24  O   UNL     1      33.909 -19.629 -25.541  0.00  0.00    -0.209 OA
ATOM     25  N   UNL     1      34.080 -15.993 -23.862  0.00  0.00    -0.290 N 
ATOM     26  N   UNL     1      33.612 -17.366 -25.753  0.00  0.00    -0.322 NA
ATOM     27  C   UNL     1      35.160 -19.324 -21.550  0.00  0.00    -0.002 C 
ATOM     28  C   UNL     1      34.396 -18.371 -23.631  0.00  0.00    +0.108 C 
ATOM     29  C   UNL     1      34.751 -19.490 -22.874  0.00  0.00    +0.011 C 
ATOM     30  C   UNL     1      34.445 -17.086 -23.072  0.00  0.00    +0.062 C 
ATOM     31  C   UNL     1      35.210 -18.047 -20.988  0.00  0.00    -0.001 C 
ATOM     32  C   UNL     1      34.854 -16.931 -21.745  0.00  0.00    +0.015 C 
ATOM     33  C   UNL     1      33.955 -18.507 -25.047  0.00  0.00    +0.207 C 
ATOM     34  C   UNL     1      33.687 -16.210 -25.161  0.00  0.00    +0.174 C 
ATOM     35  C   UNL     1      33.307 -14.988 -25.962  0.00  0.00    +0.085 C 
ATOM     36  H   UNL     1      34.105 -15.081 -23.493  0.00  0.00    +0.154 HD
ENDBRANCH  23  27
ENDBRANCH  21  23
ENDBRANCH   2  21
TORSDOF 11
ENDMDL
MODEL 2
REMARK VINA RESULT:     -11.9      1.367      2.908
REMARK  Name = 104758
REMARK  11 active torsions:
REMARK  status: ('A' for Active; 'I' for Inactive)
REMARK    1  A    between atoms: C_2  and  N_21
REMARK    2  A    between atoms: C_3  and  C_8
REMARK    3  A    between atoms: N_7  and  CA_10
REMARK    4  A    between atoms: CA_10  and  C_12
REMARK    5  A    between atoms: CA_10  and  CB_15
REMARK    6  A    between atoms: C_12  and  O_13
REMARK    7  A    between atoms: CB_15  and  CG_16
REMARK    8  A    between atoms: CG_16  and  CD_18
REMARK    9  A    between atoms: CD_18  and  OE1_19
REMARK   10  A    between atoms: N_21  and  C_23
REMARK   11  A    between atoms: C_23  and  C_27
REMARK                            x       y       z     vdW  Elec       q    Type
REMARK                         _______ _______ _______ _____ _____    ______ ____
ROOT
ATOM      1  S   UNL     1      34.317 -22.745 -17.577  0.00  0.00    -0.068 S 
ATOM      2  C   UNL     1      35.148 -21.680 -18.630  0.00  0.00    +0.079 C 
ATOM      3  C   UNL     1      35.637 -22.782 -16.487  0.00  0.00    +0.084 C 
ATOM      4  C   UNL     1      36.402 -21.362 -18.159  0.00  0.00    +0.022 C 
ATOM      5  C   UNL     1      36.685 -22.000 -16.917  0.00  0.00    +0.013 C 
ENDROOT
BRANCH   3   8
ATOM      6  O   UNL     1      34.527 -24.253 -14.997  0.00  0.00    -0.270 OA
ATOM      7  N   UNL     1      36.637 -23.555 -14.418  0.00  0.00    -0.293 N 
ATOM      8  C   ACE A   0      35.537 -23.574 -15.303  0.00  0.00    +0.252 C 
ATOM      9  H   UNL     1      37.424 -23.019 -14.667  0.00  0.00    +0.150 HD
BRANCH   7  10
ATOM     10  CA  UNL     1      36.672 -24.279 -13.168  0.00  0.00    +0.172 C 
BRANCH  10  12
ATOM     11  OXT UNL     1      36.790 -22.554 -11.454  0.00  0.00    -0.248 OA
ATOM     12  C   UNL     1      36.129 -23.362 -12.091  0.00  0.00    +0.332 C 
BRANCH  12  13
ATOM     13  O   UNL     1      34.787 -23.509 -11.930  0.00  0.00    -0.479 OA
ATOM     14  H   UNL     1      34.197 -23.165 -12.572  0.00  0.00    +0.295 HD
ENDBRANCH  12  13
ENDBRANCH  10  12
BRANCH  10  15
ATOM     15  CB  UNL     1      38.061 -24.848 -12.852  0.00  0.00    +0.043 C 
BRANCH  15  16
ATOM     16  CG  UNL     1      38.508 -26.037 -13.712  0.00  0.00    +0.112 C 
BRANCH  16  18
ATOM     17  OE2 UNL     1      40.600 -26.296 -14.934  0.00  0.00    -0.250 OA
ATOM     18  CD  UNL     1      39.559 -25.684 -14.742  0.00  0.00    +0.314 C 
BRANCH  18  19
ATOM     19  OE1 UNL     1      39.231 -24.555 -15.424  0.00  0.00    -0.480 OA
ATOM     20  HE1 UNL     1      39.239 -24.556 -16.362  0.00  0.00    +0.295 HD
ENDBRANCH  18  19
ENDBRANCH  16  18
ENDBRANCH  15  16
ENDBRANCH  10  15
ENDBRANCH   7  10
ENDBRANCH   3   8
BRANCH   2  21
ATOM     21  N   UNL     1      34.568 -21.226 -19.808  0.00  0.00    -0.297 N 
ATOM     22  C   UNL     1      33.125 -20.991 -19.891  0.00  0.00    +0.113 C 
BRANCH  21  23
ATOM     23  C   UNL     1      35.349 -20.958 -20.995  0.00  0.00    +0.118 C 
BRANCH  23  27
ATOM     24  O   UNL     1      33.426 -18.927 -25.323  0.00  0.00    -0.209 OA
ATOM     25  N   UNL     1      34.267 -15.755 -23.020  0.00  0.00    -0.290 N 
ATOM     26  N   UNL     1      33.437 -16.649 -25.068  0.00  0.00    -0.322 NA
ATOM     27  C   UNL     1      35.068 -19.591 -21.522  0.00  0.00    -0.002 C 
ATOM     28  C   UNL     1      34.260 -18.150 -23.281  0.00  0.00    +0.108 C 
ATOM     29  C   UNL     1      34.520 -19.435 -22.796  0.00  0.00    +0.011 C 
ATOM     30  C   UNL     1      34.543 -17.021 -22.499  0.00  0.00    +0.062 C 
ATOM     31  C   UNL     1      35.352 -18.471 -20.739  0.00  0.00    -0.001 C 
ATOM     32  C   UNL     1      35.091 -17.189 -21.225  0.00  0.00    +0.015 C 
ATOM     33  C   UNL     1      33.676 -17.941 -24.635  0.00  0.00    +0.207 C 
ATOM     34  C   UNL     1      33.730 -15.654 -24.281  0.00  0.00    +0.174 C 
ATOM     35  C   UNL     1      33.456 -14.258 -24.787  0.00  0.00    +0.085 C 
ATOM     36  H   UNL     1      34.456 -14.946 -22.491  0.00  0.00    +0.154 HD
ENDBRANCH  23  27
ENDBRANCH  21  23
ENDBRANCH   2  21
TORSDOF 11
ENDMDL
MODEL 3
REMARK VINA RESULT:     -11.9      1.462      2.012
REMARK  Name = 104758
REMARK  11 active torsions:
REMARK  status: ('A' for Active; 'I' for Inactive)
REMARK    1  A    between atoms: C_2  and  N_21
REMARK    2  A    between atoms: C_3  and  C_8
REMARK    3  A    between atoms: N_7  and  CA_10
REMARK    4  A    between atoms: CA_10  and  C_12
REMARK    5  A    between atoms: CA_10  and  CB_15
REMARK    6  A    between atoms: C_12  and  O_13
REMARK    7  A    between atoms: CB_15  and  CG_16
REMARK    8  A    between atoms: CG_16  and  CD_18
REMARK    9  A    between atoms: CD_18  and  OE1_19
REMARK   10  A    between atoms: N_21  and  C_23
REMARK   11  A    between atoms: C_23  and  C_27
REMARK                            x       y       z     vdW  Elec       q    Type
REMARK                         _______ _______ _______ _____ _____    ______ ____
ROOT
ATOM      1  S   UNL     1      36.101 -21.685 -18.008  0.00  0.00    -0.068 S 
ATOM      2  C   UNL     1      34.608 -21.660 -18.848  0.00  0.00    +0.079 C 
ATOM      3  C   UNL     1      35.479 -22.756 -16.826  0.00  0.00    +0.084 C 
ATOM      4  C   UNL     1      33.659 -22.450 -18.238  0.00  0.00    +0.022 C 
ATOM      5  C   UNL     1      34.163 -23.085 -17.067  0.00  0.00    +0.013 C 
ENDROOT
BRANCH   3   8
ATOM      6  O   UNL     1      37.088 -22.416 -15.120  0.00  0.00    -0.270 OA
ATOM      7  N   UNL     1      36.324 -24.558 -15.442  0.00  0.00    -0.293 N 
ATOM      8  C   ACE A   0      36.328 -23.183 -15.761  0.00  0.00    +0.252 C 
ATOM      9  H   UNL     1      35.725 -25.151 -15.951  0.00  0.00    +0.150 HD
BRANCH   7  10
ATOM     10  CA  UNL     1      37.150 -25.145 -14.412  0.00  0.00    +0.172 C 
BRANCH  10  12
ATOM     11  OXT UNL     1      38.845 -26.881 -14.623  0.00  0.00    -0.248 OA
ATOM     12  C   UNL     1      37.783 -26.395 -14.988  0.00  0.00    +0.332 C 
BRANCH  12  13
ATOM     13  O   UNL     1      37.007 -26.957 -15.952  0.00  0.00    -0.479 OA
ATOM     14  H   UNL     1      36.113 -27.169 -15.771  0.00  0.00    +0.295 HD
ENDBRANCH  12  13
ENDBRANCH  10  12
BRANCH  10  15
ATOM     15  CB  UNL     1      36.385 -25.385 -13.105  0.00  0.00    +0.043 C 
BRANCH  15  16
ATOM     16  CG  UNL     1      36.786 -24.495 -11.922  0.00  0.00    +0.112 C 
BRANCH  16  18
ATOM     17  OE2 UNL     1      35.631 -24.319  -9.784  0.00  0.00    -0.250 OA
ATOM     18  CD  UNL     1      35.638 -24.157 -10.996  0.00  0.00    +0.314 C 
BRANCH  18  19
ATOM     19  OE1 UNL     1      34.567 -23.678 -11.682  0.00  0.00    -0.480 OA
ATOM     20  HE1 UNL     1      34.022 -24.265 -12.169  0.00  0.00    +0.295 HD
ENDBRANCH  18  19
ENDBRANCH  16  18
ENDBRANCH  15  16
ENDBRANCH  10  15
ENDBRANCH   7  10
ENDBRANCH   3   8
BRANCH   2  21
ATOM     21  N   UNL     1      34.439 -20.908 -20.004  0.00  0.00    -0.297 N 
ATOM     22  C   UNL     1      33.103 -20.509 -20.449  0.00  0.00    +0.113 C 
BRANCH  21  23
ATOM     23  C   UNL     1      35.559 -20.481 -20.813  0.00  0.00    +0.118 C 
BRANCH  23  27
ATOM     24  O   UNL     1      34.733 -15.458 -20.010  0.00  0.00    -0.209 OA
ATOM     25  N   UNL     1      34.185 -15.941 -23.952  0.00  0.00    -0.290 N 
ATOM     26  N   UNL     1      34.225 -14.520 -22.038  0.00  0.00    -0.322 NA
ATOM     27  C   UNL     1      35.198 -19.293 -21.640  0.00  0.00    -0.002 C 
ATOM     28  C   UNL     1      34.719 -16.936 -21.822  0.00  0.00    +0.108 C 
ATOM     29  C   UNL     1      35.058 -18.042 -21.039  0.00  0.00    +0.011 C 
ATOM     30  C   UNL     1      34.521 -17.072 -23.204  0.00  0.00    +0.062 C 
ATOM     31  C   UNL     1      35.002 -19.436 -23.015  0.00  0.00    -0.001 C 
ATOM     32  C   UNL     1      34.664 -18.330 -23.796  0.00  0.00    +0.015 C 
ATOM     33  C   UNL     1      34.560 -15.583 -21.219  0.00  0.00    +0.207 C 
ATOM     34  C   UNL     1      34.056 -14.732 -23.311  0.00  0.00    +0.174 C 
ATOM     35  C   UNL     1      33.690 -13.549 -24.175  0.00  0.00    +0.085 C 
ATOM     36  H   UNL     1      34.041 -16.010 -24.923  0.00  0.00    +0.154 HD
ENDBRANCH  23  27
ENDBRANCH  21  23
ENDBRANCH   2  21
TORSDOF 11
ENDMDL
MODEL 4
REMARK VINA RESULT:     -11.6      2.396      4.200
REMARK  Name = 104758
REMARK  11 active torsions:
REMARK  status: ('A' for Active; 'I' for Inactive)
REMARK    1  A    between atoms: C_2  and  N_21
REMARK    2  A    between atoms: C_3  and  C_8
REMARK    3  A    between atoms: N_7  and  CA_10
REMARK    4  A    between atoms: CA_10  and  C_12
REMARK    5  A    between atoms: CA_10  and  CB_15
REMARK    6  A    between atoms: C_12  and  O_13
REMARK    7  A    between atoms: CB_15  and  CG_16
REMARK    8  A    between atoms: CG_16  and  CD_18
REMARK    9  A    between atoms: CD_18  and  OE1_19
REMARK   10  A    between atoms: N_21  and  C_23
REMARK   11  A    between atoms: C_23  and  C_27
REMARK                            x       y       z     vdW  Elec       q    Type
REMARK                         _______ _______ _______ _____ _____    ______ ____
ROOT
ATOM      1  S   UNL     1      34.550 -23.514 -15.619  0.00  0.00    -0.068 S 
ATOM      2  C   UNL     1      32.999 -23.253 -16.295  0.00  0.00    +0.079 C 
ATOM      3  C   UNL     1      33.874 -24.077 -14.150  0.00  0.00    +0.084 C 
ATOM      4  C   UNL     1      31.990 -23.588 -15.419  0.00  0.00    +0.022 C 
ATOM      5  C   UNL     1      32.497 -24.066 -14.177  0.00  0.00    +0.013 C 
ENDROOT
BRANCH   3   8
ATOM      6  O   UNL     1      34.352 -24.838 -11.958  0.00  0.00    -0.270 OA
ATOM      7  N   UNL     1      36.134 -24.443 -13.351  0.00  0.00    -0.293 N 
ATOM      8  C   ACE A   0      34.746 -24.482 -13.095  0.00  0.00    +0.252 C 
ATOM      9  H   UNL     1      36.433 -24.161 -14.246  0.00  0.00    +0.150 HD
BRANCH   7  10
ATOM     10  CA  UNL     1      37.140 -24.792 -12.374  0.00  0.00    +0.172 C 
BRANCH  10  12
ATOM     11  OXT UNL     1      36.923 -22.657 -11.225  0.00  0.00    -0.248 OA
ATOM     12  C   UNL     1      37.634 -23.506 -11.745  0.00  0.00    +0.332 C 
BRANCH  12  13
ATOM     13  O   UNL     1      38.989 -23.410 -11.784  0.00  0.00    -0.479 OA
ATOM     14  H   UNL     1      39.475 -23.299 -10.991  0.00  0.00    +0.295 HD
ENDBRANCH  12  13
ENDBRANCH  10  12
BRANCH  10  15
ATOM     15  CB  UNL     1      38.258 -25.662 -12.962  0.00  0.00    +0.043 C 
BRANCH  15  16
ATOM     16  CG  UNL     1      38.369 -25.666 -14.492  0.00  0.00    +0.112 C 
BRANCH  16  18
ATOM     17  OE2 UNL     1      40.269 -26.182 -15.927  0.00  0.00    -0.250 OA
ATOM     18  CD  UNL     1      39.789 -25.545 -15.000  0.00  0.00    +0.314 C 
BRANCH  18  19
ATOM     19  OE1 UNL     1      40.508 -24.653 -14.268  0.00  0.00    -0.480 OA
ATOM     20  HE1 UNL     1      40.929 -24.928 -13.477  0.00  0.00    +0.295 HD
ENDBRANCH  18  19
ENDBRANCH  16  18
ENDBRANCH  15  16
ENDBRANCH  10  15
ENDBRANCH   7  10
ENDBRANCH   3   8
BRANCH   2  21
ATOM     21  N   UNL     1      32.843 -22.758 -17.584  0.00  0.00    -0.297 N 
ATOM     22  C   UNL     1      31.591 -22.120 -17.995  0.00  0.00    +0.113 C 
BRANCH  21  23
ATOM     23  C   UNL     1      33.897 -22.840 -18.571  0.00  0.00    +0.118 C 
BRANCH  23  27
ATOM     24  O   UNL     1      37.255 -19.516 -20.628  0.00  0.00    -0.209 OA
ATOM     25  N   UNL     1      33.710 -18.419 -22.143  0.00  0.00    -0.290 N 
ATOM     26  N   UNL     1      36.066 -18.096 -21.978  0.00  0.00    -0.322 NA
ATOM     27  C   UNL     1      33.843 -21.681 -19.508  0.00  0.00    -0.002 C 
ATOM     28  C   UNL     1      34.953 -19.915 -20.721  0.00  0.00    +0.108 C 
ATOM     29  C   UNL     1      35.014 -21.000 -19.842  0.00  0.00    +0.011 C 
ATOM     30  C   UNL     1      33.728 -19.507 -21.268  0.00  0.00    +0.062 C 
ATOM     31  C   UNL     1      32.620 -21.280 -20.049  0.00  0.00    -0.001 C 
ATOM     32  C   UNL     1      32.561 -20.196 -20.926  0.00  0.00    +0.015 C 
ATOM     33  C   UNL     1      36.180 -19.163 -21.103  0.00  0.00    +0.207 C 
ATOM     34  C   UNL     1      34.891 -17.780 -22.439  0.00  0.00    +0.174 C 
ATOM     35  C   UNL     1      34.804 -16.611 -23.390  0.00  0.00    +0.085 C 
ATOM     36  H   UNL     1      32.863 -18.112 -22.541  0.00  0.00    +0.154 HD
ENDBRANCH  23  27
ENDBRANCH  21  23
ENDBRANCH   2  21
TORSDOF 11
ENDMDL
MODEL 5
REMARK VINA RESULT:     -11.4      4.586     12.805
REMARK  Name = 104758
REMARK  11 active torsions:
REMARK  status: ('A' for Active; 'I' for Inactive)
REMARK    1  A    between atoms: C_2  and  N_21
REMARK    2  A    between atoms: C_3  and  C_8
REMARK    3  A    between atoms: N_7  and  CA_10
REMARK    4  A    between atoms: CA_10  and  C_12
REMARK    5  A    between atoms: CA_10  and  CB_15
REMARK    6  A    between atoms: C_12  and  O_13
REMARK    7  A    between atoms: CB_15  and  CG_16
REMARK    8  A    between atoms: CG_16  and  CD_18
REMARK    9  A    between atoms: CD_18  and  OE1_19
REMARK   10  A    between atoms: N_21  and  C_23
REMARK   11  A    between atoms: C_23  and  C_27
REMARK                            x       y       z     vdW  Elec       q    Type
REMARK                         _______ _______ _______ _____ _____    ______ ____
ROOT
ATOM      1  S   UNL     1      34.032 -15.775 -24.411  0.00  0.00    -0.068 S 
ATOM      2  C   UNL     1      34.546 -16.723 -23.081  0.00  0.00    +0.079 C 
ATOM      3  C   UNL     1      33.942 -14.367 -23.442  0.00  0.00    +0.084 C 
ATOM      4  C   UNL     1      34.645 -15.981 -21.925  0.00  0.00    +0.022 C 
ATOM      5  C   UNL     1      34.296 -14.616 -22.134  0.00  0.00    +0.013 C 
ENDROOT
BRANCH   3   8
ATOM      6  O   UNL     1      33.038 -12.178 -23.400  0.00  0.00    -0.270 OA
ATOM      7  N   UNL     1      33.668 -13.022 -25.441  0.00  0.00    -0.293 N 
ATOM      8  C   ACE A   0      33.532 -13.138 -24.040  0.00  0.00    +0.252 C 
ATOM      9  H   UNL     1      34.057 -13.781 -25.933  0.00  0.00    +0.150 HD
BRANCH   7  10
ATOM     10  CA  UNL     1      33.269 -11.854 -26.192  0.00  0.00    +0.172 C 
BRANCH  10  12
ATOM     11  OXT UNL     1      32.757 -13.345 -28.047  0.00  0.00    -0.248 OA
ATOM     12  C   UNL     1      32.507 -12.331 -27.411  0.00  0.00    +0.332 C 
BRANCH  12  13
ATOM     13  O   UNL     1      31.464 -11.512 -27.708  0.00  0.00    -0.479 OA
ATOM     14  H   UNL     1      31.328 -10.727 -27.215  0.00  0.00    +0.295 HD
ENDBRANCH  12  13
ENDBRANCH  10  12
BRANCH  10  15
ATOM     15  CB  UNL     1      34.449 -10.932 -26.522  0.00  0.00    +0.043 C 
BRANCH  15  16
ATOM     16  CG  UNL     1      34.313  -9.477 -26.054  0.00  0.00    +0.112 C 
BRANCH  16  18
ATOM     17  OE2 UNL     1      34.814  -8.165 -24.063  0.00  0.00    -0.250 OA
ATOM     18  CD  UNL     1      34.836  -9.235 -24.655  0.00  0.00    +0.314 C 
BRANCH  18  19
ATOM     19  OE1 UNL     1      35.387 -10.360 -24.126  0.00  0.00    -0.480 OA
ATOM     20  HE1 UNL     1      35.097 -11.203 -24.414  0.00  0.00    +0.295 HD
ENDBRANCH  18  19
ENDBRANCH  16  18
ENDBRANCH  15  16
ENDBRANCH  10  15
ENDBRANCH   7  10
ENDBRANCH   3   8
BRANCH   2  21
ATOM     21  N   UNL     1      34.815 -18.079 -23.217  0.00  0.00    -0.297 N 
ATOM     22  C   UNL     1      34.294 -18.836 -24.357  0.00  0.00    +0.113 C 
BRANCH  21  23
ATOM     23  C   UNL     1      35.618 -18.804 -22.256  0.00  0.00    +0.118 C 
BRANCH  23  27
ATOM     24  O   UNL     1      36.343 -22.108 -18.369  0.00  0.00    -0.209 OA
ATOM     25  N   UNL     1      32.361 -21.941 -18.807  0.00  0.00    -0.290 N 
ATOM     26  N   UNL     1      34.273 -22.810 -17.679  0.00  0.00    -0.322 NA
ATOM     27  C   UNL     1      34.760 -19.625 -21.354  0.00  0.00    -0.002 C 
ATOM     28  C   UNL     1      34.534 -21.198 -19.539  0.00  0.00    +0.108 C 
ATOM     29  C   UNL     1      35.347 -20.433 -20.379  0.00  0.00    +0.011 C 
ATOM     30  C   UNL     1      33.138 -21.161 -19.667  0.00  0.00    +0.062 C 
ATOM     31  C   UNL     1      33.371 -19.584 -21.487  0.00  0.00    -0.001 C 
ATOM     32  C   UNL     1      32.561 -20.349 -20.647  0.00  0.00    +0.015 C 
ATOM     33  C   UNL     1      35.122 -22.072 -18.486  0.00  0.00    +0.207 C 
ATOM     34  C   UNL     1      32.988 -22.721 -17.864  0.00  0.00    +0.174 C 
ATOM     35  C   UNL     1      32.093 -23.540 -16.966  0.00  0.00    +0.085 C 
ATOM     36  H   UNL     1      31.380 -21.932 -18.875  0.00  0.00    +0.154 HD
ENDBRANCH  23  27
ENDBRANCH  21  23
ENDBRANCH   2  21
TORSDOF 11
ENDMDL
MODEL 6
REMARK VINA RESULT:     -11.4      2.907      4.595
REMARK  Name = 104758
REMARK  11 active torsions:
REMARK  status: ('A' for Active; 'I' for Inactive)
REMARK    1  A    between atoms: C_2  and  N_21
REMARK    2  A    between atoms: C_3  and  C_8
REMARK    3  A    between atoms: N_7  and  CA_10
REMARK    4  A    between atoms: CA_10  and  C_12
REMARK    5  A    between atoms: CA_10  and  CB_15
REMARK    6  A    between atoms: C_12  and  O_13
REMARK    7  A    between atoms: CB_15  and  CG_16
REMARK    8  A    between atoms: CG_16  and  CD_18
REMARK    9  A    between atoms: CD_18  and  OE1_19
REMARK   10  A    between atoms: N_21  and  C_23
REMARK   11  A    between atoms: C_23  and  C_27
REMARK                            x       y       z     vdW  Elec       q    Type
REMARK                         _______ _______ _______ _____ _____    ______ ____
ROOT
ATOM      1  S   UNL     1      34.754 -21.448 -19.836  0.00  0.00    -0.068 S 
ATOM      2  C   UNL     1      34.350 -20.156 -20.884  0.00  0.00    +0.079 C 
ATOM      3  C   UNL     1      33.128 -21.615 -19.327  0.00  0.00    +0.084 C 
ATOM      4  C   UNL     1      33.005 -19.860 -20.845  0.00  0.00    +0.022 C 
ATOM      5  C   UNL     1      32.298 -20.706 -19.943  0.00  0.00    +0.013 C 
ENDROOT
BRANCH   3   8
ATOM      6  O   UNL     1      33.381 -23.730 -18.290  0.00  0.00    -0.270 OA
ATOM      7  N   UNL     1      31.738 -22.345 -17.480  0.00  0.00    -0.293 N 
ATOM      8  C   ACE A   0      32.801 -22.620 -18.368  0.00  0.00    +0.252 C 
ATOM      9  H   UNL     1      31.289 -21.472 -17.550  0.00  0.00    +0.150 HD
BRANCH   7  10
ATOM     10  CA  UNL     1      31.271 -23.274 -16.476  0.00  0.00    +0.172 C 
BRANCH  10  12
ATOM     11  OXT UNL     1      29.075 -22.440 -17.116  0.00  0.00    -0.248 OA
ATOM     12  C   UNL     1      29.768 -23.114 -16.367  0.00  0.00    +0.332 C 
BRANCH  12  13
ATOM     13  O   UNL     1      29.253 -23.849 -15.347  0.00  0.00    -0.479 OA
ATOM     14  H   UNL     1      28.861 -24.682 -15.520  0.00  0.00    +0.295 HD
ENDBRANCH  12  13
ENDBRANCH  10  12
BRANCH  10  15
ATOM     15  CB  UNL     1      32.008 -23.121 -15.140  0.00  0.00    +0.043 C 
BRANCH  15  16
ATOM     16  CG  UNL     1      32.932 -24.281 -14.749  0.00  0.00    +0.112 C 
BRANCH  16  18
ATOM     17  OE2 UNL     1      35.173 -24.837 -15.531  0.00  0.00    -0.250 OA
ATOM     18  CD  UNL     1      34.392 -24.025 -15.053  0.00  0.00    +0.314 C 
BRANCH  18  19
ATOM     19  OE1 UNL     1      34.766 -22.769 -14.689  0.00  0.00    -0.480 OA
ATOM     20  HE1 UNL     1      35.629 -22.461 -14.889  0.00  0.00    +0.295 HD
ENDBRANCH  18  19
ENDBRANCH  16  18
ENDBRANCH  15  16
ENDBRANCH  10  15
ENDBRANCH   7  10
ENDBRANCH   3   8
BRANCH   2  21
ATOM     21  N   UNL     1      35.313 -19.521 -21.658  0.00  0.00    -0.297 N 
ATOM     22  C   UNL     1      36.586 -19.097 -21.071  0.00  0.00    +0.113 C 
BRANCH  21  23
ATOM     23  C   UNL     1      35.115 -19.255 -23.066  0.00  0.00    +0.118 C 
BRANCH  23  27
ATOM     24  O   UNL     1      33.303 -16.425 -26.973  0.00  0.00    -0.209 OA
ATOM     25  N   UNL     1      33.680 -13.823 -23.947  0.00  0.00    -0.290 N 
ATOM     26  N   UNL     1      33.079 -14.276 -26.209  0.00  0.00    -0.322 NA
ATOM     27  C   UNL     1      34.741 -17.829 -23.293  0.00  0.00    -0.002 C 
ATOM     28  C   UNL     1      33.920 -16.085 -24.743  0.00  0.00    +0.108 C 
ATOM     29  C   UNL     1      34.268 -17.422 -24.541  0.00  0.00    +0.011 C 
ATOM     30  C   UNL     1      34.040 -15.150 -23.705  0.00  0.00    +0.062 C 
ATOM     31  C   UNL     1      34.863 -16.904 -22.254  0.00  0.00    -0.001 C 
ATOM     32  C   UNL     1      34.514 -15.568 -22.458  0.00  0.00    +0.015 C 
ATOM     33  C   UNL     1      33.411 -15.611 -26.061  0.00  0.00    +0.207 C 
ATOM     34  C   UNL     1      33.222 -13.473 -25.195  0.00  0.00    +0.174 C 
ATOM     35  C   UNL     1      32.851 -12.023 -25.394  0.00  0.00    +0.085 C 
ATOM     36  H   UNL     1      33.754 -13.147 -23.235  0.00  0.00    +0.154 HD
ENDBRANCH  23  27
ENDBRANCH  21  23
ENDBRANCH   2  21
TORSDOF 11
ENDMDL
MODEL 7
REMARK VINA RESULT:     -11.3      2.544      4.386
REMARK  Name = 104758
REMARK  11 active torsions:
REMARK  status: ('A' for Active; 'I' for Inactive)
REMARK    1  A    between atoms: C_2  and  N_21
REMARK    2  A    between atoms: C_3  and  C_8
REMARK    3  A    between atoms: N_7  and  CA_10
REMARK    4  A    between atoms: CA_10  and  C_12
REMARK    5  A    between atoms: CA_10  and  CB_15
REMARK    6  A    between atoms: C_12  and  O_13
REMARK    7  A    between atoms: CB_15  and  CG_16
REMARK    8  A    between atoms: CG_16  and  CD_18
REMARK    9  A    between atoms: CD_18  and  OE1_19
REMARK   10  A    between atoms: N_21  and  C_23
REMARK   11  A    between atoms: C_23  and  C_27
REMARK                            x       y       z     vdW  Elec       q    Type
REMARK                         _______ _______ _______ _____ _____    ______ ____
ROOT
ATOM      1  S   UNL     1      35.181 -20.699 -20.157  0.00  0.00    -0.068 S 
ATOM      2  C   UNL     1      34.557 -19.375 -21.046  0.00  0.00    +0.079 C 
ATOM      3  C   UNL     1      33.611 -21.323 -19.882  0.00  0.00    +0.084 C 
ATOM      4  C   UNL     1      33.183 -19.410 -21.129  0.00  0.00    +0.022 C 
ATOM      5  C   UNL     1      32.635 -20.539 -20.455  0.00  0.00    +0.013 C 
ENDROOT
BRANCH   3   8
ATOM      6  O   UNL     1      33.730 -23.669 -19.572  0.00  0.00    -0.270 OA
ATOM      7  N   UNL     1      32.960 -22.409 -17.814  0.00  0.00    -0.293 N 
ATOM      8  C   ACE A   0      33.465 -22.526 -19.127  0.00  0.00    +0.252 C 
ATOM      9  H   UNL     1      32.755 -21.508 -17.474  0.00  0.00    +0.150 HD
BRANCH   7  10
ATOM     10  CA  UNL     1      32.728 -23.536 -16.940  0.00  0.00    +0.172 C 
BRANCH  10  12
ATOM     11  OXT UNL     1      30.931 -23.943 -15.349  0.00  0.00    -0.248 OA
ATOM     12  C   UNL     1      31.335 -23.390 -16.363  0.00  0.00    +0.332 C 
BRANCH  12  13
ATOM     13  O   UNL     1      30.575 -22.528 -17.087  0.00  0.00    -0.479 OA
ATOM     14  H   UNL     1      29.657 -22.454 -16.914  0.00  0.00    +0.295 HD
ENDBRANCH  12  13
ENDBRANCH  10  12
BRANCH  10  15
ATOM     15  CB  UNL     1      33.824 -23.698 -15.879  0.00  0.00    +0.043 C 
BRANCH  15  16
ATOM     16  CG  UNL     1      35.059 -22.805 -16.052  0.00  0.00    +0.112 C 
BRANCH  16  18
ATOM     17  OE2 UNL     1      37.196 -22.785 -14.881  0.00  0.00    -0.250 OA
ATOM     18  CD  UNL     1      36.327 -23.402 -15.481  0.00  0.00    +0.314 C 
BRANCH  18  19
ATOM     19  OE1 UNL     1      36.419 -24.731 -15.750  0.00  0.00    -0.480 OA
ATOM     20  HE1 UNL     1      36.047 -25.356 -15.159  0.00  0.00    +0.295 HD
ENDBRANCH  18  19
ENDBRANCH  16  18
ENDBRANCH  15  16
ENDBRANCH  10  15
ENDBRANCH   7  10
ENDBRANCH   3   8
BRANCH   2  21
ATOM     21  N   UNL     1      35.393 -18.411 -21.594  0.00  0.00    -0.297 N 
ATOM     22  C   UNL     1      36.417 -18.776 -22.575  0.00  0.00    +0.113 C 
BRANCH  21  23
ATOM     23  C   UNL     1      35.293 -17.013 -21.235  0.00  0.00    +0.118 C 
BRANCH  23  27
ATOM     24  O   UNL     1      34.192 -17.724 -26.218  0.00  0.00    -0.209 OA
ATOM     25  N   UNL     1      32.878 -14.020 -25.424  0.00  0.00    -0.290 N 
ATOM     26  N   UNL     1      33.186 -15.807 -26.972  0.00  0.00    -0.322 NA
ATOM     27  C   UNL     1      34.660 -16.224 -22.331  0.00  0.00    -0.002 C 
ATOM     28  C   UNL     1      33.937 -16.031 -24.624  0.00  0.00    +0.108 C 
ATOM     29  C   UNL     1      34.533 -16.778 -23.605  0.00  0.00    +0.011 C 
ATOM     30  C   UNL     1      33.468 -14.733 -24.378  0.00  0.00    +0.062 C 
ATOM     31  C   UNL     1      34.194 -14.932 -22.079  0.00  0.00    -0.001 C 
ATOM     32  C   UNL     1      33.600 -14.188 -23.099  0.00  0.00    +0.015 C 
ATOM     33  C   UNL     1      33.783 -16.588 -25.997  0.00  0.00    +0.207 C 
ATOM     34  C   UNL     1      32.778 -14.611 -26.662  0.00  0.00    +0.174 C 
ATOM     35  C   UNL     1      32.133 -13.788 -27.750  0.00  0.00    +0.085 C 
ATOM     36  H   UNL     1      32.539 -13.108 -25.278  0.00  0.00    +0.154 HD
ENDBRANCH  23  27
ENDBRANCH  21  23
ENDBRANCH   2  21
TORSDOF 11
ENDMDL
MODEL 8
REMARK VINA RESULT:     -11.3      1.988      3.447
REMARK  Name = 104758
REMARK  11 active torsions:
REMARK  status: ('A' for Active; 'I' for Inactive)
REMARK    1  A    between atoms: C_2  and  N_21
REMARK    2  A    between atoms: C_3  and  C_8
REMARK    3  A    between atoms: N_7  and  CA_10
REMARK    4  A    between atoms: CA_10  and  C_12
REMARK    5  A    between atoms: CA_10  and  CB_15
REMARK    6  A    between atoms: C_12  and  O_13
REMARK    7  A    between atoms: CB_15  and  CG_16
REMARK    8  A    between atoms: CG_16  and  CD_18
REMARK    9  A    between atoms: CD_18  and  OE1_19
REMARK   10  A    between atoms: N_21  and  C_23
REMARK   11  A    between atoms: C_23  and  C_27
REMARK                            x       y       z     vdW  Elec       q    Type
REMARK                         _______ _______ _______ _____ _____    ______ ____
ROOT
ATOM      1  S   UNL     1      34.236 -22.689 -17.677  0.00  0.00    -0.068 S 
ATOM      2  C   UNL     1      35.150 -21.619 -18.651  0.00  0.00    +0.079 C 
ATOM      3  C   UNL     1      35.481 -22.771 -16.504  0.00  0.00    +0.084 C 
ATOM      4  C   UNL     1      36.377 -21.333 -18.094  0.00  0.00    +0.022 C 
ATOM      5  C   UNL     1      36.568 -22.000 -16.850  0.00  0.00    +0.013 C 
ENDROOT
BRANCH   3   8
ATOM      6  O   UNL     1      34.300 -24.333 -15.170  0.00  0.00    -0.270 OA
ATOM      7  N   UNL     1      36.270 -23.503 -14.332  0.00  0.00    -0.293 N 
ATOM      8  C   ACE A   0      35.291 -23.583 -15.346  0.00  0.00    +0.252 C 
ATOM      9  H   UNL     1      37.043 -22.912 -14.479  0.00  0.00    +0.150 HD
BRANCH   7  10
ATOM     10  CA  UNL     1      36.201 -24.240 -13.090  0.00  0.00    +0.172 C 
BRANCH  10  12
ATOM     11  OXT UNL     1      37.499 -22.381 -12.203  0.00  0.00    -0.248 OA
ATOM     12  C   UNL     1      36.807 -23.371 -12.007  0.00  0.00    +0.332 C 
BRANCH  12  13
ATOM     13  O   UNL     1      36.462 -23.796 -10.764  0.00  0.00    -0.479 OA
ATOM     14  H   UNL     1      36.272 -23.173 -10.091  0.00  0.00    +0.295 HD
ENDBRANCH  12  13
ENDBRANCH  10  12
BRANCH  10  15
ATOM     15  CB  UNL     1      36.835 -25.632 -13.193  0.00  0.00    +0.043 C 
BRANCH  15  16
ATOM     16  CG  UNL     1      38.365 -25.680 -13.098  0.00  0.00    +0.112 C 
BRANCH  16  18
ATOM     17  OE2 UNL     1      39.762 -26.715 -14.806  0.00  0.00    -0.250 OA
ATOM     18  CD  UNL     1      39.056 -25.786 -14.440  0.00  0.00    +0.314 C 
BRANCH  18  19
ATOM     19  OE1 UNL     1      38.833 -24.684 -15.205  0.00  0.00    -0.480 OA
ATOM     20  HE1 UNL     1      38.147 -24.087 -14.979  0.00  0.00    +0.295 HD
ENDBRANCH  18  19
ENDBRANCH  16  18
ENDBRANCH  15  16
ENDBRANCH  10  15
ENDBRANCH   7  10
ENDBRANCH   3   8
BRANCH   2  21
ATOM     21  N   UNL     1      34.656 -21.133 -19.855  0.00  0.00    -0.297 N 
ATOM     22  C   UNL     1      33.232 -20.834 -20.014  0.00  0.00    +0.113 C 
BRANCH  21  23
ATOM     23  C   UNL     1      35.512 -20.891 -20.996  0.00  0.00    +0.118 C 
BRANCH  23  27
ATOM     24  O   UNL     1      34.973 -15.972 -19.560  0.00  0.00    -0.209 OA
ATOM     25  N   UNL     1      34.215 -15.951 -23.496  0.00  0.00    -0.290 N 
ATOM     26  N   UNL     1      34.415 -14.774 -21.433  0.00  0.00    -0.322 NA
ATOM     27  C   UNL     1      35.171 -19.598 -21.656  0.00  0.00    -0.002 C 
ATOM     28  C   UNL     1      34.800 -17.218 -21.531  0.00  0.00    +0.108 C 
ATOM     29  C   UNL     1      35.121 -18.424 -20.904  0.00  0.00    +0.011 C 
ATOM     30  C   UNL     1      34.530 -17.177 -22.907  0.00  0.00    +0.062 C 
ATOM     31  C   UNL     1      34.903 -19.565 -23.025  0.00  0.00    -0.001 C 
ATOM     32  C   UNL     1      34.584 -18.359 -23.650  0.00  0.00    +0.015 C 
ATOM     33  C   UNL     1      34.737 -15.943 -20.764  0.00  0.00    +0.207 C 
ATOM     34  C   UNL     1      34.176 -14.823 -22.711  0.00  0.00    +0.174 C 
ATOM     35  C   UNL     1      33.828 -13.530 -23.408  0.00  0.00    +0.085 C 
ATOM     36  H   UNL     1      34.022 -15.896 -24.460  0.00  0.00    +0.154 HD
ENDBRANCH  23  27
ENDBRANCH  21  23
ENDBRANCH   2  21
TORSDOF 11
ENDMDL
MODEL 9
REMARK VINA RESULT:     -11.3      4.939     12.229
REMARK  Name = 104758
REMARK  11 active torsions:
REMARK  status: ('A' for Active; 'I' for Inactive)
REMARK    1  A    between atoms: C_2  and  N_21
REMARK    2  A    between atoms: C_3  and  C_8
REMARK    3  A    between atoms: N_7  and  CA_10
REMARK    4  A    between atoms: CA_10  and  C_12
REMARK    5  A    between atoms: CA_10  and  CB_15
REMARK    6  A    between atoms: C_12  and  O_13
REMARK    7  A    between atoms: CB_15  and  CG_16
REMARK    8  A    between atoms: CG_16  and  CD_18
REMARK    9  A    between atoms: CD_18  and  OE1_19
REMARK   10  A    between atoms: N_21  and  C_23
REMARK   11  A    between atoms: C_23  and  C_27
REMARK                            x       y       z     vdW  Elec       q    Type
REMARK                         _______ _______ _______ _____ _____    ______ ____
ROOT
ATOM      1  S   UNL     1      33.853 -15.692 -24.617  0.00  0.00    -0.068 S 
ATOM      2  C   UNL     1      34.476 -16.595 -23.302  0.00  0.00    +0.079 C 
ATOM      3  C   UNL     1      33.787 -14.264 -23.675  0.00  0.00    +0.084 C 
ATOM      4  C   UNL     1      34.629 -15.823 -22.172  0.00  0.00    +0.022 C 
ATOM      5  C   UNL     1      34.230 -14.473 -22.388  0.00  0.00    +0.013 C 
ENDROOT
BRANCH   3   8
ATOM      6  O   UNL     1      32.695 -13.017 -25.368  0.00  0.00    -0.270 OA
ATOM      7  N   UNL     1      33.569 -11.851 -23.594  0.00  0.00    -0.293 N 
ATOM      8  C   ACE A   0      33.306 -13.060 -24.273  0.00  0.00    +0.252 C 
ATOM      9  H   UNL     1      34.050 -11.896 -22.735  0.00  0.00    +0.150 HD
BRANCH   7  10
ATOM     10  CA  UNL     1      33.174 -10.551 -24.087  0.00  0.00    +0.172 C 
BRANCH  10  12
ATOM     11  OXT UNL     1      34.254  -9.651 -26.075  0.00  0.00    -0.248 OA
ATOM     12  C   UNL     1      34.325 -10.002 -24.905  0.00  0.00    +0.332 C 
BRANCH  12  13
ATOM     13  O   UNL     1      35.464  -9.900 -24.172  0.00  0.00    -0.479 OA
ATOM     14  H   UNL     1      35.474  -9.386 -23.389  0.00  0.00    +0.295 HD
ENDBRANCH  12  13
ENDBRANCH  10  12
BRANCH  10  15
ATOM     15  CB  UNL     1      32.705  -9.612 -22.970  0.00  0.00    +0.043 C 
BRANCH  15  16
ATOM     16  CG  UNL     1      31.315  -9.902 -22.390  0.00  0.00    +0.112 C 
BRANCH  16  18
ATOM     17  OE2 UNL     1      31.623 -10.649 -20.091  0.00  0.00    -0.250 OA
ATOM     18  CD  UNL     1      31.325 -10.898 -21.251  0.00  0.00    +0.314 C 
BRANCH  18  19
ATOM     19  OE1 UNL     1      30.996 -12.147 -21.676  0.00  0.00    -0.480 OA
ATOM     20  HE1 UNL     1      31.185 -12.408 -22.556  0.00  0.00    +0.295 HD
ENDBRANCH  18  19
ENDBRANCH  16  18
ENDBRANCH  15  16
ENDBRANCH  10  15
ENDBRANCH   7  10
ENDBRANCH   3   8
BRANCH   2  21
ATOM     21  N   UNL     1      34.773 -17.946 -23.426  0.00  0.00    -0.297 N 
ATOM     22  C   UNL     1      34.260 -18.726 -24.554  0.00  0.00    +0.113 C 
BRANCH  21  23
ATOM     23  C   UNL     1      35.598 -18.643 -22.463  0.00  0.00    +0.118 C 
BRANCH  23  27
ATOM     24  O   UNL     1      36.423 -21.976 -18.621  0.00  0.00    -0.209 OA
ATOM     25  N   UNL     1      32.432 -21.816 -18.962  0.00  0.00    -0.290 N 
ATOM     26  N   UNL     1      34.372 -22.690 -17.887  0.00  0.00    -0.322 NA
ATOM     27  C   UNL     1      34.763 -19.474 -21.548  0.00  0.00    -0.002 C 
ATOM     28  C   UNL     1      34.585 -21.062 -19.740  0.00  0.00    +0.108 C 
ATOM     29  C   UNL     1      35.375 -20.288 -20.593  0.00  0.00    +0.011 C 
ATOM     30  C   UNL     1      33.186 -21.028 -19.834  0.00  0.00    +0.062 C 
ATOM     31  C   UNL     1      33.371 -19.435 -21.647  0.00  0.00    -0.001 C 
ATOM     32  C   UNL     1      32.584 -20.209 -20.793  0.00  0.00    +0.015 C 
ATOM     33  C   UNL     1      35.200 -21.943 -18.708  0.00  0.00    +0.207 C 
ATOM     34  C   UNL     1      33.083 -22.602 -18.041  0.00  0.00    +0.174 C 
ATOM     35  C   UNL     1      32.212 -23.431 -17.129  0.00  0.00    +0.085 C 
ATOM     36  H   UNL     1      31.449 -21.810 -19.007  0.00  0.00    +0.154 HD
ENDBRANCH  23  27
ENDBRANCH  21  23
ENDBRANCH   2  21
TORSDOF 11
ENDMDL
