MODEL 1
REMARK VINA RESULT:     -12.1      0.000      0.000
REMARK  Name = 4565
REMARK  4 active torsions:
REMARK  status: ('A' for Active; 'I' for Inactive)
REMARK    1  A    between atoms: N_5  and  C_15
REMARK    2  A    between atoms: C_6  and  O_21
REMARK    3  A    between atoms: O_21  and  C_22
REMARK    4  A    between atoms: C_22  and  C_23
REMARK                            x       y       z     vdW  Elec       q    Type
REMARK                         _______ _______ _______ _____ _____    ______ ____
ROOT
ATOM      1  N   UNL     1      32.416 -23.432 -15.943  0.00  0.00    -0.293 NA
ATOM      2  N   UNL     1      29.022 -22.728 -17.172  0.00  0.00    -0.266 NA
ATOM      3  N   UNL     1      30.639 -24.155 -14.435  0.00  0.00    -0.316 NA
ATOM      4  N   UNL     1      28.400 -23.684 -15.256  0.00  0.00    -0.296 N 
ATOM      5  N   UNL     1      32.895 -24.478 -13.904  0.00  0.00    -0.238 N 
ATOM      6  C   UNL     1      31.522 -22.957 -16.837  0.00  0.00    +0.288 C 
ATOM      7  C   UNL     1      30.181 -23.076 -16.538  0.00  0.00    +0.215 C 
ATOM      8  C   UNL     1      29.769 -23.668 -15.352  0.00  0.00    +0.196 C 
ATOM      9  C   UNL     1      31.926 -23.994 -14.812  0.00  0.00    +0.207 C 
ATOM     10  C   UNL     1      27.983 -23.112 -16.366  0.00  0.00    +0.164 C 
ATOM     11  H   UNL     1      28.946 -22.282 -18.047  0.00  0.00    +0.126 HD
ATOM     12  H   UNL     1      27.853 -24.043 -14.522  0.00  0.00    +0.150 HD
ATOM     13  H   UNL     1      32.510 -24.881 -13.091  0.00  0.00    +0.166 HD
ENDROOT
BRANCH   5  15
ATOM     14 CL   UNL     1      37.323 -22.942 -11.816  0.00  0.00    -0.082 Cl
ATOM     15  C   UNL     1      34.301 -24.496 -13.932  0.00  0.00    +0.059 C 
ATOM     16  C   UNL     1      35.031 -23.791 -12.972  0.00  0.00    +0.027 C 
ATOM     17  C   UNL     1      34.973 -25.219 -14.921  0.00  0.00    +0.015 C 
ATOM     18  C   UNL     1      36.425 -23.810 -13.001  0.00  0.00    +0.059 C 
ATOM     19  C   UNL     1      36.367 -25.238 -14.949  0.00  0.00    +0.002 C 
ATOM     20  C   UNL     1      37.094 -24.533 -13.989  0.00  0.00    +0.011 C 
ENDBRANCH   5  15
BRANCH   6  21
ATOM     21  O   UNL     1      31.985 -22.381 -17.995  0.00  0.00    -0.453 OA
BRANCH  21  22
ATOM     22  C   UNL     1      33.317 -22.675 -18.372  0.00  0.00    +0.208 C 
BRANCH  22  23
ATOM     23  C   UNL     1      33.657 -21.866 -19.622  0.00  0.00    +0.044 C 
ATOM     24  C   UNL     1      32.611 -20.768 -19.858  0.00  0.00    +0.004 C 
ATOM     25  C   UNL     1      35.065 -21.264 -19.512  0.00  0.00    +0.004 C 
ATOM     26  C   UNL     1      32.958 -19.910 -21.073  0.00  0.00    +0.000 C 
ATOM     27  C   UNL     1      35.407 -20.405 -20.727  0.00  0.00    +0.000 C 
ATOM     28  C   UNL     1      34.360 -19.321 -20.964  0.00  0.00    +0.000 C 
ENDBRANCH  22  23
ENDBRANCH  21  22
ENDBRANCH   6  21
TORSDOF 4
ENDMDL
MODEL 2
REMARK VINA RESULT:     -11.7      2.409      5.263
REMARK  Name = 4565
REMARK  4 active torsions:
REMARK  status: ('A' for Active; 'I' for Inactive)
REMARK    1  A    between atoms: N_5  and  C_15
REMARK    2  A    between atoms: C_6  and  O_21
REMARK    3  A    between atoms: O_21  and  C_22
REMARK    4  A    between atoms: C_22  and  C_23
REMARK                            x       y       z     vdW  Elec       q    Type
REMARK                         _______ _______ _______ _____ _____    ______ ____
ROOT
ATOM      1  N   UNL     1      34.820 -23.397 -16.320  0.00  0.00    -0.293 NA
ATOM      2  N   UNL     1      32.813 -22.023 -19.079  0.00  0.00    -0.266 NA
ATOM      3  N   UNL     1      36.091 -22.037 -17.898  0.00  0.00    -0.316 NA
ATOM      4  N   UNL     1      34.755 -21.135 -19.718  0.00  0.00    -0.296 N 
ATOM      5  N   UNL     1      37.118 -23.034 -16.047  0.00  0.00    -0.238 N 
ATOM      6  C   UNL     1      33.676 -23.205 -17.011  0.00  0.00    +0.288 C 
ATOM      7  C   UNL     1      33.729 -22.429 -18.151  0.00  0.00    +0.215 C 
ATOM      8  C   UNL     1      34.927 -21.864 -18.569  0.00  0.00    +0.196 C 
ATOM      9  C   UNL     1      35.943 -22.808 -16.800  0.00  0.00    +0.207 C 
ATOM     10  C   UNL     1      33.475 -21.251 -19.997  0.00  0.00    +0.164 C 
ATOM     11  H   UNL     1      31.854 -22.245 -19.088  0.00  0.00    +0.126 HD
ATOM     12  H   UNL     1      35.438 -20.636 -20.221  0.00  0.00    +0.150 HD
ATOM     13  H   UNL     1      37.917 -22.595 -16.418  0.00  0.00    +0.166 HD
ENDROOT
BRANCH   5  15
ATOM     14 CL   UNL     1      36.162 -23.729 -11.054  0.00  0.00    -0.082 Cl
ATOM     15  C   UNL     1      37.368 -23.764 -14.871  0.00  0.00    +0.059 C 
ATOM     16  C   UNL     1      36.717 -23.425 -13.682  0.00  0.00    +0.027 C 
ATOM     17  C   UNL     1      38.270 -24.831 -14.886  0.00  0.00    +0.015 C 
ATOM     18  C   UNL     1      36.966 -24.149 -12.517  0.00  0.00    +0.059 C 
ATOM     19  C   UNL     1      38.517 -25.556 -13.721  0.00  0.00    +0.002 C 
ATOM     20  C   UNL     1      37.865 -25.215 -12.535  0.00  0.00    +0.011 C 
ENDBRANCH   5  15
BRANCH   6  21
ATOM     21  O   UNL     1      32.519 -23.787 -16.553  0.00  0.00    -0.453 OA
BRANCH  21  22
ATOM     22  C   UNL     1      32.103 -23.446 -15.244  0.00  0.00    +0.208 C 
BRANCH  22  23
ATOM     23  C   UNL     1      30.576 -23.447 -15.205  0.00  0.00    +0.044 C 
ATOM     24  C   UNL     1      30.002 -22.751 -16.447  0.00  0.00    +0.004 C 
ATOM     25  C   UNL     1      30.038 -24.879 -15.084  0.00  0.00    +0.004 C 
ATOM     26  C   UNL     1      28.475 -22.787 -16.458  0.00  0.00    +0.000 C 
ATOM     27  C   UNL     1      28.511 -24.911 -15.098  0.00  0.00    +0.000 C 
ATOM     28  C   UNL     1      27.945 -24.210 -16.329  0.00  0.00    +0.000 C 
ENDBRANCH  22  23
ENDBRANCH  21  22
ENDBRANCH   6  21
TORSDOF 4
ENDMDL
MODEL 3
REMARK VINA RESULT:     -11.6      2.783      6.445
REMARK  Name = 4565
REMARK  4 active torsions:
REMARK  status: ('A' for Active; 'I' for Inactive)
REMARK    1  A    between atoms: N_5  and  C_15
REMARK    2  A    between atoms: C_6  and  O_21
REMARK    3  A    between atoms: O_21  and  C_22
REMARK    4  A    between atoms: C_22  and  C_23
REMARK                            x       y       z     vdW  Elec       q    Type
REMARK                         _______ _______ _______ _____ _____    ______ ____
ROOT
ATOM      1  N   UNL     1      33.185 -22.958 -16.594  0.00  0.00    -0.293 NA
ATOM      2  N   UNL     1      31.446 -24.663 -13.839  0.00  0.00    -0.266 NA
ATOM      3  N   UNL     1      30.782 -23.210 -16.936  0.00  0.00    -0.316 NA
ATOM      4  N   UNL     1      29.643 -24.339 -15.110  0.00  0.00    -0.296 N 
ATOM      5  N   UNL     1      32.136 -22.162 -18.531  0.00  0.00    -0.238 N 
ATOM      6  C   UNL     1      33.122 -23.577 -15.396  0.00  0.00    +0.288 C 
ATOM      7  C   UNL     1      31.891 -24.017 -14.957  0.00  0.00    +0.215 C 
ATOM      8  C   UNL     1      30.753 -23.827 -15.730  0.00  0.00    +0.196 C 
ATOM      9  C   UNL     1      32.026 -22.815 -17.282  0.00  0.00    +0.207 C 
ATOM     10  C   UNL     1      30.093 -24.833 -13.976  0.00  0.00    +0.164 C 
ATOM     11  H   UNL     1      31.995 -24.953 -13.075  0.00  0.00    +0.126 HD
ATOM     12  H   UNL     1      28.715 -24.337 -15.438  0.00  0.00    +0.150 HD
ATOM     13  H   UNL     1      31.278 -22.072 -19.008  0.00  0.00    +0.166 HD
ENDROOT
BRANCH   5  15
ATOM     14 CL   UNL     1      33.847 -18.936 -22.135  0.00  0.00    -0.082 Cl
ATOM     15  C   UNL     1      33.230 -21.617 -19.226  0.00  0.00    +0.059 C 
ATOM     16  C   UNL     1      33.021 -20.658 -20.222  0.00  0.00    +0.027 C 
ATOM     17  C   UNL     1      34.530 -22.031 -18.925  0.00  0.00    +0.015 C 
ATOM     18  C   UNL     1      34.107 -20.117 -20.910  0.00  0.00    +0.059 C 
ATOM     19  C   UNL     1      35.615 -21.489 -19.614  0.00  0.00    +0.002 C 
ATOM     20  C   UNL     1      35.403 -20.532 -20.607  0.00  0.00    +0.011 C 
ENDBRANCH   5  15
BRANCH   6  21
ATOM     21  O   UNL     1      34.279 -23.738 -14.673  0.00  0.00    -0.453 OA
BRANCH  21  22
ATOM     22  C   UNL     1      35.440 -23.095 -15.164  0.00  0.00    +0.208 C 
BRANCH  22  23
ATOM     23  C   UNL     1      36.664 -23.754 -14.531  0.00  0.00    +0.044 C 
ATOM     24  C   UNL     1      36.616 -23.630 -13.001  0.00  0.00    +0.004 C 
ATOM     25  C   UNL     1      36.768 -25.224 -14.956  0.00  0.00    +0.004 C 
ATOM     26  C   UNL     1      37.803 -24.328 -12.342  0.00  0.00    +0.000 C 
ATOM     27  C   UNL     1      37.955 -25.920 -14.292  0.00  0.00    +0.000 C 
ATOM     28  C   UNL     1      37.909 -25.787 -12.773  0.00  0.00    +0.000 C 
ENDBRANCH  22  23
ENDBRANCH  21  22
ENDBRANCH   6  21
TORSDOF 4
ENDMDL
MODEL 4
REMARK VINA RESULT:     -11.4      3.245      7.020
REMARK  Name = 4565
REMARK  4 active torsions:
REMARK  status: ('A' for Active; 'I' for Inactive)
REMARK    1  A    between atoms: N_5  and  C_15
REMARK    2  A    between atoms: C_6  and  O_21
REMARK    3  A    between atoms: O_21  and  C_22
REMARK    4  A    between atoms: C_22  and  C_23
REMARK                            x       y       z     vdW  Elec       q    Type
REMARK                         _______ _______ _______ _____ _____    ______ ____
ROOT
ATOM      1  N   UNL     1      34.920 -23.715 -15.653  0.00  0.00    -0.293 NA
ATOM      2  N   UNL     1      35.939 -25.487 -12.596  0.00  0.00    -0.266 NA
ATOM      3  N   UNL     1      37.292 -23.500 -15.119  0.00  0.00    -0.316 NA
ATOM      4  N   UNL     1      37.954 -24.674 -13.096  0.00  0.00    -0.296 N 
ATOM      5  N   UNL     1      36.371 -22.474 -17.010  0.00  0.00    -0.238 N 
ATOM      6  C   UNL     1      34.702 -24.484 -14.565  0.00  0.00    +0.288 C 
ATOM      7  C   UNL     1      35.774 -24.768 -13.745  0.00  0.00    +0.215 C 
ATOM      8  C   UNL     1      37.039 -24.274 -14.036  0.00  0.00    +0.196 C 
ATOM      9  C   UNL     1      36.186 -23.276 -15.860  0.00  0.00    +0.207 C 
ATOM     10  C   UNL     1      37.261 -25.401 -12.246  0.00  0.00    +0.164 C 
ATOM     11  H   UNL     1      35.238 -25.976 -12.108  0.00  0.00    +0.126 HD
ATOM     12  H   UNL     1      38.915 -24.465 -13.065  0.00  0.00    +0.150 HD
ATOM     13  H   UNL     1      37.300 -22.170 -17.135  0.00  0.00    +0.166 HD
ENDROOT
BRANCH   5  15
ATOM     14 CL   UNL     1      35.632 -19.660 -21.236  0.00  0.00    -0.082 Cl
ATOM     15  C   UNL     1      35.489 -22.025 -18.009  0.00  0.00    +0.059 C 
ATOM     16  C   UNL     1      35.944 -21.164 -19.011  0.00  0.00    +0.027 C 
ATOM     17  C   UNL     1      34.154 -22.437 -18.004  0.00  0.00    +0.015 C 
ATOM     18  C   UNL     1      35.069 -20.720 -20.002  0.00  0.00    +0.059 C 
ATOM     19  C   UNL     1      33.280 -21.993 -18.995  0.00  0.00    +0.002 C 
ATOM     20  C   UNL     1      33.737 -21.134 -19.995  0.00  0.00    +0.011 C 
ENDBRANCH   5  15
BRANCH   6  21
ATOM     21  O   UNL     1      33.430 -24.946 -14.325  0.00  0.00    -0.453 OA
BRANCH  21  22
ATOM     22  C   UNL     1      32.446 -23.981 -14.001  0.00  0.00    +0.208 C 
BRANCH  22  23
ATOM     23  C   UNL     1      31.235 -24.203 -14.905  0.00  0.00    +0.044 C 
ATOM     24  C   UNL     1      30.091 -24.867 -14.125  0.00  0.00    +0.004 C 
ATOM     25  C   UNL     1      30.774 -22.879 -15.528  0.00  0.00    +0.004 C 
ATOM     26  C   UNL     1      28.849 -25.051 -14.994  0.00  0.00    +0.000 C 
ATOM     27  C   UNL     1      29.530 -23.066 -16.393  0.00  0.00    +0.000 C 
ATOM     28  C   UNL     1      28.399 -23.735 -15.618  0.00  0.00    +0.000 C 
ENDBRANCH  22  23
ENDBRANCH  21  22
ENDBRANCH   6  21
TORSDOF 4
ENDMDL
MODEL 5
REMARK VINA RESULT:     -11.2      2.684      5.731
REMARK  Name = 4565
REMARK  4 active torsions:
REMARK  status: ('A' for Active; 'I' for Inactive)
REMARK    1  A    between atoms: N_5  and  C_15
REMARK    2  A    between atoms: C_6  and  O_21
REMARK    3  A    between atoms: O_21  and  C_22
REMARK    4  A    between atoms: C_22  and  C_23
REMARK                            x       y       z     vdW  Elec       q    Type
REMARK                         _______ _______ _______ _____ _____    ______ ____
ROOT
ATOM      1  N   UNL     1      34.788 -22.783 -17.370  0.00  0.00    -0.293 NA
ATOM      2  N   UNL     1      33.247 -21.141 -20.278  0.00  0.00    -0.266 NA
ATOM      3  N   UNL     1      36.240 -21.175 -18.494  0.00  0.00    -0.316 NA
ATOM      4  N   UNL     1      35.212 -20.097 -20.415  0.00  0.00    -0.296 N 
ATOM      5  N   UNL     1      36.965 -22.365 -16.614  0.00  0.00    -0.238 N 
ATOM      6  C   UNL     1      33.783 -22.549 -18.242  0.00  0.00    +0.288 C 
ATOM      7  C   UNL     1      33.998 -21.627 -19.246  0.00  0.00    +0.215 C 
ATOM      8  C   UNL     1      35.213 -20.964 -19.352  0.00  0.00    +0.196 C 
ATOM      9  C   UNL     1      35.939 -22.090 -17.547  0.00  0.00    +0.207 C 
ATOM     10  C   UNL     1      34.017 -20.228 -20.949  0.00  0.00    +0.164 C 
ATOM     11  H   UNL     1      32.323 -21.399 -20.500  0.00  0.00    +0.126 HD
ATOM     12  H   UNL     1      35.943 -19.508 -20.711  0.00  0.00    +0.150 HD
ATOM     13  H   UNL     1      37.789 -21.848 -16.766  0.00  0.00    +0.166 HD
ENDROOT
BRANCH   5  15
ATOM     14 CL   UNL     1      39.522 -26.048 -14.119  0.00  0.00    -0.082 Cl
ATOM     15  C   UNL     1      37.038 -23.233 -15.509  0.00  0.00    +0.059 C 
ATOM     16  C   UNL     1      38.118 -24.109 -15.376  0.00  0.00    +0.027 C 
ATOM     17  C   UNL     1      36.032 -23.221 -14.540  0.00  0.00    +0.015 C 
ATOM     18  C   UNL     1      38.190 -24.969 -14.280  0.00  0.00    +0.059 C 
ATOM     19  C   UNL     1      36.105 -24.081 -13.444  0.00  0.00    +0.002 C 
ATOM     20  C   UNL     1      37.185 -24.955 -13.314  0.00  0.00    +0.011 C 
ENDBRANCH   5  15
BRANCH   6  21
ATOM     21  O   UNL     1      32.602 -23.233 -18.091  0.00  0.00    -0.453 OA
BRANCH  21  22
ATOM     22  C   UNL     1      31.671 -22.712 -17.161  0.00  0.00    +0.208 C 
BRANCH  22  23
ATOM     23  C   UNL     1      31.401 -23.775 -16.098  0.00  0.00    +0.044 C 
ATOM     24  C   UNL     1      32.288 -23.547 -14.866  0.00  0.00    +0.004 C 
ATOM     25  C   UNL     1      29.917 -23.786 -15.707  0.00  0.00    +0.004 C 
ATOM     26  C   UNL     1      31.999 -24.566 -13.767  0.00  0.00    +0.000 C 
ATOM     27  C   UNL     1      29.632 -24.804 -14.606  0.00  0.00    +0.000 C 
ATOM     28  C   UNL     1      30.522 -24.580 -13.387  0.00  0.00    +0.000 C 
ENDBRANCH  22  23
ENDBRANCH  21  22
ENDBRANCH   6  21
TORSDOF 4
ENDMDL
MODEL 6
REMARK VINA RESULT:     -11.1      3.230      7.128
REMARK  Name = 4565
REMARK  4 active torsions:
REMARK  status: ('A' for Active; 'I' for Inactive)
REMARK    1  A    between atoms: N_5  and  C_15
REMARK    2  A    between atoms: C_6  and  O_21
REMARK    3  A    between atoms: O_21  and  C_22
REMARK    4  A    between atoms: C_22  and  C_23
REMARK                            x       y       z     vdW  Elec       q    Type
REMARK                         _______ _______ _______ _____ _____    ______ ____
ROOT
ATOM      1  N   UNL     1      34.412 -22.856 -16.963  0.00  0.00    -0.293 NA
ATOM      2  N   UNL     1      35.144 -24.840 -13.955  0.00  0.00    -0.266 NA
ATOM      3  N   UNL     1      36.781 -22.958 -16.387  0.00  0.00    -0.316 NA
ATOM      4  N   UNL     1      37.254 -24.270 -14.397  0.00  0.00    -0.296 N 
ATOM      5  N   UNL     1      36.031 -21.763 -18.255  0.00  0.00    -0.238 N 
ATOM      6  C   UNL     1      34.078 -23.627 -15.906  0.00  0.00    +0.288 C 
ATOM      7  C   UNL     1      35.092 -24.069 -15.081  0.00  0.00    +0.215 C 
ATOM      8  C   UNL     1      36.413 -23.728 -15.336  0.00  0.00    +0.196 C 
ATOM      9  C   UNL     1      35.725 -22.573 -17.137  0.00  0.00    +0.207 C 
ATOM     10  C   UNL     1      36.460 -24.932 -13.583  0.00  0.00    +0.164 C 
ATOM     11  H   UNL     1      34.379 -25.254 -13.494  0.00  0.00    +0.126 HD
ATOM     12  H   UNL     1      38.233 -24.184 -14.345  0.00  0.00    +0.150 HD
ATOM     13  H   UNL     1      36.993 -21.574 -18.356  0.00  0.00    +0.166 HD
ENDROOT
BRANCH   5  15
ATOM     14 CL   UNL     1      35.704 -18.633 -22.307  0.00  0.00    -0.082 Cl
ATOM     15  C   UNL     1      35.231 -21.175 -19.251  0.00  0.00    +0.059 C 
ATOM     16  C   UNL     1      35.797 -20.297 -20.178  0.00  0.00    +0.027 C 
ATOM     17  C   UNL     1      33.866 -21.467 -19.317  0.00  0.00    +0.015 C 
ATOM     18  C   UNL     1      35.003 -19.715 -21.165  0.00  0.00    +0.059 C 
ATOM     19  C   UNL     1      33.073 -20.885 -20.305  0.00  0.00    +0.002 C 
ATOM     20  C   UNL     1      33.641 -20.008 -21.230  0.00  0.00    +0.011 C 
ENDBRANCH   5  15
BRANCH   6  21
ATOM     21  O   UNL     1      32.755 -23.934 -15.701  0.00  0.00    -0.453 OA
BRANCH  21  22
ATOM     22  C   UNL     1      32.098 -23.270 -14.637  0.00  0.00    +0.208 C 
BRANCH  22  23
ATOM     23  C   UNL     1      30.592 -23.342 -14.878  0.00  0.00    +0.044 C 
ATOM     24  C   UNL     1      30.235 -22.775 -16.259  0.00  0.00    +0.004 C 
ATOM     25  C   UNL     1      30.089 -24.785 -14.733  0.00  0.00    +0.004 C 
ATOM     26  C   UNL     1      28.739 -22.886 -16.545  0.00  0.00    +0.000 C 
ATOM     27  C   UNL     1      28.593 -24.892 -15.022  0.00  0.00    +0.000 C 
ATOM     28  C   UNL     1      28.242 -24.319 -16.392  0.00  0.00    +0.000 C 
ENDBRANCH  22  23
ENDBRANCH  21  22
ENDBRANCH   6  21
TORSDOF 4
ENDMDL
MODEL 7
REMARK VINA RESULT:     -10.7      8.387     11.694
REMARK  Name = 4565
REMARK  4 active torsions:
REMARK  status: ('A' for Active; 'I' for Inactive)
REMARK    1  A    between atoms: N_5  and  C_15
REMARK    2  A    between atoms: C_6  and  O_21
REMARK    3  A    between atoms: O_21  and  C_22
REMARK    4  A    between atoms: C_22  and  C_23
REMARK                            x       y       z     vdW  Elec       q    Type
REMARK                         _______ _______ _______ _____ _____    ______ ____
ROOT
ATOM      1  N   UNL     1      33.825 -15.491 -23.929  0.00  0.00    -0.293 NA
ATOM      2  N   UNL     1      32.717 -12.837 -26.221  0.00  0.00    -0.266 NA
ATOM      3  N   UNL     1      33.348 -16.263 -26.195  0.00  0.00    -0.316 NA
ATOM      4  N   UNL     1      32.616 -14.501 -27.700  0.00  0.00    -0.296 N 
ATOM      5  N   UNL     1      34.071 -17.741 -24.531  0.00  0.00    -0.238 N 
ATOM      6  C   UNL     1      33.505 -14.218 -24.251  0.00  0.00    +0.288 C 
ATOM      7  C   UNL     1      33.105 -13.958 -25.545  0.00  0.00    +0.215 C 
ATOM      8  C   UNL     1      33.034 -14.978 -26.484  0.00  0.00    +0.196 C 
ATOM      9  C   UNL     1      33.728 -16.422 -24.908  0.00  0.00    +0.207 C 
ATOM     10  C   UNL     1      32.434 -13.212 -27.508  0.00  0.00    +0.164 C 
ATOM     11  H   UNL     1      32.651 -11.926 -25.853  0.00  0.00    +0.126 HD
ATOM     12  H   UNL     1      32.482 -15.010 -28.532  0.00  0.00    +0.150 HD
ATOM     13  H   UNL     1      33.991 -18.396 -25.261  0.00  0.00    +0.166 HD
ENDROOT
BRANCH   5  15
ATOM     14 CL   UNL     1      32.941 -20.472 -20.336  0.00  0.00    -0.082 Cl
ATOM     15  C   UNL     1      34.503 -18.299 -23.314  0.00  0.00    +0.059 C 
ATOM     16  C   UNL     1      33.612 -19.024 -22.519  0.00  0.00    +0.027 C 
ATOM     17  C   UNL     1      35.826 -18.132 -22.896  0.00  0.00    +0.015 C 
ATOM     18  C   UNL     1      34.042 -19.579 -21.314  0.00  0.00    +0.059 C 
ATOM     19  C   UNL     1      36.255 -18.687 -21.691  0.00  0.00    +0.002 C 
ATOM     20  C   UNL     1      35.362 -19.411 -20.899  0.00  0.00    +0.011 C 
ENDBRANCH   5  15
BRANCH   6  21
ATOM     21  O   UNL     1      33.593 -13.248 -23.282  0.00  0.00    -0.453 OA
BRANCH  21  22
ATOM     22  C   UNL     1      32.845 -13.453 -22.098  0.00  0.00    +0.208 C 
BRANCH  22  23
ATOM     23  C   UNL     1      31.854 -12.301 -21.945  0.00  0.00    +0.044 C 
ATOM     24  C   UNL     1      31.588 -12.009 -20.461  0.00  0.00    +0.004 C 
ATOM     25  C   UNL     1      32.367 -11.047 -22.664  0.00  0.00    +0.004 C 
ATOM     26  C   UNL     1      30.640 -10.825 -20.281  0.00  0.00    +0.000 C 
ATOM     27  C   UNL     1      31.418  -9.864 -22.480  0.00  0.00    +0.000 C 
ATOM     28  C   UNL     1      31.148  -9.583 -21.005  0.00  0.00    +0.000 C 
ENDBRANCH  22  23
ENDBRANCH  21  22
ENDBRANCH   6  21
TORSDOF 4
ENDMDL
MODEL 8
REMARK VINA RESULT:     -10.5      9.186     13.371
REMARK  Name = 4565
REMARK  4 active torsions:
REMARK  status: ('A' for Active; 'I' for Inactive)
REMARK    1  A    between atoms: N_5  and  C_15
REMARK    2  A    between atoms: C_6  and  O_21
REMARK    3  A    between atoms: O_21  and  C_22
REMARK    4  A    between atoms: C_22  and  C_23
REMARK                            x       y       z     vdW  Elec       q    Type
REMARK                         _______ _______ _______ _____ _____    ______ ____
ROOT
ATOM      1  N   UNL     1      33.514 -14.078 -25.143  0.00  0.00    -0.293 NA
ATOM      2  N   UNL     1      32.416 -17.489 -25.969  0.00  0.00    -0.266 NA
ATOM      3  N   UNL     1      32.227 -14.239 -27.211  0.00  0.00    -0.316 NA
ATOM      4  N   UNL     1      31.508 -16.498 -27.747  0.00  0.00    -0.296 N 
ATOM      5  N   UNL     1      33.050 -12.187 -26.445  0.00  0.00    -0.238 N 
ATOM      6  C   UNL     1      33.413 -15.407 -24.927  0.00  0.00    +0.288 C 
ATOM      7  C   UNL     1      32.720 -16.163 -25.850  0.00  0.00    +0.215 C 
ATOM      8  C   UNL     1      32.145 -15.569 -26.965  0.00  0.00    +0.196 C 
ATOM      9  C   UNL     1      32.922 -13.582 -26.257  0.00  0.00    +0.207 C 
ATOM     10  C   UNL     1      31.689 -17.641 -27.120  0.00  0.00    +0.164 C 
ATOM     11  H   UNL     1      32.672 -18.205 -25.343  0.00  0.00    +0.126 HD
ATOM     12  H   UNL     1      31.022 -16.344 -28.590  0.00  0.00    +0.150 HD
ATOM     13  H   UNL     1      32.611 -11.855 -27.262  0.00  0.00    +0.166 HD
ENDROOT
BRANCH   5  15
ATOM     14 CL   UNL     1      32.820  -8.838 -22.565  0.00  0.00    -0.082 Cl
ATOM     15  C   UNL     1      33.684 -11.180 -25.695  0.00  0.00    +0.059 C 
ATOM     16  C   UNL     1      33.016 -10.577 -24.626  0.00  0.00    +0.027 C 
ATOM     17  C   UNL     1      34.984 -10.779 -26.014  0.00  0.00    +0.015 C 
ATOM     18  C   UNL     1      33.645  -9.579 -23.882  0.00  0.00    +0.059 C 
ATOM     19  C   UNL     1      35.612  -9.782 -25.269  0.00  0.00    +0.002 C 
ATOM     20  C   UNL     1      34.943  -9.181 -24.203  0.00  0.00    +0.011 C 
ENDBRANCH   5  15
BRANCH   6  21
ATOM     21  O   UNL     1      34.002 -15.943 -23.808  0.00  0.00    -0.453 OA
BRANCH  21  22
ATOM     22  C   UNL     1      34.652 -17.191 -23.957  0.00  0.00    +0.208 C 
BRANCH  22  23
ATOM     23  C   UNL     1      34.711 -17.873 -22.592  0.00  0.00    +0.044 C 
ATOM     24  C   UNL     1      33.687 -19.014 -22.511  0.00  0.00    +0.004 C 
ATOM     25  C   UNL     1      36.127 -18.390 -22.305  0.00  0.00    +0.004 C 
ATOM     26  C   UNL     1      33.763 -19.746 -21.173  0.00  0.00    +0.000 C 
ATOM     27  C   UNL     1      36.199 -19.124 -20.968  0.00  0.00    +0.000 C 
ATOM     28  C   UNL     1      35.173 -20.250 -20.888  0.00  0.00    +0.000 C 
ENDBRANCH  22  23
ENDBRANCH  21  22
ENDBRANCH   6  21
TORSDOF 4
ENDMDL
MODEL 9
REMARK VINA RESULT:     -10.4      2.972      5.643
REMARK  Name = 4565
REMARK  4 active torsions:
REMARK  status: ('A' for Active; 'I' for Inactive)
REMARK    1  A    between atoms: N_5  and  C_15
REMARK    2  A    between atoms: C_6  and  O_21
REMARK    3  A    between atoms: O_21  and  C_22
REMARK    4  A    between atoms: C_22  and  C_23
REMARK                            x       y       z     vdW  Elec       q    Type
REMARK                         _______ _______ _______ _____ _____    ______ ____
ROOT
ATOM      1  N   UNL     1      34.604 -23.354 -15.477  0.00  0.00    -0.293 NA
ATOM      2  N   UNL     1      38.264 -23.499 -15.809  0.00  0.00    -0.266 NA
ATOM      3  N   UNL     1      35.654 -25.134 -14.179  0.00  0.00    -0.316 NA
ATOM      4  N   UNL     1      38.072 -25.222 -14.407  0.00  0.00    -0.296 N 
ATOM      5  N   UNL     1      33.337 -24.813 -14.153  0.00  0.00    -0.238 N 
ATOM      6  C   UNL     1      35.798 -22.941 -15.954  0.00  0.00    +0.288 C 
ATOM      7  C   UNL     1      36.928 -23.620 -15.549  0.00  0.00    +0.215 C 
ATOM      8  C   UNL     1      36.835 -24.695 -14.676  0.00  0.00    +0.196 C 
ATOM      9  C   UNL     1      34.606 -24.412 -14.629  0.00  0.00    +0.207 C 
ATOM     10  C   UNL     1      38.908 -24.480 -15.102  0.00  0.00    +0.164 C 
ATOM     11  H   UNL     1      38.686 -22.831 -16.396  0.00  0.00    +0.126 HD
ATOM     12  H   UNL     1      38.288 -25.984 -13.822  0.00  0.00    +0.150 HD
ATOM     13  H   UNL     1      33.368 -25.583 -13.539  0.00  0.00    +0.166 HD
ENDROOT
BRANCH   5  15
ATOM     14 CL   UNL     1      28.317 -25.796 -14.556  0.00  0.00    -0.082 Cl
ATOM     15  C   UNL     1      32.037 -24.327 -14.384  0.00  0.00    +0.059 C 
ATOM     16  C   UNL     1      30.947 -25.200 -14.359  0.00  0.00    +0.027 C 
ATOM     17  C   UNL     1      31.831 -22.969 -14.639  0.00  0.00    +0.015 C 
ATOM     18  C   UNL     1      29.659 -24.717 -14.588  0.00  0.00    +0.059 C 
ATOM     19  C   UNL     1      30.542 -22.486 -14.867  0.00  0.00    +0.002 C 
ATOM     20  C   UNL     1      29.455 -23.361 -14.841  0.00  0.00    +0.011 C 
ENDBRANCH   5  15
BRANCH   6  21
ATOM     21  O   UNL     1      35.832 -21.871 -16.816  0.00  0.00    -0.453 OA
BRANCH  21  22
ATOM     22  C   UNL     1      36.530 -22.049 -18.034  0.00  0.00    +0.208 C 
BRANCH  22  23
ATOM     23  C   UNL     1      35.561 -21.803 -19.188  0.00  0.00    +0.044 C 
ATOM     24  C   UNL     1      34.109 -21.821 -18.689  0.00  0.00    +0.004 C 
ATOM     25  C   UNL     1      35.880 -20.478 -19.892  0.00  0.00    +0.004 C 
ATOM     26  C   UNL     1      33.122 -21.525 -19.817  0.00  0.00    +0.000 C 
ATOM     27  C   UNL     1      34.890 -20.184 -21.017  0.00  0.00    +0.000 C 
ATOM     28  C   UNL     1      33.448 -20.212 -20.519  0.00  0.00    +0.000 C 
ENDBRANCH  22  23
ENDBRANCH  21  22
ENDBRANCH   6  21
TORSDOF 4
ENDMDL
