MODEL 1
REMARK VINA RESULT:     -12.4      0.000      0.000
REMARK  Name = 24883488
REMARK  8 active torsions:
REMARK  status: ('A' for Active; 'I' for Inactive)
REMARK    1  A    between atoms: N_2  and  C_11
REMARK    2  A    between atoms: C_3  and  C_19
REMARK    3  A    between atoms: C_19  and  C_20
REMARK    4  A    between atoms: C_20  and  C_23
REMARK    5  A    between atoms: N_22  and  C_25
REMARK    6  A    between atoms: C_27  and  O_31
REMARK    7  A    between atoms: O_31  and  C_32
REMARK    8  A    between atoms: C_32  and  C_34
REMARK                            x       y       z     vdW  Elec       q    Type
REMARK                         _______ _______ _______ _____ _____    ______ ____
ROOT
ATOM      1  O   UNL     1      33.199 -24.009 -17.768  0.00  0.00    -0.275 OA
ATOM      2  N   UNL     1      34.683 -22.278 -17.185  0.00  0.00    -0.284 N 
ATOM      3  C   UNL     1      33.648 -22.877 -17.912  0.00  0.00    +0.227 C 
ATOM      4  H   UNL     1      34.928 -21.364 -17.458  0.00  0.00    +0.155 HD
ENDROOT
BRANCH   2  11
ATOM      5  O   UNL     1      33.585 -24.122 -12.548  0.00  0.00    -0.282 OA
ATOM      6  O   UNL     1      38.888 -24.549 -12.964  0.00  0.00    -0.270 OA
ATOM      7  O   UNL     1      34.995 -25.132 -10.542  0.00  0.00    -0.266 OA
ATOM      8  N   UNL     1      36.954 -24.840 -11.752  0.00  0.00    -0.246 N 
ATOM      9  C   UNL     1      35.491 -23.762 -13.901  0.00  0.00    +0.049 C 
ATOM     10  C   UNL     1      36.877 -23.882 -13.993  0.00  0.00    +0.057 C 
ATOM     11  C   UNL     1      35.413 -22.810 -16.121  0.00  0.00    +0.050 C 
ATOM     12  C   UNL     1      34.755 -23.226 -14.964  0.00  0.00    +0.018 C 
ATOM     13  C   UNL     1      37.532 -23.462 -15.157  0.00  0.00    +0.006 C 
ATOM     14  C   UNL     1      36.798 -22.928 -16.218  0.00  0.00    +0.015 C 
ATOM     15  C   UNL     1      34.795 -24.200 -12.684  0.00  0.00    +0.249 C 
ATOM     16  C   UNL     1      37.667 -24.445 -12.878  0.00  0.00    +0.252 C 
ATOM     17  C   UNL     1      35.589 -24.772 -11.548  0.00  0.00    +0.291 C 
ATOM     18  H   UNL     1      37.485 -25.215 -11.013  0.00  0.00    +0.158 HD
ENDBRANCH   2  11
BRANCH   3  19
ATOM     19  C   UNL     1      33.105 -21.965 -19.001  0.00  0.00    +0.095 C 
BRANCH  19  20
ATOM     20  C   UNL     1      34.233 -21.245 -19.734  0.00  0.00    +0.095 C 
BRANCH  20  23
ATOM     21  O   UNL     1      32.482 -20.042 -20.829  0.00  0.00    -0.275 OA
ATOM     22  N   UNL     1      34.713 -19.430 -21.245  0.00  0.00    -0.284 N 
ATOM     23  C   UNL     1      33.691 -20.179 -20.672  0.00  0.00    +0.227 C 
ATOM     24  H   UNL     1      35.630 -19.674 -20.980  0.00  0.00    +0.155 HD
BRANCH  22  25
ATOM     25  C   UNL     1      34.592 -18.361 -22.160  0.00  0.00    +0.053 C 
ATOM     26  C   UNL     1      34.198 -18.609 -23.475  0.00  0.00    +0.052 C 
ATOM     27  C   UNL     1      34.079 -17.553 -24.380  0.00  0.00    +0.140 C 
ATOM     28  C   UNL     1      34.868 -17.057 -21.750  0.00  0.00    +0.015 C 
ATOM     29  C   UNL     1      34.355 -16.248 -23.968  0.00  0.00    +0.037 C 
ATOM     30  C   UNL     1      34.749 -16.000 -22.653  0.00  0.00    +0.004 C 
BRANCH  27  31
ATOM     31  O   UNL     1      33.695 -17.794 -25.662  0.00  0.00    -0.472 OA
BRANCH  31  32
ATOM     32  C   UNL     1      32.862 -16.817 -26.285  0.00  0.00    +0.243 C 
BRANCH  32  34
ATOM     33  F   UNL     1      31.595 -18.779 -26.324  0.00  0.00    -0.230 F 
ATOM     34  C   UNL     1      31.527 -17.448 -26.607  0.00  0.00    +0.240 C 
ENDBRANCH  32  34
ENDBRANCH  31  32
ENDBRANCH  27  31
ENDBRANCH  22  25
ENDBRANCH  20  23
ENDBRANCH  19  20
ENDBRANCH   3  19
TORSDOF 8
ENDMDL
MODEL 2
REMARK VINA RESULT:     -12.2      1.745      2.289
REMARK  Name = 24883488
REMARK  8 active torsions:
REMARK  status: ('A' for Active; 'I' for Inactive)
REMARK    1  A    between atoms: N_2  and  C_11
REMARK    2  A    between atoms: C_3  and  C_19
REMARK    3  A    between atoms: C_19  and  C_20
REMARK    4  A    between atoms: C_20  and  C_23
REMARK    5  A    between atoms: N_22  and  C_25
REMARK    6  A    between atoms: C_27  and  O_31
REMARK    7  A    between atoms: O_31  and  C_32
REMARK    8  A    between atoms: C_32  and  C_34
REMARK                            x       y       z     vdW  Elec       q    Type
REMARK                         _______ _______ _______ _____ _____    ______ ____
ROOT
ATOM      1  O   UNL     1      32.969 -23.928 -17.566  0.00  0.00    -0.275 OA
ATOM      2  N   UNL     1      34.684 -22.344 -17.260  0.00  0.00    -0.284 N 
ATOM      3  C   UNL     1      33.540 -22.883 -17.862  0.00  0.00    +0.227 C 
ATOM      4  H   UNL     1      35.018 -21.504 -17.649  0.00  0.00    +0.155 HD
ENDROOT
BRANCH   2  11
ATOM      5  O   UNL     1      33.558 -24.202 -12.636  0.00  0.00    -0.282 OA
ATOM      6  O   UNL     1      38.880 -24.449 -12.946  0.00  0.00    -0.270 OA
ATOM      7  O   UNL     1      34.962 -25.154 -10.597  0.00  0.00    -0.266 OA
ATOM      8  N   UNL     1      36.934 -24.801 -11.770  0.00  0.00    -0.246 N 
ATOM      9  C   UNL     1      35.477 -23.784 -13.953  0.00  0.00    +0.049 C 
ATOM     10  C   UNL     1      36.868 -23.856 -14.017  0.00  0.00    +0.057 C 
ATOM     11  C   UNL     1      35.410 -22.846 -16.180  0.00  0.00    +0.050 C 
ATOM     12  C   UNL     1      34.744 -23.279 -15.033  0.00  0.00    +0.018 C 
ATOM     13  C   UNL     1      37.531 -23.420 -15.171  0.00  0.00    +0.006 C 
ATOM     14  C   UNL     1      36.800 -22.917 -16.249  0.00  0.00    +0.015 C 
ATOM     15  C   UNL     1      34.773 -24.240 -12.747  0.00  0.00    +0.249 C 
ATOM     16  C   UNL     1      37.655 -24.386 -12.884  0.00  0.00    +0.252 C 
ATOM     17  C   UNL     1      35.563 -24.778 -11.593  0.00  0.00    +0.291 C 
ATOM     18  H   UNL     1      37.463 -25.153 -11.019  0.00  0.00    +0.158 HD
ENDBRANCH   2  11
BRANCH   3  19
ATOM     19  C   UNL     1      33.042 -22.034 -19.020  0.00  0.00    +0.095 C 
BRANCH  19  20
ATOM     20  C   UNL     1      34.185 -21.257 -19.669  0.00  0.00    +0.095 C 
BRANCH  20  23
ATOM     21  O   UNL     1      32.466 -20.026 -20.783  0.00  0.00    -0.275 OA
ATOM     22  N   UNL     1      34.700 -19.703 -21.435  0.00  0.00    -0.284 N 
ATOM     23  C   UNL     1      33.667 -20.266 -20.697  0.00  0.00    +0.227 C 
ATOM     24  H   UNL     1      35.610 -20.005 -21.208  0.00  0.00    +0.155 HD
BRANCH  22  25
ATOM     25  C   UNL     1      34.602 -18.748 -22.473  0.00  0.00    +0.053 C 
ATOM     26  C   UNL     1      34.854 -17.402 -22.209  0.00  0.00    +0.052 C 
ATOM     27  C   UNL     1      34.757 -16.459 -23.232  0.00  0.00    +0.140 C 
ATOM     28  C   UNL     1      34.252 -19.152 -23.761  0.00  0.00    +0.015 C 
ATOM     29  C   UNL     1      34.407 -16.864 -24.521  0.00  0.00    +0.037 C 
ATOM     30  C   UNL     1      34.155 -18.210 -24.786  0.00  0.00    +0.004 C 
BRANCH  27  31
ATOM     31  O   UNL     1      35.003 -15.146 -22.975  0.00  0.00    -0.472 OA
BRANCH  31  32
ATOM     32  C   UNL     1      33.882 -14.263 -22.981  0.00  0.00    +0.243 C 
BRANCH  32  34
ATOM     33  F   UNL     1      34.525 -14.388 -20.738  0.00  0.00    -0.230 F 
ATOM     34  C   UNL     1      33.575 -13.855 -21.557  0.00  0.00    +0.240 C 
ENDBRANCH  32  34
ENDBRANCH  31  32
ENDBRANCH  27  31
ENDBRANCH  22  25
ENDBRANCH  20  23
ENDBRANCH  19  20
ENDBRANCH   3  19
TORSDOF 8
ENDMDL
MODEL 3
REMARK VINA RESULT:     -12.0      3.611     12.205
REMARK  Name = 24883488
REMARK  8 active torsions:
REMARK  status: ('A' for Active; 'I' for Inactive)
REMARK    1  A    between atoms: N_2  and  C_11
REMARK    2  A    between atoms: C_3  and  C_19
REMARK    3  A    between atoms: C_19  and  C_20
REMARK    4  A    between atoms: C_20  and  C_23
REMARK    5  A    between atoms: N_22  and  C_25
REMARK    6  A    between atoms: C_27  and  O_31
REMARK    7  A    between atoms: O_31  and  C_32
REMARK    8  A    between atoms: C_32  and  C_34
REMARK                            x       y       z     vdW  Elec       q    Type
REMARK                         _______ _______ _______ _____ _____    ______ ____
ROOT
ATOM      1  O   UNL     1      33.757 -19.773 -20.877  0.00  0.00    -0.275 OA
ATOM      2  N   UNL     1      35.620 -18.509 -21.568  0.00  0.00    -0.284 N 
ATOM      3  C   UNL     1      34.966 -19.572 -20.932  0.00  0.00    +0.227 C 
ATOM      4  H   UNL     1      36.601 -18.497 -21.485  0.00  0.00    +0.155 HD
ENDROOT
BRANCH   2  11
ATOM      5  O   UNL     1      33.933 -17.894 -26.351  0.00  0.00    -0.282 OA
ATOM      6  O   UNL     1      33.148 -13.163 -24.009  0.00  0.00    -0.270 OA
ATOM      7  O   UNL     1      32.865 -15.894 -27.728  0.00  0.00    -0.266 OA
ATOM      8  N   UNL     1      33.006 -14.516 -25.864  0.00  0.00    -0.246 N 
ATOM      9  C   UNL     1      34.141 -16.616 -24.373  0.00  0.00    +0.049 C 
ATOM     10  C   UNL     1      33.929 -15.373 -23.776  0.00  0.00    +0.057 C 
ATOM     11  C   UNL     1      35.059 -17.466 -22.304  0.00  0.00    +0.050 C 
ATOM     12  C   UNL     1      34.707 -17.665 -23.639  0.00  0.00    +0.018 C 
ATOM     13  C   UNL     1      34.284 -15.179 -22.436  0.00  0.00    +0.006 C 
ATOM     14  C   UNL     1      34.847 -16.226 -21.703  0.00  0.00    +0.015 C 
ATOM     15  C   UNL     1      33.772 -16.828 -25.778  0.00  0.00    +0.249 C 
ATOM     16  C   UNL     1      33.334 -14.256 -24.539  0.00  0.00    +0.252 C 
ATOM     17  C   UNL     1      33.168 -15.700 -26.560  0.00  0.00    +0.291 C 
ATOM     18  H   UNL     1      32.610 -13.769 -26.367  0.00  0.00    +0.158 HD
ENDBRANCH   2  11
BRANCH   3  19
ATOM     19  C   UNL     1      35.935 -20.508 -20.228  0.00  0.00    +0.095 C 
BRANCH  19  20
ATOM     20  C   UNL     1      35.195 -21.632 -19.508  0.00  0.00    +0.095 C 
BRANCH  20  23
ATOM     21  O   UNL     1      36.642 -21.137 -17.670  0.00  0.00    -0.275 OA
ATOM     22  N   UNL     1      34.901 -22.686 -17.362  0.00  0.00    -0.284 N 
ATOM     23  C   UNL     1      35.683 -21.787 -18.077  0.00  0.00    +0.227 C 
ATOM     24  H   UNL     1      34.154 -23.098 -17.853  0.00  0.00    +0.155 HD
BRANCH  22  25
ATOM     25  C   UNL     1      35.051 -23.080 -16.013  0.00  0.00    +0.053 C 
ATOM     26  C   UNL     1      36.322 -23.145 -15.441  0.00  0.00    +0.052 C 
ATOM     27  C   UNL     1      36.470 -23.534 -14.110  0.00  0.00    +0.140 C 
ATOM     28  C   UNL     1      33.928 -23.405 -15.252  0.00  0.00    +0.015 C 
ATOM     29  C   UNL     1      35.346 -23.859 -13.350  0.00  0.00    +0.037 C 
ATOM     30  C   UNL     1      34.075 -23.794 -13.921  0.00  0.00    +0.004 C 
BRANCH  27  31
ATOM     31  O   UNL     1      37.710 -23.598 -13.552  0.00  0.00    -0.472 OA
BRANCH  31  32
ATOM     32  C   UNL     1      38.006 -24.745 -12.758  0.00  0.00    +0.243 C 
BRANCH  32  34
ATOM     33  F   UNL     1      39.885 -25.353 -14.006  0.00  0.00    -0.230 F 
ATOM     34  C   UNL     1      38.650 -25.794 -13.636  0.00  0.00    +0.240 C 
ENDBRANCH  32  34
ENDBRANCH  31  32
ENDBRANCH  27  31
ENDBRANCH  22  25
ENDBRANCH  20  23
ENDBRANCH  19  20
ENDBRANCH   3  19
TORSDOF 8
ENDMDL
MODEL 4
REMARK VINA RESULT:     -12.0      3.592     11.832
REMARK  Name = 24883488
REMARK  8 active torsions:
REMARK  status: ('A' for Active; 'I' for Inactive)
REMARK    1  A    between atoms: N_2  and  C_11
REMARK    2  A    between atoms: C_3  and  C_19
REMARK    3  A    between atoms: C_19  and  C_20
REMARK    4  A    between atoms: C_20  and  C_23
REMARK    5  A    between atoms: N_22  and  C_25
REMARK    6  A    between atoms: C_27  and  O_31
REMARK    7  A    between atoms: O_31  and  C_32
REMARK    8  A    between atoms: C_32  and  C_34
REMARK                            x       y       z     vdW  Elec       q    Type
REMARK                         _______ _______ _______ _____ _____    ______ ____
ROOT
ATOM      1  O   UNL     1      37.355 -19.249 -20.888  0.00  0.00    -0.275 OA
ATOM      2  N   UNL     1      35.004 -19.182 -20.993  0.00  0.00    -0.284 N 
ATOM      3  C   UNL     1      36.247 -19.693 -20.602  0.00  0.00    +0.227 C 
ATOM      4  H   UNL     1      34.216 -19.688 -20.689  0.00  0.00    +0.155 HD
ENDROOT
BRANCH   2  11
ATOM      5  O   UNL     1      33.642 -18.268 -25.832  0.00  0.00    -0.282 OA
ATOM      6  O   UNL     1      34.002 -13.442 -23.582  0.00  0.00    -0.270 OA
ATOM      7  O   UNL     1      33.141 -16.094 -27.268  0.00  0.00    -0.266 OA
ATOM      8  N   UNL     1      33.573 -14.756 -25.421  0.00  0.00    -0.246 N 
ATOM      9  C   UNL     1      34.113 -17.040 -23.867  0.00  0.00    +0.049 C 
ATOM     10  C   UNL     1      34.202 -15.771 -23.294  0.00  0.00    +0.057 C 
ATOM     11  C   UNL     1      34.738 -18.047 -21.760  0.00  0.00    +0.050 C 
ATOM     12  C   UNL     1      34.382 -18.180 -23.102  0.00  0.00    +0.018 C 
ATOM     13  C   UNL     1      34.561 -15.643 -21.947  0.00  0.00    +0.006 C 
ATOM     14  C   UNL     1      34.828 -16.781 -21.184  0.00  0.00    +0.015 C 
ATOM     15  C   UNL     1      33.737 -17.183 -25.279  0.00  0.00    +0.249 C 
ATOM     16  C   UNL     1      33.923 -14.557 -24.090  0.00  0.00    +0.252 C 
ATOM     17  C   UNL     1      33.453 -15.957 -26.094  0.00  0.00    +0.291 C 
ATOM     18  H   UNL     1      33.388 -13.944 -25.946  0.00  0.00    +0.158 HD
ENDBRANCH   2  11
BRANCH   3  19
ATOM     19  C   UNL     1      36.115 -20.956 -19.767  0.00  0.00    +0.095 C 
BRANCH  19  20
ATOM     20  C   UNL     1      34.682 -21.480 -19.777  0.00  0.00    +0.095 C 
BRANCH  20  23
ATOM     21  O   UNL     1      33.569 -23.288 -18.678  0.00  0.00    -0.275 OA
ATOM     22  N   UNL     1      35.273 -22.140 -17.537  0.00  0.00    -0.284 N 
ATOM     23  C   UNL     1      34.424 -22.410 -18.603  0.00  0.00    +0.227 C 
ATOM     24  H   UNL     1      35.915 -21.405 -17.670  0.00  0.00    +0.155 HD
BRANCH  22  25
ATOM     25  C   UNL     1      35.325 -22.795 -16.286  0.00  0.00    +0.053 C 
ATOM     26  C   UNL     1      36.553 -22.995 -15.653  0.00  0.00    +0.052 C 
ATOM     27  C   UNL     1      36.604 -23.642 -14.418  0.00  0.00    +0.140 C 
ATOM     28  C   UNL     1      34.150 -23.241 -15.683  0.00  0.00    +0.015 C 
ATOM     29  C   UNL     1      35.427 -24.087 -13.815  0.00  0.00    +0.037 C 
ATOM     30  C   UNL     1      34.200 -23.887 -14.447  0.00  0.00    +0.004 C 
BRANCH  27  31
ATOM     31  O   UNL     1      37.801 -23.838 -13.801  0.00  0.00    -0.472 OA
BRANCH  31  32
ATOM     32  C   UNL     1      37.989 -25.082 -13.130  0.00  0.00    +0.243 C 
BRANCH  32  34
ATOM     33  F   UNL     1      40.170 -25.165 -13.960  0.00  0.00    -0.230 F 
ATOM     34  C   UNL     1      39.021 -25.891 -13.882  0.00  0.00    +0.240 C 
ENDBRANCH  32  34
ENDBRANCH  31  32
ENDBRANCH  27  31
ENDBRANCH  22  25
ENDBRANCH  20  23
ENDBRANCH  19  20
ENDBRANCH   3  19
TORSDOF 8
ENDMDL
MODEL 5
REMARK VINA RESULT:     -11.9      4.030     11.094
REMARK  Name = 24883488
REMARK  8 active torsions:
REMARK  status: ('A' for Active; 'I' for Inactive)
REMARK    1  A    between atoms: N_2  and  C_11
REMARK    2  A    between atoms: C_3  and  C_19
REMARK    3  A    between atoms: C_19  and  C_20
REMARK    4  A    between atoms: C_20  and  C_23
REMARK    5  A    between atoms: N_22  and  C_25
REMARK    6  A    between atoms: C_27  and  O_31
REMARK    7  A    between atoms: O_31  and  C_32
REMARK    8  A    between atoms: C_32  and  C_34
REMARK                            x       y       z     vdW  Elec       q    Type
REMARK                         _______ _______ _______ _____ _____    ______ ____
ROOT
ATOM      1  O   UNL     1      33.042 -20.637 -19.880  0.00  0.00    -0.275 OA
ATOM      2  N   UNL     1      35.123 -20.192 -20.886  0.00  0.00    -0.284 N 
ATOM      3  C   UNL     1      34.216 -20.916 -20.103  0.00  0.00    +0.227 C 
ATOM      4  H   UNL     1      36.037 -20.557 -20.933  0.00  0.00    +0.155 HD
ENDROOT
BRANCH   2  11
ATOM      5  O   UNL     1      33.671 -19.046 -25.648  0.00  0.00    -0.282 OA
ATOM      6  O   UNL     1      34.366 -14.324 -23.261  0.00  0.00    -0.270 OA
ATOM      7  O   UNL     1      33.249 -16.802 -26.999  0.00  0.00    -0.266 OA
ATOM      8  N   UNL     1      33.811 -15.551 -25.125  0.00  0.00    -0.246 N 
ATOM      9  C   UNL     1      34.269 -17.911 -23.662  0.00  0.00    +0.049 C 
ATOM     10  C   UNL     1      34.445 -16.668 -23.053  0.00  0.00    +0.057 C 
ATOM     11  C   UNL     1      34.899 -19.020 -21.609  0.00  0.00    +0.050 C 
ATOM     12  C   UNL     1      34.495 -19.089 -22.942  0.00  0.00    +0.018 C 
ATOM     13  C   UNL     1      34.851 -16.605 -21.715  0.00  0.00    +0.006 C 
ATOM     14  C   UNL     1      35.076 -17.780 -20.996  0.00  0.00    +0.015 C 
ATOM     15  C   UNL     1      33.843 -17.987 -25.065  0.00  0.00    +0.249 C 
ATOM     16  C   UNL     1      34.210 -15.416 -23.801  0.00  0.00    +0.252 C 
ATOM     17  C   UNL     1      33.603 -16.721 -25.832  0.00  0.00    +0.291 C 
ATOM     18  H   UNL     1      33.656 -14.713 -25.619  0.00  0.00    +0.158 HD
ENDBRANCH   2  11
BRANCH   3  19
ATOM     19  C   UNL     1      34.849 -22.146 -19.473  0.00  0.00    +0.095 C 
BRANCH  19  20
ATOM     20  C   UNL     1      34.628 -22.171 -17.963  0.00  0.00    +0.095 C 
BRANCH  20  23
ATOM     21  O   UNL     1      33.207 -24.053 -18.352  0.00  0.00    -0.275 OA
ATOM     22  N   UNL     1      33.051 -22.916 -16.301  0.00  0.00    -0.284 N 
ATOM     23  C   UNL     1      33.539 -23.159 -17.580  0.00  0.00    +0.227 C 
ATOM     24  H   UNL     1      33.457 -22.159 -15.818  0.00  0.00    +0.155 HD
BRANCH  22  25
ATOM     25  C   UNL     1      32.041 -23.624 -15.612  0.00  0.00    +0.053 C 
ATOM     26  C   UNL     1      30.745 -23.669 -16.126  0.00  0.00    +0.052 C 
ATOM     27  C   UNL     1      29.748 -24.368 -15.445  0.00  0.00    +0.140 C 
ATOM     28  C   UNL     1      32.340 -24.278 -14.417  0.00  0.00    +0.015 C 
ATOM     29  C   UNL     1      30.048 -25.023 -14.249  0.00  0.00    +0.037 C 
ATOM     30  C   UNL     1      31.344 -24.978 -13.735  0.00  0.00    +0.004 C 
BRANCH  27  31
ATOM     31  O   UNL     1      28.483 -24.413 -15.945  0.00  0.00    -0.472 OA
BRANCH  31  32
ATOM     32  C   UNL     1      28.111 -23.383 -16.860  0.00  0.00    +0.243 C 
BRANCH  32  34
ATOM     33  F   UNL     1      27.618 -21.941 -15.089  0.00  0.00    -0.230 F 
ATOM     34  C   UNL     1      27.072 -22.501 -16.205  0.00  0.00    +0.240 C 
ENDBRANCH  32  34
ENDBRANCH  31  32
ENDBRANCH  27  31
ENDBRANCH  22  25
ENDBRANCH  20  23
ENDBRANCH  19  20
ENDBRANCH   3  19
TORSDOF 8
ENDMDL
MODEL 6
REMARK VINA RESULT:     -11.8      3.777      9.525
REMARK  Name = 24883488
REMARK  8 active torsions:
REMARK  status: ('A' for Active; 'I' for Inactive)
REMARK    1  A    between atoms: N_2  and  C_11
REMARK    2  A    between atoms: C_3  and  C_19
REMARK    3  A    between atoms: C_19  and  C_20
REMARK    4  A    between atoms: C_20  and  C_23
REMARK    5  A    between atoms: N_22  and  C_25
REMARK    6  A    between atoms: C_27  and  O_31
REMARK    7  A    between atoms: O_31  and  C_32
REMARK    8  A    between atoms: C_32  and  C_34
REMARK                            x       y       z     vdW  Elec       q    Type
REMARK                         _______ _______ _______ _____ _____    ______ ____
ROOT
ATOM      1  O   UNL     1      37.221 -21.225 -16.503  0.00  0.00    -0.275 OA
ATOM      2  N   UNL     1      35.584 -22.693 -17.345  0.00  0.00    -0.284 N 
ATOM      3  C   UNL     1      36.619 -22.295 -16.491  0.00  0.00    +0.227 C 
ATOM      4  H   UNL     1      35.236 -23.603 -17.203  0.00  0.00    +0.155 HD
ENDROOT
BRANCH   2  11
ATOM      5  O   UNL     1      37.155 -19.320 -20.845  0.00  0.00    -0.282 OA
ATOM      6  O   UNL     1      31.923 -19.873 -21.738  0.00  0.00    -0.270 OA
ATOM      7  O   UNL     1      35.991 -17.950 -22.796  0.00  0.00    -0.266 OA
ATOM      8  N   UNL     1      33.944 -18.911 -22.269  0.00  0.00    -0.246 N 
ATOM      9  C   UNL     1      35.146 -20.380 -20.190  0.00  0.00    +0.049 C 
ATOM     10  C   UNL     1      33.779 -20.513 -20.438  0.00  0.00    +0.057 C 
ATOM     11  C   UNL     1      34.984 -21.966 -18.374  0.00  0.00    +0.050 C 
ATOM     12  C   UNL     1      35.751 -21.105 -19.158  0.00  0.00    +0.018 C 
ATOM     13  C   UNL     1      33.014 -21.378 -19.647  0.00  0.00    +0.006 C 
ATOM     14  C   UNL     1      33.618 -22.103 -18.617  0.00  0.00    +0.015 C 
ATOM     15  C   UNL     1      35.956 -19.474 -21.015  0.00  0.00    +0.249 C 
ATOM     16  C   UNL     1      33.126 -19.752 -21.523  0.00  0.00    +0.252 C 
ATOM     17  C   UNL     1      35.302 -18.698 -22.118  0.00  0.00    +0.291 C 
ATOM     18  H   UNL     1      33.504 -18.407 -22.991  0.00  0.00    +0.158 HD
ENDBRANCH   2  11
BRANCH   3  19
ATOM     19  C   UNL     1      36.997 -23.380 -15.495  0.00  0.00    +0.095 C 
BRANCH  19  20
ATOM     20  C   UNL     1      35.987 -23.459 -14.353  0.00  0.00    +0.095 C 
BRANCH  20  23
ATOM     21  O   UNL     1      34.735 -25.172 -15.455  0.00  0.00    -0.275 OA
ATOM     22  N   UNL     1      33.578 -23.457 -14.340  0.00  0.00    -0.284 N 
ATOM     23  C   UNL     1      34.701 -24.136 -14.797  0.00  0.00    +0.227 C 
ATOM     24  H   UNL     1      33.748 -22.650 -13.802  0.00  0.00    +0.155 HD
BRANCH  22  25
ATOM     25  C   UNL     1      32.221 -23.788 -14.553  0.00  0.00    +0.053 C 
ATOM     26  C   UNL     1      31.489 -23.130 -15.541  0.00  0.00    +0.052 C 
ATOM     27  C   UNL     1      30.149 -23.456 -15.752  0.00  0.00    +0.140 C 
ATOM     28  C   UNL     1      31.612 -24.773 -13.775  0.00  0.00    +0.015 C 
ATOM     29  C   UNL     1      29.541 -24.442 -14.973  0.00  0.00    +0.037 C 
ATOM     30  C   UNL     1      30.273 -25.101 -13.984  0.00  0.00    +0.004 C 
BRANCH  27  31
ATOM     31  O   UNL     1      29.434 -22.815 -16.716  0.00  0.00    -0.472 OA
BRANCH  31  32
ATOM     32  C   UNL     1      28.175 -23.381 -17.075  0.00  0.00    +0.243 C 
BRANCH  32  34
ATOM     33  F   UNL     1      26.628 -22.525 -15.549  0.00  0.00    -0.230 F 
ATOM     34  C   UNL     1      27.090 -22.359 -16.820  0.00  0.00    +0.240 C 
ENDBRANCH  32  34
ENDBRANCH  31  32
ENDBRANCH  27  31
ENDBRANCH  22  25
ENDBRANCH  20  23
ENDBRANCH  19  20
ENDBRANCH   3  19
TORSDOF 8
ENDMDL
MODEL 7
REMARK VINA RESULT:     -11.8      2.798      4.094
REMARK  Name = 24883488
REMARK  8 active torsions:
REMARK  status: ('A' for Active; 'I' for Inactive)
REMARK    1  A    between atoms: N_2  and  C_11
REMARK    2  A    between atoms: C_3  and  C_19
REMARK    3  A    between atoms: C_19  and  C_20
REMARK    4  A    between atoms: C_20  and  C_23
REMARK    5  A    between atoms: N_22  and  C_25
REMARK    6  A    between atoms: C_27  and  O_31
REMARK    7  A    between atoms: O_31  and  C_32
REMARK    8  A    between atoms: C_32  and  C_34
REMARK                            x       y       z     vdW  Elec       q    Type
REMARK                         _______ _______ _______ _____ _____    ______ ____
ROOT
ATOM      1  O   UNL     1      36.353 -21.727 -16.989  0.00  0.00    -0.275 OA
ATOM      2  N   UNL     1      34.409 -22.381 -18.146  0.00  0.00    -0.284 N 
ATOM      3  C   UNL     1      35.700 -21.854 -18.021  0.00  0.00    +0.227 C 
ATOM      4  H   UNL     1      34.031 -22.381 -19.055  0.00  0.00    +0.155 HD
ENDROOT
BRANCH   2  11
ATOM      5  O   UNL     1      29.380 -22.600 -17.274  0.00  0.00    -0.282 OA
ATOM      6  O   UNL     1      31.595 -25.105 -13.115  0.00  0.00    -0.270 OA
ATOM      7  O   UNL     1      27.843 -23.607 -15.361  0.00  0.00    -0.266 OA
ATOM      8  N   UNL     1      29.723 -24.361 -14.226  0.00  0.00    -0.246 N 
ATOM      9  C   UNL     1      31.385 -23.304 -16.237  0.00  0.00    +0.049 C 
ATOM     10  C   UNL     1      31.947 -23.962 -15.143  0.00  0.00    +0.057 C 
ATOM     11  C   UNL     1      33.589 -22.906 -17.146  0.00  0.00    +0.050 C 
ATOM     12  C   UNL     1      32.204 -22.773 -17.240  0.00  0.00    +0.018 C 
ATOM     13  C   UNL     1      33.338 -24.091 -15.054  0.00  0.00    +0.006 C 
ATOM     14  C   UNL     1      34.156 -23.563 -16.055  0.00  0.00    +0.015 C 
ATOM     15  C   UNL     1      29.927 -23.164 -16.339  0.00  0.00    +0.249 C 
ATOM     16  C   UNL     1      31.095 -24.526 -14.075  0.00  0.00    +0.252 C 
ATOM     17  C   UNL     1      29.055 -23.732 -15.260  0.00  0.00    +0.291 C 
ATOM     18  H   UNL     1      29.160 -24.739 -13.513  0.00  0.00    +0.158 HD
ENDBRANCH   2  11
BRANCH   3  19
ATOM     19  C   UNL     1      36.262 -21.381 -19.351  0.00  0.00    +0.095 C 
BRANCH  19  20
ATOM     20  C   UNL     1      35.147 -20.964 -20.307  0.00  0.00    +0.095 C 
BRANCH  20  23
ATOM     21  O   UNL     1      36.432 -18.974 -20.621  0.00  0.00    -0.275 OA
ATOM     22  N   UNL     1      34.514 -19.307 -21.937  0.00  0.00    -0.284 N 
ATOM     23  C   UNL     1      35.447 -19.624 -20.957  0.00  0.00    +0.227 C 
ATOM     24  H   UNL     1      33.799 -19.968 -22.085  0.00  0.00    +0.155 HD
BRANCH  22  25
ATOM     25  C   UNL     1      34.471 -18.151 -22.748  0.00  0.00    +0.053 C 
ATOM     26  C   UNL     1      34.186 -18.263 -24.109  0.00  0.00    +0.052 C 
ATOM     27  C   UNL     1      34.144 -17.121 -24.910  0.00  0.00    +0.140 C 
ATOM     28  C   UNL     1      34.713 -16.897 -22.188  0.00  0.00    +0.015 C 
ATOM     29  C   UNL     1      34.385 -15.867 -24.348  0.00  0.00    +0.037 C 
ATOM     30  C   UNL     1      34.670 -15.754 -22.987  0.00  0.00    +0.004 C 
BRANCH  27  31
ATOM     31  O   UNL     1      33.866 -17.230 -26.238  0.00  0.00    -0.472 OA
BRANCH  31  32
ATOM     32  C   UNL     1      32.817 -16.410 -26.751  0.00  0.00    +0.243 C 
BRANCH  32  34
ATOM     33  F   UNL     1      31.906 -18.560 -26.671  0.00  0.00    -0.230 F 
ATOM     34  C   UNL     1      31.605 -17.276 -27.011  0.00  0.00    +0.240 C 
ENDBRANCH  32  34
ENDBRANCH  31  32
ENDBRANCH  27  31
ENDBRANCH  22  25
ENDBRANCH  20  23
ENDBRANCH  19  20
ENDBRANCH   3  19
TORSDOF 8
ENDMDL
MODEL 8
REMARK VINA RESULT:     -11.5      3.714     11.768
REMARK  Name = 24883488
REMARK  8 active torsions:
REMARK  status: ('A' for Active; 'I' for Inactive)
REMARK    1  A    between atoms: N_2  and  C_11
REMARK    2  A    between atoms: C_3  and  C_19
REMARK    3  A    between atoms: C_19  and  C_20
REMARK    4  A    between atoms: C_20  and  C_23
REMARK    5  A    between atoms: N_22  and  C_25
REMARK    6  A    between atoms: C_27  and  O_31
REMARK    7  A    between atoms: O_31  and  C_32
REMARK    8  A    between atoms: C_32  and  C_34
REMARK                            x       y       z     vdW  Elec       q    Type
REMARK                         _______ _______ _______ _____ _____    ______ ____
ROOT
ATOM      1  O   UNL     1      36.795 -19.036 -20.793  0.00  0.00    -0.275 OA
ATOM      2  N   UNL     1      34.745 -19.761 -21.695  0.00  0.00    -0.284 N 
ATOM      3  C   UNL     1      35.839 -19.804 -20.822  0.00  0.00    +0.227 C 
ATOM      4  H   UNL     1      34.081 -20.480 -21.588  0.00  0.00    +0.155 HD
ENDROOT
BRANCH   2  11
ATOM      5  O   UNL     1      34.362 -14.674 -21.966  0.00  0.00    -0.282 OA
ATOM      6  O   UNL     1      33.448 -16.377 -26.941  0.00  0.00    -0.270 OA
ATOM      7  O   UNL     1      33.851 -12.925 -23.894  0.00  0.00    -0.266 OA
ATOM      8  N   UNL     1      33.645 -14.654 -25.429  0.00  0.00    -0.246 N 
ATOM      9  C   UNL     1      34.183 -16.539 -23.410  0.00  0.00    +0.049 C 
ATOM     10  C   UNL     1      33.943 -16.966 -24.715  0.00  0.00    +0.057 C 
ATOM     11  C   UNL     1      34.476 -18.831 -22.699  0.00  0.00    +0.050 C 
ATOM     12  C   UNL     1      34.450 -17.469 -22.399  0.00  0.00    +0.018 C 
ATOM     13  C   UNL     1      33.970 -18.334 -25.011  0.00  0.00    +0.006 C 
ATOM     14  C   UNL     1      34.237 -19.263 -24.003  0.00  0.00    +0.015 C 
ATOM     15  C   UNL     1      34.157 -15.106 -23.090  0.00  0.00    +0.249 C 
ATOM     16  C   UNL     1      33.658 -15.996 -25.793  0.00  0.00    +0.252 C 
ATOM     17  C   UNL     1      33.869 -14.114 -24.176  0.00  0.00    +0.291 C 
ATOM     18  H   UNL     1      33.456 -14.012 -26.151  0.00  0.00    +0.158 HD
ENDBRANCH   2  11
BRANCH   3  19
ATOM     19  C   UNL     1      35.768 -20.983 -19.865  0.00  0.00    +0.095 C 
BRANCH  19  20
ATOM     20  C   UNL     1      34.332 -21.472 -19.694  0.00  0.00    +0.095 C 
BRANCH  20  23
ATOM     21  O   UNL     1      33.496 -23.469 -18.680  0.00  0.00    -0.275 OA
ATOM     22  N   UNL     1      35.044 -22.155 -17.497  0.00  0.00    -0.284 N 
ATOM     23  C   UNL     1      34.223 -22.486 -18.568  0.00  0.00    +0.227 C 
ATOM     24  H   UNL     1      35.577 -21.332 -17.597  0.00  0.00    +0.155 HD
BRANCH  22  25
ATOM     25  C   UNL     1      35.206 -22.858 -16.281  0.00  0.00    +0.053 C 
ATOM     26  C   UNL     1      36.483 -23.211 -15.844  0.00  0.00    +0.052 C 
ATOM     27  C   UNL     1      36.642 -23.905 -14.644  0.00  0.00    +0.140 C 
ATOM     28  C   UNL     1      34.089 -23.198 -15.519  0.00  0.00    +0.015 C 
ATOM     29  C   UNL     1      35.524 -24.245 -13.882  0.00  0.00    +0.037 C 
ATOM     30  C   UNL     1      34.248 -23.892 -14.319  0.00  0.00    +0.004 C 
BRANCH  27  31
ATOM     31  O   UNL     1      37.887 -24.251 -14.217  0.00  0.00    -0.472 OA
BRANCH  31  32
ATOM     32  C   UNL     1      38.288 -25.606 -14.414  0.00  0.00    +0.243 C 
BRANCH  32  34
ATOM     33  F   UNL     1      40.542 -25.127 -14.030  0.00  0.00    -0.230 F 
ATOM     34  C   UNL     1      39.693 -25.623 -14.973  0.00  0.00    +0.240 C 
ENDBRANCH  32  34
ENDBRANCH  31  32
ENDBRANCH  27  31
ENDBRANCH  22  25
ENDBRANCH  20  23
ENDBRANCH  19  20
ENDBRANCH   3  19
TORSDOF 8
ENDMDL
MODEL 9
REMARK VINA RESULT:     -11.4      3.732     10.605
REMARK  Name = 24883488
REMARK  8 active torsions:
REMARK  status: ('A' for Active; 'I' for Inactive)
REMARK    1  A    between atoms: N_2  and  C_11
REMARK    2  A    between atoms: C_3  and  C_19
REMARK    3  A    between atoms: C_19  and  C_20
REMARK    4  A    between atoms: C_20  and  C_23
REMARK    5  A    between atoms: N_22  and  C_25
REMARK    6  A    between atoms: C_27  and  O_31
REMARK    7  A    between atoms: O_31  and  C_32
REMARK    8  A    between atoms: C_32  and  C_34
REMARK                            x       y       z     vdW  Elec       q    Type
REMARK                         _______ _______ _______ _____ _____    ______ ____
ROOT
ATOM      1  O   UNL     1      31.768 -21.667 -18.448  0.00  0.00    -0.275 OA
ATOM      2  N   UNL     1      33.985 -22.460 -18.455  0.00  0.00    -0.284 N 
ATOM      3  C   UNL     1      32.631 -22.467 -18.098  0.00  0.00    +0.227 C 
ATOM      4  H   UNL     1      34.538 -23.170 -18.055  0.00  0.00    +0.155 HD
ENDROOT
BRANCH   2  11
ATOM      5  O   UNL     1      32.655 -19.371 -22.300  0.00  0.00    -0.282 OA
ATOM      6  O   UNL     1      37.924 -18.703 -21.774  0.00  0.00    -0.270 OA
ATOM      7  O   UNL     1      33.946 -17.693 -23.899  0.00  0.00    -0.266 OA
ATOM      8  N   UNL     1      35.948 -18.197 -22.837  0.00  0.00    -0.246 N 
ATOM      9  C   UNL     1      34.612 -19.986 -21.123  0.00  0.00    +0.049 C 
ATOM     10  C   UNL     1      35.989 -19.799 -20.999  0.00  0.00    +0.057 C 
ATOM     11  C   UNL     1      34.651 -21.575 -19.303  0.00  0.00    +0.050 C 
ATOM     12  C   UNL     1      33.940 -20.874 -20.277  0.00  0.00    +0.018 C 
ATOM     13  C   UNL     1      36.697 -20.506 -20.021  0.00  0.00    +0.006 C 
ATOM     14  C   UNL     1      36.027 -21.391 -19.174  0.00  0.00    +0.015 C 
ATOM     15  C   UNL     1      33.861 -19.249 -22.147  0.00  0.00    +0.249 C 
ATOM     16  C   UNL     1      36.712 -18.865 -21.887  0.00  0.00    +0.252 C 
ATOM     17  C   UNL     1      34.586 -18.299 -23.053  0.00  0.00    +0.291 C 
ATOM     18  H   UNL     1      36.434 -17.576 -23.426  0.00  0.00    +0.158 HD
ENDBRANCH   2  11
BRANCH   3  19
ATOM     19  C   UNL     1      32.290 -23.600 -17.144  0.00  0.00    +0.095 C 
BRANCH  19  20
ATOM     20  C   UNL     1      32.643 -23.237 -15.704  0.00  0.00    +0.095 C 
BRANCH  20  23
ATOM     21  O   UNL     1      34.856 -23.964 -16.240  0.00  0.00    -0.275 OA
ATOM     22  N   UNL     1      34.282 -23.636 -13.985  0.00  0.00    -0.284 N 
ATOM     23  C   UNL     1      34.058 -23.668 -15.356  0.00  0.00    +0.227 C 
ATOM     24  H   UNL     1      33.523 -23.348 -13.427  0.00  0.00    +0.155 HD
BRANCH  22  25
ATOM     25  C   UNL     1      35.470 -23.968 -13.295  0.00  0.00    +0.053 C 
ATOM     26  C   UNL     1      36.261 -25.029 -13.737  0.00  0.00    +0.052 C 
ATOM     27  C   UNL     1      37.434 -25.357 -13.056  0.00  0.00    +0.140 C 
ATOM     28  C   UNL     1      35.852 -23.236 -12.171  0.00  0.00    +0.015 C 
ATOM     29  C   UNL     1      37.815 -24.623 -11.932  0.00  0.00    +0.037 C 
ATOM     30  C   UNL     1      37.024 -23.562 -11.490  0.00  0.00    +0.004 C 
BRANCH  27  31
ATOM     31  O   UNL     1      38.206 -26.391 -13.487  0.00  0.00    -0.472 OA
BRANCH  31  32
ATOM     32  C   UNL     1      38.605 -26.376 -14.857  0.00  0.00    +0.243 C 
BRANCH  32  34
ATOM     33  F   UNL     1      40.446 -25.277 -13.930  0.00  0.00    -0.230 F 
ATOM     34  C   UNL     1      39.664 -25.313 -15.044  0.00  0.00    +0.240 C 
ENDBRANCH  32  34
ENDBRANCH  31  32
ENDBRANCH  27  31
ENDBRANCH  22  25
ENDBRANCH  20  23
ENDBRANCH  19  20
ENDBRANCH   3  19
TORSDOF 8
ENDMDL
