MODEL 1
REMARK VINA RESULT:     -12.1      0.000      0.000
REMARK  Name = 44123754
REMARK  11 active torsions:
REMARK  status: ('A' for Active; 'I' for Inactive)
REMARK    1  A    between atoms: C_3  and  C_22
REMARK    2  A    between atoms: C_4  and  C_7
REMARK    3  A    between atoms: N_6  and  C_15
REMARK    4  A    between atoms: C_8  and  N_12
REMARK    5  A    between atoms: C_15  and  O_16
REMARK    6  A    between atoms: O_16  and  P_17
REMARK    7  A    between atoms: P_17  and  O_20
REMARK    8  A    between atoms: C_22  and  C_23
REMARK    9  A    between atoms: C_26  and  C_29
REMARK   10  A    between atoms: C_29  and  O_30
REMARK   11  A    between atoms: O_30  and  C_32
REMARK                            x       y       z     vdW  Elec       q    Type
REMARK                         _______ _______ _______ _____ _____    ______ ____
ROOT
ATOM      1  O   UNL     1      33.437 -23.375 -18.502  0.00  0.00    -0.354 OA
ATOM      2  N   UNL     1      34.260 -22.875 -19.504  0.00  0.00    -0.081 NA
ATOM      3  C   UNL     1      35.193 -22.165 -18.863  0.00  0.00    +0.105 C 
ATOM      4  C   UNL     1      33.895 -22.955 -17.294  0.00  0.00    +0.175 C 
ATOM      5  C   UNL     1      35.012 -22.181 -17.469  0.00  0.00    +0.058 C 
ENDROOT
BRANCH   4   7
ATOM      6  N   UNL     1      31.103 -23.617 -14.965  0.00  0.00    -0.266 N 
ATOM      7  C   UNL     1      33.136 -23.399 -16.148  0.00  0.00    +0.048 C 
ATOM      8  C   UNL     1      31.769 -23.188 -16.045  0.00  0.00    +0.156 C 
ATOM      9  C   UNL     1      33.792 -24.059 -15.114  0.00  0.00    +0.003 C 
ATOM     10  C   UNL     1      31.709 -24.255 -13.955  0.00  0.00    +0.064 C 
ATOM     11  C   UNL     1      33.075 -24.493 -14.003  0.00  0.00    +0.016 C 
BRANCH   8  12
ATOM     12  N   UNL     1      31.065 -22.522 -17.073  0.00  0.00    -0.303 NA
ATOM     13  H   UNL     1      31.453 -21.721 -17.496  0.00  0.00    +0.121 HD
ATOM     14  H   UNL     1      30.188 -22.859 -17.366  0.00  0.00    +0.121 HD
ENDBRANCH   8  12
BRANCH   6  15
ATOM     15  C   UNL     1      29.659 -23.394 -14.857  0.00  0.00    +0.251 C 
BRANCH  15  16
ATOM     16  O   UNL     1      29.009 -24.122 -15.890  0.00  0.00    -0.250 OA
BRANCH  16  17
ATOM     17  P   UNL     1      27.794 -23.414 -16.724  0.00  0.00    +0.504 P 
ATOM     18  O   UNL     1      27.164 -24.420 -17.662  0.00  0.00    -0.225 OA
ATOM     19  O   UNL     1      28.284 -22.081 -17.244  0.00  0.00    -0.116 OA
BRANCH  17  20
ATOM     20  O   UNL     1      26.757 -23.129 -15.495  0.00  0.00    -0.301 OA
ATOM     21  H   UNL     1      27.014 -23.659 -14.724  0.00  0.00    +0.222 HD
ENDBRANCH  17  20
ENDBRANCH  16  17
ENDBRANCH  15  16
ENDBRANCH   6  15
ENDBRANCH   4   7
BRANCH   3  22
ATOM     22  C   UNL     1      36.249 -21.481 -19.627  0.00  0.00    +0.075 C 
BRANCH  22  23
ATOM     23  C   UNL     1      35.758 -20.336 -20.503  0.00  0.00    -0.016 C 
ATOM     24  C   UNL     1      36.673 -19.443 -21.061  0.00  0.00    -0.004 C 
ATOM     25  C   UNL     1      34.393 -20.182 -20.749  0.00  0.00    -0.004 C 
ATOM     26  C   UNL     1      34.859 -18.240 -22.109  0.00  0.00    +0.021 C 
ATOM     27  C   UNL     1      36.223 -18.395 -21.863  0.00  0.00    -0.001 C 
ATOM     28  C   UNL     1      33.944 -19.133 -21.552  0.00  0.00    -0.001 C 
BRANCH  26  29
ATOM     29  C   UNL     1      34.379 -17.121 -22.970  0.00  0.00    +0.234 C 
BRANCH  29  30
ATOM     30  O   UNL     1      34.715 -17.390 -24.325  0.00  0.00    -0.455 OA
BRANCH  30  32
ATOM     31  N   UNL     1      33.485 -16.250 -25.929  0.00  0.00    -0.210 NA
ATOM     32  C   UNL     1      33.684 -17.389 -25.229  0.00  0.00    +0.225 C 
ATOM     33  C   UNL     1      32.918 -18.534 -25.375  0.00  0.00    +0.058 C 
ATOM     34  C   UNL     1      31.879 -18.508 -26.299  0.00  0.00    +0.006 C 
ATOM     35  C   UNL     1      32.467 -16.263 -26.819  0.00  0.00    +0.102 C 
ATOM     36  C   UNL     1      31.643 -17.355 -27.039  0.00  0.00    +0.021 C 
ENDBRANCH  30  32
ENDBRANCH  29  30
ENDBRANCH  26  29
ENDBRANCH  22  23
ENDBRANCH   3  22
TORSDOF 11
ENDMDL
MODEL 2
REMARK VINA RESULT:     -12.1      3.741     11.142
REMARK  Name = 44123754
REMARK  11 active torsions:
REMARK  status: ('A' for Active; 'I' for Inactive)
REMARK    1  A    between atoms: C_3  and  C_22
REMARK    2  A    between atoms: C_4  and  C_7
REMARK    3  A    between atoms: N_6  and  C_15
REMARK    4  A    between atoms: C_8  and  N_12
REMARK    5  A    between atoms: C_15  and  O_16
REMARK    6  A    between atoms: O_16  and  P_17
REMARK    7  A    between atoms: P_17  and  O_20
REMARK    8  A    between atoms: C_22  and  C_23
REMARK    9  A    between atoms: C_26  and  C_29
REMARK   10  A    between atoms: C_29  and  O_30
REMARK   11  A    between atoms: O_30  and  C_32
REMARK                            x       y       z     vdW  Elec       q    Type
REMARK                         _______ _______ _______ _____ _____    ______ ____
ROOT
ATOM      1  O   UNL     1      34.218 -16.744 -23.253  0.00  0.00    -0.354 OA
ATOM      2  N   UNL     1      35.007 -17.141 -22.180  0.00  0.00    -0.081 NA
ATOM      3  C   UNL     1      35.270 -18.432 -22.404  0.00  0.00    +0.105 C 
ATOM      4  C   UNL     1      34.029 -17.800 -24.086  0.00  0.00    +0.175 C 
ATOM      5  C   UNL     1      34.679 -18.899 -23.590  0.00  0.00    +0.058 C 
ENDROOT
BRANCH   4   7
ATOM      6  N   UNL     1      32.532 -16.137 -27.028  0.00  0.00    -0.266 N 
ATOM      7  C   UNL     1      33.222 -17.538 -25.255  0.00  0.00    +0.048 C 
ATOM      8  C   UNL     1      33.299 -16.338 -25.947  0.00  0.00    +0.156 C 
ATOM      9  C   UNL     1      32.341 -18.516 -25.704  0.00  0.00    +0.003 C 
ATOM     10  C   UNL     1      31.675 -17.061 -27.482  0.00  0.00    +0.064 C 
ATOM     11  C   UNL     1      31.556 -18.279 -26.830  0.00  0.00    +0.016 C 
BRANCH   8  12
ATOM     12  N   UNL     1      34.180 -15.319 -25.525  0.00  0.00    -0.303 NA
ATOM     13  H   UNL     1      34.746 -14.854 -26.183  0.00  0.00    +0.121 HD
ATOM     14  H   UNL     1      34.229 -15.076 -24.572  0.00  0.00    +0.121 HD
ENDBRANCH   8  12
BRANCH   6  15
ATOM     15  C   UNL     1      32.614 -14.869 -27.759  0.00  0.00    +0.251 C 
BRANCH  15  16
ATOM     16  O   UNL     1      32.165 -13.825 -26.907  0.00  0.00    -0.250 OA
BRANCH  16  17
ATOM     17  P   UNL     1      32.823 -12.336 -27.053  0.00  0.00    +0.504 P 
ATOM     18  O   UNL     1      33.983 -12.382 -28.024  0.00  0.00    -0.225 OA
ATOM     19  O   UNL     1      33.004 -11.754 -25.668  0.00  0.00    -0.116 OA
BRANCH  17  20
ATOM     20  O   UNL     1      31.576 -11.561 -27.770  0.00  0.00    -0.301 OA
ATOM     21  H   UNL     1      30.904 -12.208 -28.038  0.00  0.00    +0.222 HD
ENDBRANCH  17  20
ENDBRANCH  16  17
ENDBRANCH  15  16
ENDBRANCH   6  15
ENDBRANCH   4   7
BRANCH   3  22
ATOM     22  C   UNL     1      36.097 -19.188 -21.450  0.00  0.00    +0.075 C 
BRANCH  22  23
ATOM     23  C   UNL     1      35.321 -20.159 -20.568  0.00  0.00    -0.016 C 
ATOM     24  C   UNL     1      33.927 -20.180 -20.613  0.00  0.00    -0.004 C 
ATOM     25  C   UNL     1      36.005 -21.027 -19.716  0.00  0.00    -0.004 C 
ATOM     26  C   UNL     1      33.900 -21.936 -18.954  0.00  0.00    +0.021 C 
ATOM     27  C   UNL     1      33.216 -21.068 -19.806  0.00  0.00    -0.001 C 
ATOM     28  C   UNL     1      35.294 -21.914 -18.909  0.00  0.00    -0.001 C 
BRANCH  26  29
ATOM     29  C   UNL     1      33.140 -22.887 -18.094  0.00  0.00    +0.234 C 
BRANCH  29  30
ATOM     30  O   UNL     1      31.779 -22.478 -18.025  0.00  0.00    -0.455 OA
BRANCH  30  32
ATOM     31  N   UNL     1      29.751 -22.618 -16.907  0.00  0.00    -0.210 NA
ATOM     32  C   UNL     1      31.087 -22.825 -16.895  0.00  0.00    +0.225 C 
ATOM     33  C   UNL     1      31.779 -23.362 -15.821  0.00  0.00    +0.058 C 
ATOM     34  C   UNL     1      31.053 -23.708 -14.686  0.00  0.00    +0.006 C 
ATOM     35  C   UNL     1      29.078 -22.968 -15.787  0.00  0.00    +0.102 C 
ATOM     36  C   UNL     1      29.677 -23.511 -14.661  0.00  0.00    +0.021 C 
ENDBRANCH  30  32
ENDBRANCH  29  30
ENDBRANCH  26  29
ENDBRANCH  22  23
ENDBRANCH   3  22
TORSDOF 11
ENDMDL
MODEL 3
REMARK VINA RESULT:     -12.1      4.500     10.888
REMARK  Name = 44123754
REMARK  11 active torsions:
REMARK  status: ('A' for Active; 'I' for Inactive)
REMARK    1  A    between atoms: C_3  and  C_22
REMARK    2  A    between atoms: C_4  and  C_7
REMARK    3  A    between atoms: N_6  and  C_15
REMARK    4  A    between atoms: C_8  and  N_12
REMARK    5  A    between atoms: C_15  and  O_16
REMARK    6  A    between atoms: O_16  and  P_17
REMARK    7  A    between atoms: P_17  and  O_20
REMARK    8  A    between atoms: C_22  and  C_23
REMARK    9  A    between atoms: C_26  and  C_29
REMARK   10  A    between atoms: C_29  and  O_30
REMARK   11  A    between atoms: O_30  and  C_32
REMARK                            x       y       z     vdW  Elec       q    Type
REMARK                         _______ _______ _______ _____ _____    ______ ____
ROOT
ATOM      1  O   UNL     1      36.318 -18.521 -20.597  0.00  0.00    -0.354 OA
ATOM      2  N   UNL     1      36.457 -19.860 -20.250  0.00  0.00    -0.081 NA
ATOM      3  C   UNL     1      35.264 -20.407 -20.501  0.00  0.00    +0.105 C 
ATOM      4  C   UNL     1      35.055 -18.302 -21.043  0.00  0.00    +0.175 C 
ATOM      5  C   UNL     1      34.342 -19.471 -21.002  0.00  0.00    +0.058 C 
ENDROOT
BRANCH   4   7
ATOM      6  N   UNL     1      34.382 -15.308 -23.105  0.00  0.00    -0.266 N 
ATOM      7  C   UNL     1      34.759 -16.946 -21.443  0.00  0.00    +0.048 C 
ATOM      8  C   UNL     1      34.659 -16.578 -22.777  0.00  0.00    +0.156 C 
ATOM      9  C   UNL     1      34.569 -15.976 -20.465  0.00  0.00    +0.003 C 
ATOM     10  C   UNL     1      34.195 -14.355 -22.183  0.00  0.00    +0.064 C 
ATOM     11  C   UNL     1      34.284 -14.664 -20.834  0.00  0.00    +0.016 C 
BRANCH   8  12
ATOM     12  N   UNL     1      34.845 -17.532 -23.801  0.00  0.00    -0.303 NA
ATOM     13  H   UNL     1      34.212 -17.575 -24.555  0.00  0.00    +0.121 HD
ATOM     14  H   UNL     1      35.606 -18.154 -23.761  0.00  0.00    +0.121 HD
ENDBRANCH   8  12
BRANCH   6  15
ATOM     15  C   UNL     1      34.276 -14.921 -24.514  0.00  0.00    +0.251 C 
BRANCH  15  16
ATOM     16  O   UNL     1      33.068 -15.452 -25.040  0.00  0.00    -0.250 OA
BRANCH  16  17
ATOM     17  P   UNL     1      33.050 -16.037 -26.566  0.00  0.00    +0.504 P 
ATOM     18  O   UNL     1      33.819 -17.339 -26.625  0.00  0.00    -0.225 OA
ATOM     19  O   UNL     1      33.381 -14.907 -27.516  0.00  0.00    -0.116 OA
BRANCH  17  20
ATOM     20  O   UNL     1      31.457 -16.368 -26.708  0.00  0.00    -0.301 OA
ATOM     21  H   UNL     1      31.195 -17.000 -26.020  0.00  0.00    +0.222 HD
ENDBRANCH  17  20
ENDBRANCH  16  17
ENDBRANCH  15  16
ENDBRANCH   6  15
ENDBRANCH   4   7
BRANCH   3  22
ATOM     22  C   UNL     1      35.045 -21.840 -20.245  0.00  0.00    +0.075 C 
BRANCH  22  23
ATOM     23  C   UNL     1      34.933 -22.211 -18.772  0.00  0.00    -0.016 C 
ATOM     24  C   UNL     1      36.004 -21.974 -17.910  0.00  0.00    -0.004 C 
ATOM     25  C   UNL     1      33.760 -22.788 -18.284  0.00  0.00    -0.004 C 
ATOM     26  C   UNL     1      34.729 -22.890 -16.074  0.00  0.00    +0.021 C 
ATOM     27  C   UNL     1      35.902 -22.314 -16.561  0.00  0.00    -0.001 C 
ATOM     28  C   UNL     1      33.658 -23.128 -16.936  0.00  0.00    -0.001 C 
BRANCH  26  29
ATOM     29  C   UNL     1      34.619 -23.251 -14.631  0.00  0.00    +0.234 C 
BRANCH  29  30
ATOM     30  O   UNL     1      34.855 -24.645 -14.473  0.00  0.00    -0.455 OA
BRANCH  30  32
ATOM     31  N   UNL     1      36.800 -25.778 -15.035  0.00  0.00    -0.210 NA
ATOM     32  C   UNL     1      36.128 -25.022 -14.137  0.00  0.00    +0.225 C 
ATOM     33  C   UNL     1      36.651 -24.615 -12.921  0.00  0.00    +0.058 C 
ATOM     34  C   UNL     1      37.946 -25.009 -12.604  0.00  0.00    +0.006 C 
ATOM     35  C   UNL     1      38.057 -26.141 -14.693  0.00  0.00    +0.102 C 
ATOM     36  C   UNL     1      38.670 -25.786 -13.502  0.00  0.00    +0.021 C 
ENDBRANCH  30  32
ENDBRANCH  29  30
ENDBRANCH  26  29
ENDBRANCH  22  23
ENDBRANCH   3  22
TORSDOF 11
ENDMDL
MODEL 4
REMARK VINA RESULT:     -12.0      4.264     11.178
REMARK  Name = 44123754
REMARK  11 active torsions:
REMARK  status: ('A' for Active; 'I' for Inactive)
REMARK    1  A    between atoms: C_3  and  C_22
REMARK    2  A    between atoms: C_4  and  C_7
REMARK    3  A    between atoms: N_6  and  C_15
REMARK    4  A    between atoms: C_8  and  N_12
REMARK    5  A    between atoms: C_15  and  O_16
REMARK    6  A    between atoms: O_16  and  P_17
REMARK    7  A    between atoms: P_17  and  O_20
REMARK    8  A    between atoms: C_22  and  C_23
REMARK    9  A    between atoms: C_26  and  C_29
REMARK   10  A    between atoms: C_29  and  O_30
REMARK   11  A    between atoms: O_30  and  C_32
REMARK                            x       y       z     vdW  Elec       q    Type
REMARK                         _______ _______ _______ _____ _____    ______ ____
ROOT
ATOM      1  O   UNL     1      34.664 -16.614 -21.590  0.00  0.00    -0.354 OA
ATOM      2  N   UNL     1      35.204 -17.551 -20.717  0.00  0.00    -0.081 NA
ATOM      3  C   UNL     1      35.603 -18.560 -21.496  0.00  0.00    +0.105 C 
ATOM      4  C   UNL     1      34.752 -17.083 -22.861  0.00  0.00    +0.175 C 
ATOM      5  C   UNL     1      35.343 -18.319 -22.856  0.00  0.00    +0.058 C 
ENDROOT
BRANCH   4   7
ATOM      6  N   UNL     1      33.377 -14.127 -24.603  0.00  0.00    -0.266 N 
ATOM      7  C   UNL     1      34.227 -16.212 -23.887  0.00  0.00    +0.048 C 
ATOM      8  C   UNL     1      33.859 -14.901 -23.621  0.00  0.00    +0.156 C 
ATOM      9  C   UNL     1      34.085 -16.698 -25.182  0.00  0.00    +0.003 C 
ATOM     10  C   UNL     1      33.230 -14.569 -25.859  0.00  0.00    +0.064 C 
ATOM     11  C   UNL     1      33.581 -15.872 -26.182  0.00  0.00    +0.016 C 
BRANCH   8  12
ATOM     12  N   UNL     1      33.988 -14.369 -22.320  0.00  0.00    -0.303 NA
ATOM     13  H   UNL     1      34.340 -13.457 -22.193  0.00  0.00    +0.121 HD
ATOM     14  H   UNL     1      33.726 -14.909 -21.540  0.00  0.00    +0.121 HD
ENDBRANCH   8  12
BRANCH   6  15
ATOM     15  C   UNL     1      32.990 -12.742 -24.321  0.00  0.00    +0.251 C 
BRANCH  15  16
ATOM     16  O   UNL     1      34.168 -11.967 -24.146  0.00  0.00    -0.250 OA
BRANCH  16  17
ATOM     17  P   UNL     1      34.316 -10.548 -24.942  0.00  0.00    +0.504 P 
ATOM     18  O   UNL     1      33.131  -9.659 -24.629  0.00  0.00    -0.225 OA
ATOM     19  O   UNL     1      34.698 -10.839 -26.376  0.00  0.00    -0.116 OA
BRANCH  17  20
ATOM     20  O   UNL     1      35.630  -9.949 -24.178  0.00  0.00    -0.301 OA
ATOM     21  H   UNL     1      35.350  -9.305 -23.509  0.00  0.00    +0.222 HD
ENDBRANCH  17  20
ENDBRANCH  16  17
ENDBRANCH  15  16
ENDBRANCH   6  15
ENDBRANCH   4   7
BRANCH   3  22
ATOM     22  C   UNL     1      36.233 -19.747 -20.895  0.00  0.00    +0.075 C 
BRANCH  22  23
ATOM     23  C   UNL     1      35.293 -20.613 -20.067  0.00  0.00    -0.016 C 
ATOM     24  C   UNL     1      35.802 -21.414 -19.045  0.00  0.00    -0.004 C 
ATOM     25  C   UNL     1      33.923 -20.606 -20.331  0.00  0.00    -0.004 C 
ATOM     26  C   UNL     1      33.572 -22.200 -18.550  0.00  0.00    +0.021 C 
ATOM     27  C   UNL     1      34.942 -22.208 -18.286  0.00  0.00    -0.001 C 
ATOM     28  C   UNL     1      33.063 -21.400 -19.572  0.00  0.00    -0.001 C 
BRANCH  26  29
ATOM     29  C   UNL     1      32.652 -23.047 -17.737  0.00  0.00    +0.234 C 
BRANCH  29  30
ATOM     30  O   UNL     1      31.457 -22.323 -17.469  0.00  0.00    -0.455 OA
BRANCH  30  32
ATOM     31  N   UNL     1      29.198 -22.699 -17.098  0.00  0.00    -0.210 NA
ATOM     32  C   UNL     1      30.479 -22.983 -16.772  0.00  0.00    +0.225 C 
ATOM     33  C   UNL     1      30.848 -23.891 -15.793  0.00  0.00    +0.058 C 
ATOM     34  C   UNL     1      29.837 -24.549 -15.101  0.00  0.00    +0.006 C 
ATOM     35  C   UNL     1      28.242 -23.359 -16.405  0.00  0.00    +0.102 C 
ATOM     36  C   UNL     1      28.507 -24.284 -15.408  0.00  0.00    +0.021 C 
ENDBRANCH  30  32
ENDBRANCH  29  30
ENDBRANCH  26  29
ENDBRANCH  22  23
ENDBRANCH   3  22
TORSDOF 11
ENDMDL
MODEL 5
REMARK VINA RESULT:     -11.9      3.363      4.241
REMARK  Name = 44123754
REMARK  11 active torsions:
REMARK  status: ('A' for Active; 'I' for Inactive)
REMARK    1  A    between atoms: C_3  and  C_22
REMARK    2  A    between atoms: C_4  and  C_7
REMARK    3  A    between atoms: N_6  and  C_15
REMARK    4  A    between atoms: C_8  and  N_12
REMARK    5  A    between atoms: C_15  and  O_16
REMARK    6  A    between atoms: O_16  and  P_17
REMARK    7  A    between atoms: P_17  and  O_20
REMARK    8  A    between atoms: C_22  and  C_23
REMARK    9  A    between atoms: C_26  and  C_29
REMARK   10  A    between atoms: C_29  and  O_30
REMARK   11  A    between atoms: O_30  and  C_32
REMARK                            x       y       z     vdW  Elec       q    Type
REMARK                         _______ _______ _______ _____ _____    ______ ____
ROOT
ATOM      1  O   UNL     1      33.560 -23.288 -18.450  0.00  0.00    -0.354 OA
ATOM      2  N   UNL     1      34.358 -22.782 -19.469  0.00  0.00    -0.081 NA
ATOM      3  C   UNL     1      35.280 -22.040 -18.850  0.00  0.00    +0.105 C 
ATOM      4  C   UNL     1      34.021 -22.838 -17.255  0.00  0.00    +0.175 C 
ATOM      5  C   UNL     1      35.115 -22.039 -17.454  0.00  0.00    +0.058 C 
ENDROOT
BRANCH   4   7
ATOM      6  N   UNL     1      33.199 -24.241 -13.935  0.00  0.00    -0.266 N 
ATOM      7  C   UNL     1      33.286 -23.283 -16.093  0.00  0.00    +0.048 C 
ATOM      8  C   UNL     1      33.919 -23.842 -14.992  0.00  0.00    +0.156 C 
ATOM      9  C   UNL     1      31.901 -23.150 -16.074  0.00  0.00    +0.003 C 
ATOM     10  C   UNL     1      31.865 -24.125 -13.891  0.00  0.00    +0.064 C 
ATOM     11  C   UNL     1      31.179 -23.575 -14.963  0.00  0.00    +0.016 C 
BRANCH   8  12
ATOM     12  N   UNL     1      35.322 -23.994 -14.971  0.00  0.00    -0.303 NA
ATOM     13  H   UNL     1      35.726 -24.775 -14.526  0.00  0.00    +0.121 HD
ATOM     14  H   UNL     1      35.896 -23.320 -15.401  0.00  0.00    +0.121 HD
ENDBRANCH   8  12
BRANCH   6  15
ATOM     15  C   UNL     1      33.868 -24.830 -12.773  0.00  0.00    +0.251 C 
BRANCH  15  16
ATOM     16  O   UNL     1      34.658 -23.828 -12.148  0.00  0.00    -0.250 OA
BRANCH  16  17
ATOM     17  P   UNL     1      35.865 -24.275 -11.140  0.00  0.00    +0.504 P 
ATOM     18  O   UNL     1      36.798 -23.106 -10.910  0.00  0.00    -0.225 OA
ATOM     19  O   UNL     1      36.406 -25.610 -11.604  0.00  0.00    -0.116 OA
BRANCH  17  20
ATOM     20  O   UNL     1      34.998 -24.524  -9.778  0.00  0.00    -0.301 OA
ATOM     21  H   UNL     1      34.979 -23.709  -9.253  0.00  0.00    +0.222 HD
ENDBRANCH  17  20
ENDBRANCH  16  17
ENDBRANCH  15  16
ENDBRANCH   6  15
ENDBRANCH   4   7
BRANCH   3  22
ATOM     22  C   UNL     1      36.310 -21.341 -19.636  0.00  0.00    +0.075 C 
BRANCH  22  23
ATOM     23  C   UNL     1      35.772 -20.273 -20.579  0.00  0.00    -0.016 C 
ATOM     24  C   UNL     1      34.398 -20.156 -20.788  0.00  0.00    -0.004 C 
ATOM     25  C   UNL     1      36.653 -19.411 -21.233  0.00  0.00    -0.004 C 
ATOM     26  C   UNL     1      34.786 -18.316 -22.305  0.00  0.00    +0.021 C 
ATOM     27  C   UNL     1      33.904 -19.178 -21.651  0.00  0.00    -0.001 C 
ATOM     28  C   UNL     1      36.160 -18.433 -22.096  0.00  0.00    -0.001 C 
BRANCH  26  29
ATOM     29  C   UNL     1      34.258 -17.268 -23.226  0.00  0.00    +0.234 C 
BRANCH  29  30
ATOM     30  O   UNL     1      34.543 -17.634 -24.570  0.00  0.00    -0.455 OA
BRANCH  30  32
ATOM     31  N   UNL     1      33.703 -16.152 -26.146  0.00  0.00    -0.210 NA
ATOM     32  C   UNL     1      33.587 -17.337 -25.506  0.00  0.00    +0.225 C 
ATOM     33  C   UNL     1      32.574 -18.251 -25.744  0.00  0.00    +0.058 C 
ATOM     34  C   UNL     1      31.616 -17.928 -26.700  0.00  0.00    +0.006 C 
ATOM     35  C   UNL     1      32.755 -15.872 -27.069  0.00  0.00    +0.102 C 
ATOM     36  C   UNL     1      31.702 -16.718 -27.380  0.00  0.00    +0.021 C 
ENDBRANCH  30  32
ENDBRANCH  29  30
ENDBRANCH  26  29
ENDBRANCH  22  23
ENDBRANCH   3  22
TORSDOF 11
ENDMDL
MODEL 6
REMARK VINA RESULT:     -11.7      4.220      5.993
REMARK  Name = 44123754
REMARK  11 active torsions:
REMARK  status: ('A' for Active; 'I' for Inactive)
REMARK    1  A    between atoms: C_3  and  C_22
REMARK    2  A    between atoms: C_4  and  C_7
REMARK    3  A    between atoms: N_6  and  C_15
REMARK    4  A    between atoms: C_8  and  N_12
REMARK    5  A    between atoms: C_15  and  O_16
REMARK    6  A    between atoms: O_16  and  P_17
REMARK    7  A    between atoms: P_17  and  O_20
REMARK    8  A    between atoms: C_22  and  C_23
REMARK    9  A    between atoms: C_26  and  C_29
REMARK   10  A    between atoms: C_29  and  O_30
REMARK   11  A    between atoms: O_30  and  C_32
REMARK                            x       y       z     vdW  Elec       q    Type
REMARK                         _______ _______ _______ _____ _____    ______ ____
ROOT
ATOM      1  O   UNL     1      34.401 -24.677 -16.382  0.00  0.00    -0.354 OA
ATOM      2  N   UNL     1      33.694 -24.284 -17.512  0.00  0.00    -0.081 NA
ATOM      3  C   UNL     1      33.148 -23.109 -17.187  0.00  0.00    +0.105 C 
ATOM      4  C   UNL     1      34.261 -23.733 -15.415  0.00  0.00    +0.175 C 
ATOM      5  C   UNL     1      33.472 -22.714 -15.877  0.00  0.00    +0.058 C 
ENDROOT
BRANCH   4   7
ATOM      6  N   UNL     1      36.923 -24.328 -12.921  0.00  0.00    -0.266 N 
ATOM      7  C   UNL     1      34.945 -24.005 -14.172  0.00  0.00    +0.048 C 
ATOM      8  C   UNL     1      36.329 -24.074 -14.094  0.00  0.00    +0.156 C 
ATOM      9  C   UNL     1      34.199 -24.205 -13.016  0.00  0.00    +0.003 C 
ATOM     10  C   UNL     1      36.228 -24.524 -11.792  0.00  0.00    +0.064 C 
ATOM     11  C   UNL     1      34.843 -24.468 -11.810  0.00  0.00    +0.016 C 
BRANCH   8  12
ATOM     12  N   UNL     1      37.124 -23.877 -15.245  0.00  0.00    -0.303 NA
ATOM     13  H   UNL     1      37.656 -24.622 -15.609  0.00  0.00    +0.121 HD
ATOM     14  H   UNL     1      37.146 -22.996 -15.682  0.00  0.00    +0.121 HD
ENDBRANCH   8  12
BRANCH   6  15
ATOM     15  C   UNL     1      38.384 -24.400 -12.839  0.00  0.00    +0.251 C 
BRANCH  15  16
ATOM     16  O   UNL     1      38.802 -25.682 -13.287  0.00  0.00    -0.250 OA
BRANCH  16  17
ATOM     17  P   UNL     1      39.611 -25.811 -14.701  0.00  0.00    +0.504 P 
ATOM     18  O   UNL     1      40.646 -26.910 -14.600  0.00  0.00    -0.225 OA
ATOM     19  O   UNL     1      40.008 -24.423 -15.154  0.00  0.00    -0.116 OA
BRANCH  17  20
ATOM     20  O   UNL     1      38.394 -26.329 -15.659  0.00  0.00    -0.301 OA
ATOM     21  H   UNL     1      38.556 -26.042 -16.572  0.00  0.00    +0.222 HD
ENDBRANCH  17  20
ENDBRANCH  16  17
ENDBRANCH  15  16
ENDBRANCH   6  15
ENDBRANCH   4   7
BRANCH   3  22
ATOM     22  C   UNL     1      32.316 -22.390 -18.165  0.00  0.00    +0.075 C 
BRANCH  22  23
ATOM     23  C   UNL     1      33.097 -21.546 -19.164  0.00  0.00    -0.016 C 
ATOM     24  C   UNL     1      32.425 -20.653 -19.998  0.00  0.00    -0.004 C 
ATOM     25  C   UNL     1      34.485 -21.666 -19.244  0.00  0.00    -0.004 C 
ATOM     26  C   UNL     1      34.528 -20.000 -20.993  0.00  0.00    +0.021 C 
ATOM     27  C   UNL     1      33.140 -19.880 -20.913  0.00  0.00    -0.001 C 
ATOM     28  C   UNL     1      35.200 -20.893 -20.159  0.00  0.00    -0.001 C 
BRANCH  26  29
ATOM     29  C   UNL     1      35.292 -19.171 -21.969  0.00  0.00    +0.234 C 
BRANCH  29  30
ATOM     30  O   UNL     1      35.297 -17.816 -21.537  0.00  0.00    -0.455 OA
BRANCH  30  32
ATOM     31  N   UNL     1      34.700 -15.615 -21.964  0.00  0.00    -0.210 NA
ATOM     32  C   UNL     1      34.795 -16.888 -22.410  0.00  0.00    +0.225 C 
ATOM     33  C   UNL     1      34.420 -17.295 -23.681  0.00  0.00    +0.058 C 
ATOM     34  C   UNL     1      33.915 -16.333 -24.549  0.00  0.00    +0.006 C 
ATOM     35  C   UNL     1      34.205 -14.708 -22.837  0.00  0.00    +0.102 C 
ATOM     36  C   UNL     1      33.803 -15.013 -24.127  0.00  0.00    +0.021 C 
ENDBRANCH  30  32
ENDBRANCH  29  30
ENDBRANCH  26  29
ENDBRANCH  22  23
ENDBRANCH   3  22
TORSDOF 11
ENDMDL
MODEL 7
REMARK VINA RESULT:     -11.6      3.538     10.246
REMARK  Name = 44123754
REMARK  11 active torsions:
REMARK  status: ('A' for Active; 'I' for Inactive)
REMARK    1  A    between atoms: C_3  and  C_22
REMARK    2  A    between atoms: C_4  and  C_7
REMARK    3  A    between atoms: N_6  and  C_15
REMARK    4  A    between atoms: C_8  and  N_12
REMARK    5  A    between atoms: C_15  and  O_16
REMARK    6  A    between atoms: O_16  and  P_17
REMARK    7  A    between atoms: P_17  and  O_20
REMARK    8  A    between atoms: C_22  and  C_23
REMARK    9  A    between atoms: C_26  and  C_29
REMARK   10  A    between atoms: C_29  and  O_30
REMARK   11  A    between atoms: O_30  and  C_32
REMARK                            x       y       z     vdW  Elec       q    Type
REMARK                         _______ _______ _______ _____ _____    ______ ____
ROOT
ATOM      1  O   UNL     1      36.331 -18.597 -20.336  0.00  0.00    -0.354 OA
ATOM      2  N   UNL     1      36.483 -19.936 -19.996  0.00  0.00    -0.081 NA
ATOM      3  C   UNL     1      35.354 -20.525 -20.399  0.00  0.00    +0.105 C 
ATOM      4  C   UNL     1      35.123 -18.420 -20.930  0.00  0.00    +0.175 C 
ATOM      5  C   UNL     1      34.461 -19.617 -20.994  0.00  0.00    +0.058 C 
ENDROOT
BRANCH   4   7
ATOM      6  N   UNL     1      34.409 -15.454 -23.018  0.00  0.00    -0.266 N 
ATOM      7  C   UNL     1      34.821 -17.069 -21.343  0.00  0.00    +0.048 C 
ATOM      8  C   UNL     1      34.691 -16.720 -22.679  0.00  0.00    +0.156 C 
ATOM      9  C   UNL     1      34.654 -16.085 -20.374  0.00  0.00    +0.003 C 
ATOM     10  C   UNL     1      34.245 -14.487 -22.105  0.00  0.00    +0.064 C 
ATOM     11  C   UNL     1      34.363 -14.778 -20.754  0.00  0.00    +0.016 C 
BRANCH   8  12
ATOM     12  N   UNL     1      34.852 -17.688 -23.693  0.00  0.00    -0.303 NA
ATOM     13  H   UNL     1      35.184 -18.587 -23.467  0.00  0.00    +0.121 HD
ATOM     14  H   UNL     1      34.633 -17.464 -24.626  0.00  0.00    +0.121 HD
ENDBRANCH   8  12
BRANCH   6  15
ATOM     15  C   UNL     1      34.272 -15.086 -24.429  0.00  0.00    +0.251 C 
BRANCH  15  16
ATOM     16  O   UNL     1      33.058 -15.633 -24.925  0.00  0.00    -0.250 OA
BRANCH  16  17
ATOM     17  P   UNL     1      32.994 -16.169 -26.467  0.00  0.00    +0.504 P 
ATOM     18  O   UNL     1      33.728 -17.487 -26.583  0.00  0.00    -0.225 OA
ATOM     19  O   UNL     1      33.334 -15.018 -27.389  0.00  0.00    -0.116 OA
BRANCH  17  20
ATOM     20  O   UNL     1      31.390 -16.455 -26.585  0.00  0.00    -0.301 OA
ATOM     21  H   UNL     1      31.146 -16.551 -27.519  0.00  0.00    +0.222 HD
ENDBRANCH  17  20
ENDBRANCH  16  17
ENDBRANCH  15  16
ENDBRANCH   6  15
ENDBRANCH   4   7
BRANCH   3  22
ATOM     22  C   UNL     1      35.166 -21.971 -20.193  0.00  0.00    +0.075 C 
BRANCH  22  23
ATOM     23  C   UNL     1      34.643 -22.353 -18.814  0.00  0.00    -0.016 C 
ATOM     24  C   UNL     1      33.319 -22.761 -18.659  0.00  0.00    -0.004 C 
ATOM     25  C   UNL     1      35.491 -22.296 -17.707  0.00  0.00    -0.004 C 
ATOM     26  C   UNL     1      33.688 -23.054 -16.289  0.00  0.00    +0.021 C 
ATOM     27  C   UNL     1      32.841 -23.111 -17.396  0.00  0.00    -0.001 C 
ATOM     28  C   UNL     1      35.012 -22.646 -16.445  0.00  0.00    -0.001 C 
BRANCH  26  29
ATOM     29  C   UNL     1      33.177 -23.431 -14.940  0.00  0.00    +0.234 C 
BRANCH  29  30
ATOM     30  O   UNL     1      31.960 -22.739 -14.685  0.00  0.00    -0.455 OA
BRANCH  30  32
ATOM     31  N   UNL     1      29.784 -22.781 -15.490  0.00  0.00    -0.210 NA
ATOM     32  C   UNL     1      30.799 -23.439 -14.886  0.00  0.00    +0.225 C 
ATOM     33  C   UNL     1      30.729 -24.758 -14.470  0.00  0.00    +0.058 C 
ATOM     34  C   UNL     1      29.541 -25.447 -14.686  0.00  0.00    +0.006 C 
ATOM     35  C   UNL     1      28.645 -23.483 -15.685  0.00  0.00    +0.102 C 
ATOM     36  C   UNL     1      28.474 -24.804 -15.305  0.00  0.00    +0.021 C 
ENDBRANCH  30  32
ENDBRANCH  29  30
ENDBRANCH  26  29
ENDBRANCH  22  23
ENDBRANCH   3  22
TORSDOF 11
ENDMDL
MODEL 8
REMARK VINA RESULT:     -11.4      4.346      5.893
REMARK  Name = 44123754
REMARK  11 active torsions:
REMARK  status: ('A' for Active; 'I' for Inactive)
REMARK    1  A    between atoms: C_3  and  C_22
REMARK    2  A    between atoms: C_4  and  C_7
REMARK    3  A    between atoms: N_6  and  C_15
REMARK    4  A    between atoms: C_8  and  N_12
REMARK    5  A    between atoms: C_15  and  O_16
REMARK    6  A    between atoms: O_16  and  P_17
REMARK    7  A    between atoms: P_17  and  O_20
REMARK    8  A    between atoms: C_22  and  C_23
REMARK    9  A    between atoms: C_26  and  C_29
REMARK   10  A    between atoms: C_29  and  O_30
REMARK   11  A    between atoms: O_30  and  C_32
REMARK                            x       y       z     vdW  Elec       q    Type
REMARK                         _______ _______ _______ _____ _____    ______ ____
ROOT
ATOM      1  O   UNL     1      36.198 -20.629 -19.098  0.00  0.00    -0.354 OA
ATOM      2  N   UNL     1      36.479 -19.852 -20.216  0.00  0.00    -0.081 NA
ATOM      3  C   UNL     1      35.431 -20.023 -21.027  0.00  0.00    +0.105 C 
ATOM      4  C   UNL     1      34.999 -21.242 -19.267  0.00  0.00    +0.175 C 
ATOM      5  C   UNL     1      34.468 -20.889 -20.480  0.00  0.00    +0.058 C 
ENDROOT
BRANCH   4   7
ATOM      6  N   UNL     1      34.969 -23.192 -16.127  0.00  0.00    -0.266 N 
ATOM      7  C   UNL     1      34.570 -22.089 -18.179  0.00  0.00    +0.048 C 
ATOM      8  C   UNL     1      35.407 -22.402 -17.117  0.00  0.00    +0.156 C 
ATOM      9  C   UNL     1      33.280 -22.609 -18.191  0.00  0.00    +0.003 C 
ATOM     10  C   UNL     1      33.732 -23.706 -16.114  0.00  0.00    +0.064 C 
ATOM     11  C   UNL     1      32.852 -23.427 -17.149  0.00  0.00    +0.016 C 
BRANCH   8  12
ATOM     12  N   UNL     1      36.724 -21.895 -17.067  0.00  0.00    -0.303 NA
ATOM     13  H   UNL     1      37.190 -21.653 -17.900  0.00  0.00    +0.121 HD
ATOM     14  H   UNL     1      37.175 -21.785 -16.199  0.00  0.00    +0.121 HD
ENDBRANCH   8  12
BRANCH   6  15
ATOM     15  C   UNL     1      35.853 -23.522 -15.007  0.00  0.00    +0.251 C 
BRANCH  15  16
ATOM     16  O   UNL     1      36.770 -24.520 -15.431  0.00  0.00    -0.250 OA
BRANCH  16  17
ATOM     17  P   UNL     1      36.625 -26.040 -14.847  0.00  0.00    +0.504 P 
ATOM     18  O   UNL     1      37.961 -26.515 -14.319  0.00  0.00    -0.225 OA
ATOM     19  O   UNL     1      35.859 -26.869 -15.855  0.00  0.00    -0.116 OA
BRANCH  17  20
ATOM     20  O   UNL     1      35.639 -25.746 -13.578  0.00  0.00    -0.301 OA
ATOM     21  H   UNL     1      36.165 -25.431 -12.826  0.00  0.00    +0.222 HD
ENDBRANCH  17  20
ENDBRANCH  16  17
ENDBRANCH  15  16
ENDBRANCH   6  15
ENDBRANCH   4   7
BRANCH   3  22
ATOM     22  C   UNL     1      35.389 -19.336 -22.328  0.00  0.00    +0.075 C 
BRANCH  22  23
ATOM     23  C   UNL     1      35.053 -17.852 -22.251  0.00  0.00    -0.016 C 
ATOM     24  C   UNL     1      34.929 -17.229 -21.009  0.00  0.00    -0.004 C 
ATOM     25  C   UNL     1      34.870 -17.116 -23.422  0.00  0.00    -0.004 C 
ATOM     26  C   UNL     1      34.438 -15.135 -22.109  0.00  0.00    +0.021 C 
ATOM     27  C   UNL     1      34.621 -15.871 -20.938  0.00  0.00    -0.001 C 
ATOM     28  C   UNL     1      34.562 -15.758 -23.351  0.00  0.00    -0.001 C 
BRANCH  26  29
ATOM     29  C   UNL     1      34.111 -13.682 -22.033  0.00  0.00    +0.234 C 
BRANCH  29  30
ATOM     30  O   UNL     1      32.759 -13.480 -22.426  0.00  0.00    -0.455 OA
BRANCH  30  32
ATOM     31  N   UNL     1      32.166 -11.256 -22.717  0.00  0.00    -0.210 NA
ATOM     32  C   UNL     1      32.135 -12.362 -21.940  0.00  0.00    +0.225 C 
ATOM     33  C   UNL     1      31.515 -12.423 -20.702  0.00  0.00    +0.058 C 
ATOM     34  C   UNL     1      30.887 -11.275 -20.231  0.00  0.00    +0.006 C 
ATOM     35  C   UNL     1      31.544 -10.160 -22.227  0.00  0.00    +0.102 C 
ATOM     36  C   UNL     1      30.897 -10.118 -21.002  0.00  0.00    +0.021 C 
ENDBRANCH  30  32
ENDBRANCH  29  30
ENDBRANCH  26  29
ENDBRANCH  22  23
ENDBRANCH   3  22
TORSDOF 11
ENDMDL
MODEL 9
REMARK VINA RESULT:     -11.4      5.283     11.136
REMARK  Name = 44123754
REMARK  11 active torsions:
REMARK  status: ('A' for Active; 'I' for Inactive)
REMARK    1  A    between atoms: C_3  and  C_22
REMARK    2  A    between atoms: C_4  and  C_7
REMARK    3  A    between atoms: N_6  and  C_15
REMARK    4  A    between atoms: C_8  and  N_12
REMARK    5  A    between atoms: C_15  and  O_16
REMARK    6  A    between atoms: O_16  and  P_17
REMARK    7  A    between atoms: P_17  and  O_20
REMARK    8  A    between atoms: C_22  and  C_23
REMARK    9  A    between atoms: C_26  and  C_29
REMARK   10  A    between atoms: C_29  and  O_30
REMARK   11  A    between atoms: O_30  and  C_32
REMARK                            x       y       z     vdW  Elec       q    Type
REMARK                         _______ _______ _______ _____ _____    ______ ____
ROOT
ATOM      1  O   UNL     1      34.378 -15.069 -21.172  0.00  0.00    -0.354 OA
ATOM      2  N   UNL     1      34.912 -16.332 -20.941  0.00  0.00    -0.081 NA
ATOM      3  C   UNL     1      35.004 -16.895 -22.149  0.00  0.00    +0.105 C 
ATOM      4  C   UNL     1      34.165 -14.910 -22.503  0.00  0.00    +0.175 C 
ATOM      5  C   UNL     1      34.547 -16.043 -23.170  0.00  0.00    +0.058 C 
ENDROOT
BRANCH   4   7
ATOM      6  N   UNL     1      32.215 -11.770 -22.508  0.00  0.00    -0.266 N 
ATOM      7  C   UNL     1      33.609 -13.637 -22.900  0.00  0.00    +0.048 C 
ATOM      8  C   UNL     1      32.706 -12.949 -22.102  0.00  0.00    +0.156 C 
ATOM      9  C   UNL     1      33.988 -13.080 -24.117  0.00  0.00    +0.003 C 
ATOM     10  C   UNL     1      32.562 -11.212 -23.675  0.00  0.00    +0.064 C 
ATOM     11  C   UNL     1      33.461 -11.855 -24.513  0.00  0.00    +0.016 C 
BRANCH   8  12
ATOM     12  N   UNL     1      32.296 -13.479 -20.859  0.00  0.00    -0.303 NA
ATOM     13  H   UNL     1      32.960 -13.644 -20.152  0.00  0.00    +0.121 HD
ATOM     14  H   UNL     1      31.346 -13.683 -20.702  0.00  0.00    +0.121 HD
ENDBRANCH   8  12
BRANCH   6  15
ATOM     15  C   UNL     1      31.262 -11.044 -21.665  0.00  0.00    +0.251 C 
BRANCH  15  16
ATOM     16  O   UNL     1      31.862  -9.826 -21.245  0.00  0.00    -0.250 OA
BRANCH  16  17
ATOM     17  P   UNL     1      31.559  -9.262 -19.742  0.00  0.00    +0.504 P 
ATOM     18  O   UNL     1      31.257  -7.781 -19.802  0.00  0.00    -0.225 OA
ATOM     19  O   UNL     1      32.626  -9.790 -18.808  0.00  0.00    -0.116 OA
BRANCH  17  20
ATOM     20  O   UNL     1      30.171 -10.064 -19.430  0.00  0.00    -0.301 OA
ATOM     21  H   UNL     1      30.048 -10.766 -20.088  0.00  0.00    +0.222 HD
ENDBRANCH  17  20
ENDBRANCH  16  17
ENDBRANCH  15  16
ENDBRANCH   6  15
ENDBRANCH   4   7
BRANCH   3  22
ATOM     22  C   UNL     1      35.538 -18.259 -22.284  0.00  0.00    +0.075 C 
BRANCH  22  23
ATOM     23  C   UNL     1      34.870 -19.294 -21.388  0.00  0.00    -0.016 C 
ATOM     24  C   UNL     1      33.480 -19.408 -21.371  0.00  0.00    -0.004 C 
ATOM     25  C   UNL     1      35.648 -20.129 -20.585  0.00  0.00    -0.004 C 
ATOM     26  C   UNL     1      33.645 -21.189 -19.747  0.00  0.00    +0.021 C 
ATOM     27  C   UNL     1      32.867 -20.354 -20.550  0.00  0.00    -0.001 C 
ATOM     28  C   UNL     1      35.035 -21.076 -19.765  0.00  0.00    -0.001 C 
BRANCH  26  29
ATOM     29  C   UNL     1      32.991 -22.204 -18.872  0.00  0.00    +0.234 C 
BRANCH  29  30
ATOM     30  O   UNL     1      33.976 -22.838 -18.066  0.00  0.00    -0.455 OA
BRANCH  30  32
ATOM     31  N   UNL     1      34.516 -23.831 -16.039  0.00  0.00    -0.210 NA
ATOM     32  C   UNL     1      33.565 -23.310 -16.846  0.00  0.00    +0.225 C 
ATOM     33  C   UNL     1      32.224 -23.226 -16.511  0.00  0.00    +0.058 C 
ATOM     34  C   UNL     1      31.832 -23.709 -15.267  0.00  0.00    +0.006 C 
ATOM     35  C   UNL     1      34.099 -24.290 -14.838  0.00  0.00    +0.102 C 
ATOM     36  C   UNL     1      32.782 -24.253 -14.409  0.00  0.00    +0.021 C 
ENDBRANCH  30  32
ENDBRANCH  29  30
ENDBRANCH  26  29
ENDBRANCH  22  23
ENDBRANCH   3  22
TORSDOF 11
ENDMDL
