MODEL 1
REMARK VINA RESULT:     -12.8      0.000      0.000
REMARK  Name = 9889200
REMARK  5 active torsions:
REMARK  status: ('A' for Active; 'I' for Inactive)
REMARK    1  A    between atoms: C_1  and  C_21
REMARK    2  A    between atoms: C_4  and  O_7
REMARK    3  A    between atoms: O_7  and  C_8
REMARK    4  A    between atoms: C_8  and  C_12
REMARK    5  A    between atoms: C_21  and  C_26
REMARK                            x       y       z     vdW  Elec       q    Type
REMARK                         _______ _______ _______ _____ _____    ______ ____
ROOT
ATOM      1  C   UNL     1      33.819 -20.162 -20.911  0.00  0.00    -0.021 C 
ATOM      2  C   UNL     1      35.165 -20.384 -20.623  0.00  0.00    -0.001 C 
ATOM      3  C   UNL     1      32.832 -20.831 -20.188  0.00  0.00    -0.001 C 
ATOM      4  C   UNL     1      34.534 -21.938 -18.900  0.00  0.00    +0.139 C 
ATOM      5  C   UNL     1      35.525 -21.277 -19.612  0.00  0.00    +0.037 C 
ATOM      6  C   UNL     1      33.190 -21.723 -19.178  0.00  0.00    +0.037 C 
ENDROOT
BRANCH   4   7
ATOM      7  O   UNL     1      34.888 -22.816 -17.903  0.00  0.00    -0.466 OA
BRANCH   7   8
ATOM      8  C   UNL     1      33.915 -23.105 -16.922  0.00  0.00    +0.279 C 
BRANCH   8  12
ATOM      9  O   UNL     1      33.822 -24.450 -12.282  0.00  0.00    -0.274 OA
ATOM     10  N   UNL     1      33.845 -23.791 -14.528  0.00  0.00    -0.232 N 
ATOM     11  N   UNL     1      35.837 -24.022 -15.806  0.00  0.00    -0.391 NA
ATOM     12  C   UNL     1      34.592 -23.674 -15.698  0.00  0.00    +0.210 C 
ATOM     13  C   UNL     1      35.825 -24.714 -13.457  0.00  0.00    +0.151 C 
ATOM     14  C   UNL     1      36.480 -24.551 -14.680  0.00  0.00    +0.123 C 
ATOM     15  C   UNL     1      34.407 -24.312 -13.352  0.00  0.00    +0.241 C 
ATOM     16  C   UNL     1      32.443 -23.374 -14.489  0.00  0.00    +0.122 C 
ATOM     17  C   UNL     1      36.497 -25.246 -12.351  0.00  0.00    -0.010 C 
ATOM     18  C   UNL     1      37.823 -24.931 -14.783  0.00  0.00    +0.028 C 
ATOM     19  C   UNL     1      37.835 -25.620 -12.469  0.00  0.00    -0.004 C 
ATOM     20  C   UNL     1      38.498 -25.463 -13.684  0.00  0.00    +0.002 C 
ENDBRANCH   8  12
ENDBRANCH   7   8
ENDBRANCH   4   7
BRANCH   1  21
ATOM     21  C   UNL     1      33.436 -19.209 -21.991  0.00  0.00    +0.047 C 
BRANCH  21  26
ATOM     22  S   UNL     1      34.798 -16.836 -21.626  0.00  0.00    -0.048 S 
ATOM     23  O   UNL     1      34.277 -18.879 -24.859  0.00  0.00    -0.274 OA
ATOM     24  O   UNL     1      34.810 -14.647 -23.084  0.00  0.00    -0.263 OA
ATOM     25  N   UNL     1      34.542 -16.689 -24.164  0.00  0.00    -0.246 N 
ATOM     26  C   UNL     1      34.631 -18.415 -22.513  0.00  0.00    +0.137 C 
ATOM     27  C   UNL     1      34.461 -18.052 -23.972  0.00  0.00    +0.239 C 
ATOM     28  C   UNL     1      34.721 -15.867 -23.082  0.00  0.00    +0.279 C 
ATOM     29  H   UNL     1      34.474 -16.310 -25.070  0.00  0.00    +0.158 HD
ENDBRANCH  21  26
ENDBRANCH   1  21
TORSDOF 5
ENDMDL
MODEL 2
REMARK VINA RESULT:     -12.8      1.073      1.847
REMARK  Name = 9889200
REMARK  5 active torsions:
REMARK  status: ('A' for Active; 'I' for Inactive)
REMARK    1  A    between atoms: C_1  and  C_21
REMARK    2  A    between atoms: C_4  and  O_7
REMARK    3  A    between atoms: O_7  and  C_8
REMARK    4  A    between atoms: C_8  and  C_12
REMARK    5  A    between atoms: C_21  and  C_26
REMARK                            x       y       z     vdW  Elec       q    Type
REMARK                         _______ _______ _______ _____ _____    ______ ____
ROOT
ATOM      1  C   UNL     1      35.267 -19.830 -20.769  0.00  0.00    -0.021 C 
ATOM      2  C   UNL     1      33.925 -20.187 -20.642  0.00  0.00    -0.001 C 
ATOM      3  C   UNL     1      36.249 -20.563 -20.104  0.00  0.00    -0.001 C 
ATOM      4  C   UNL     1      34.550 -21.999 -19.191  0.00  0.00    +0.139 C 
ATOM      5  C   UNL     1      33.564 -21.277 -19.848  0.00  0.00    +0.037 C 
ATOM      6  C   UNL     1      35.890 -21.653 -19.312  0.00  0.00    +0.037 C 
ENDROOT
BRANCH   4   7
ATOM      7  O   UNL     1      34.195 -23.074 -18.411  0.00  0.00    -0.466 OA
BRANCH   7   8
ATOM      8  C   UNL     1      33.400 -22.812 -17.275  0.00  0.00    +0.279 C 
BRANCH   8  12
ATOM      9  O   UNL     1      33.233 -24.399 -12.714  0.00  0.00    -0.274 OA
ATOM     10  N   UNL     1      33.291 -23.625 -14.922  0.00  0.00    -0.232 N 
ATOM     11  N   UNL     1      35.346 -23.623 -16.119  0.00  0.00    -0.391 NA
ATOM     12  C   UNL     1      34.073 -23.386 -16.050  0.00  0.00    +0.210 C 
ATOM     13  C   UNL     1      35.298 -24.434 -13.809  0.00  0.00    +0.151 C 
ATOM     14  C   UNL     1      35.986 -24.154 -14.992  0.00  0.00    +0.123 C 
ATOM     15  C   UNL     1      33.847 -24.157 -13.749  0.00  0.00    +0.241 C 
ATOM     16  C   UNL     1      31.859 -23.329 -14.926  0.00  0.00    +0.122 C 
ATOM     17  C   UNL     1      35.967 -24.965 -12.700  0.00  0.00    -0.010 C 
ATOM     18  C   UNL     1      37.359 -24.415 -15.053  0.00  0.00    +0.028 C 
ATOM     19  C   UNL     1      37.335 -25.220 -12.776  0.00  0.00    -0.004 C 
ATOM     20  C   UNL     1      38.031 -24.945 -13.951  0.00  0.00    +0.002 C 
ENDBRANCH   8  12
ENDBRANCH   7   8
ENDBRANCH   4   7
BRANCH   1  21
ATOM     21  C   UNL     1      35.651 -18.664 -21.615  0.00  0.00    +0.047 C 
BRANCH  21  26
ATOM     22  S   UNL     1      34.405 -18.919 -24.066  0.00  0.00    -0.048 S 
ATOM     23  O   UNL     1      34.736 -15.807 -21.808  0.00  0.00    -0.274 OA
ATOM     24  O   UNL     1      34.443 -17.329 -26.160  0.00  0.00    -0.263 OA
ATOM     25  N   UNL     1      34.588 -16.371 -24.047  0.00  0.00    -0.246 N 
ATOM     26  C   UNL     1      34.476 -18.129 -22.430  0.00  0.00    +0.137 C 
ATOM     27  C   UNL     1      34.617 -16.646 -22.695  0.00  0.00    +0.239 C 
ATOM     28  C   UNL     1      34.480 -17.404 -24.940  0.00  0.00    +0.279 C 
ATOM     29  H   UNL     1      34.645 -15.442 -24.365  0.00  0.00    +0.158 HD
ENDBRANCH  21  26
ENDBRANCH   1  21
TORSDOF 5
ENDMDL
MODEL 3
REMARK VINA RESULT:     -12.6      1.679      3.669
REMARK  Name = 9889200
REMARK  5 active torsions:
REMARK  status: ('A' for Active; 'I' for Inactive)
REMARK    1  A    between atoms: C_1  and  C_21
REMARK    2  A    between atoms: C_4  and  O_7
REMARK    3  A    between atoms: O_7  and  C_8
REMARK    4  A    between atoms: C_8  and  C_12
REMARK    5  A    between atoms: C_21  and  C_26
REMARK                            x       y       z     vdW  Elec       q    Type
REMARK                         _______ _______ _______ _____ _____    ______ ____
ROOT
ATOM      1  C   UNL     1      35.366 -19.583 -20.963  0.00  0.00    -0.021 C 
ATOM      2  C   UNL     1      36.387 -20.250 -20.287  0.00  0.00    -0.001 C 
ATOM      3  C   UNL     1      34.038 -19.962 -20.770  0.00  0.00    -0.001 C 
ATOM      4  C   UNL     1      34.755 -21.667 -19.233  0.00  0.00    +0.139 C 
ATOM      5  C   UNL     1      36.080 -21.298 -19.418  0.00  0.00    +0.037 C 
ATOM      6  C   UNL     1      33.731 -21.009 -19.901  0.00  0.00    +0.037 C 
ENDROOT
BRANCH   4   7
ATOM      7  O   UNL     1      34.453 -22.698 -18.376  0.00  0.00    -0.466 OA
BRANCH   7   8
ATOM      8  C   UNL     1      34.961 -22.615 -17.062  0.00  0.00    +0.279 C 
BRANCH   8  12
ATOM      9  O   UNL     1      33.808 -24.463 -12.749  0.00  0.00    -0.274 OA
ATOM     10  N   UNL     1      34.389 -23.567 -14.832  0.00  0.00    -0.232 N 
ATOM     11  N   UNL     1      32.721 -23.288 -16.504  0.00  0.00    -0.391 NA
ATOM     12  C   UNL     1      33.949 -23.185 -16.097  0.00  0.00    +0.210 C 
ATOM     13  C   UNL     1      32.102 -24.228 -14.329  0.00  0.00    +0.151 C 
ATOM     14  C   UNL     1      31.769 -23.815 -15.621  0.00  0.00    +0.123 C 
ATOM     15  C   UNL     1      33.506 -24.103 -13.883  0.00  0.00    +0.241 C 
ATOM     16  C   UNL     1      35.793 -23.418 -14.450  0.00  0.00    +0.122 C 
ATOM     17  C   UNL     1      31.127 -24.750 -13.472  0.00  0.00    -0.010 C 
ATOM     18  C   UNL     1      30.442 -23.931 -16.048  0.00  0.00    +0.028 C 
ATOM     19  C   UNL     1      29.808 -24.859 -13.910  0.00  0.00    -0.004 C 
ATOM     20  C   UNL     1      29.466 -24.450 -15.197  0.00  0.00    +0.002 C 
ENDBRANCH   8  12
ENDBRANCH   7   8
ENDBRANCH   4   7
BRANCH   1  21
ATOM     21  C   UNL     1      35.694 -18.464 -21.892  0.00  0.00    +0.047 C 
BRANCH  21  26
ATOM     22  S   UNL     1      34.351 -18.810 -24.280  0.00  0.00    -0.048 S 
ATOM     23  O   UNL     1      34.695 -15.637 -22.110  0.00  0.00    -0.274 OA
ATOM     24  O   UNL     1      34.257 -17.270 -26.409  0.00  0.00    -0.263 OA
ATOM     25  N   UNL     1      34.467 -16.258 -24.327  0.00  0.00    -0.246 N 
ATOM     26  C   UNL     1      34.471 -17.979 -22.667  0.00  0.00    +0.137 C 
ATOM     27  C   UNL     1      34.560 -16.500 -22.972  0.00  0.00    +0.239 C 
ATOM     28  C   UNL     1      34.348 -17.315 -25.191  0.00  0.00    +0.279 C 
ATOM     29  H   UNL     1      34.484 -15.335 -24.669  0.00  0.00    +0.158 HD
ENDBRANCH  21  26
ENDBRANCH   1  21
TORSDOF 5
ENDMDL
MODEL 4
REMARK VINA RESULT:     -12.0      4.611     11.951
REMARK  Name = 9889200
REMARK  5 active torsions:
REMARK  status: ('A' for Active; 'I' for Inactive)
REMARK    1  A    between atoms: C_1  and  C_21
REMARK    2  A    between atoms: C_4  and  O_7
REMARK    3  A    between atoms: O_7  and  C_8
REMARK    4  A    between atoms: C_8  and  C_12
REMARK    5  A    between atoms: C_21  and  C_26
REMARK                            x       y       z     vdW  Elec       q    Type
REMARK                         _______ _______ _______ _____ _____    ______ ____
ROOT
ATOM      1  C   UNL     1      34.768 -18.602 -22.066  0.00  0.00    -0.021 C 
ATOM      2  C   UNL     1      34.597 -18.276 -23.411  0.00  0.00    -0.001 C 
ATOM      3  C   UNL     1      34.888 -17.592 -21.113  0.00  0.00    -0.001 C 
ATOM      4  C   UNL     1      34.667 -15.940 -22.846  0.00  0.00    +0.139 C 
ATOM      5  C   UNL     1      34.546 -16.937 -23.803  0.00  0.00    +0.037 C 
ATOM      6  C   UNL     1      34.837 -16.254 -21.504  0.00  0.00    +0.037 C 
ENDROOT
BRANCH   4   7
ATOM      7  O   UNL     1      34.615 -14.621 -23.232  0.00  0.00    -0.466 OA
BRANCH   7   8
ATOM      8  C   UNL     1      33.471 -14.202 -23.944  0.00  0.00    +0.279 C 
BRANCH   8  12
ATOM      9  O   UNL     1      32.579  -9.460 -24.213  0.00  0.00    -0.274 OA
ATOM     10  N   UNL     1      33.021 -11.757 -24.104  0.00  0.00    -0.232 N 
ATOM     11  N   UNL     1      32.461 -12.975 -22.140  0.00  0.00    -0.391 NA
ATOM     12  C   UNL     1      32.949 -12.920 -23.341  0.00  0.00    +0.210 C 
ATOM     13  C   UNL     1      31.995 -10.573 -22.242  0.00  0.00    +0.151 C 
ATOM     14  C   UNL     1      31.972 -11.795 -21.565  0.00  0.00    +0.123 C 
ATOM     15  C   UNL     1      32.554 -10.529 -23.609  0.00  0.00    +0.241 C 
ATOM     16  C   UNL     1      33.587 -11.778 -25.452  0.00  0.00    +0.122 C 
ATOM     17  C   UNL     1      31.498  -9.412 -21.639  0.00  0.00    -0.010 C 
ATOM     18  C   UNL     1      31.444 -11.841 -20.270  0.00  0.00    +0.028 C 
ATOM     19  C   UNL     1      30.974  -9.473 -20.349  0.00  0.00    -0.004 C 
ATOM     20  C   UNL     1      30.947 -10.686 -19.665  0.00  0.00    +0.002 C 
ENDBRANCH   8  12
ENDBRANCH   7   8
ENDBRANCH   4   7
BRANCH   1  21
ATOM     21  C   UNL     1      34.823 -20.032 -21.648  0.00  0.00    +0.047 C 
BRANCH  21  26
ATOM     22  S   UNL     1      34.976 -21.620 -19.394  0.00  0.00    -0.048 S 
ATOM     23  O   UNL     1      31.878 -20.014 -21.042  0.00  0.00    -0.274 OA
ATOM     24  O   UNL     1      33.453 -23.621 -18.625  0.00  0.00    -0.263 OA
ATOM     25  N   UNL     1      32.472 -21.888 -19.824  0.00  0.00    -0.246 N 
ATOM     26  C   UNL     1      34.162 -20.263 -20.290  0.00  0.00    +0.137 C 
ATOM     27  C   UNL     1      32.716 -20.680 -20.443  0.00  0.00    +0.239 C 
ATOM     28  C   UNL     1      33.504 -22.550 -19.211  0.00  0.00    +0.279 C 
ATOM     29  H   UNL     1      31.565 -22.270 -19.821  0.00  0.00    +0.158 HD
ENDBRANCH  21  26
ENDBRANCH   1  21
TORSDOF 5
ENDMDL
MODEL 5
REMARK VINA RESULT:     -12.0      1.536      3.459
REMARK  Name = 9889200
REMARK  5 active torsions:
REMARK  status: ('A' for Active; 'I' for Inactive)
REMARK    1  A    between atoms: C_1  and  C_21
REMARK    2  A    between atoms: C_4  and  O_7
REMARK    3  A    between atoms: O_7  and  C_8
REMARK    4  A    between atoms: C_8  and  C_12
REMARK    5  A    between atoms: C_21  and  C_26
REMARK                            x       y       z     vdW  Elec       q    Type
REMARK                         _______ _______ _______ _____ _____    ______ ____
ROOT
ATOM      1  C   UNL     1      34.058 -19.975 -21.155  0.00  0.00    -0.021 C 
ATOM      2  C   UNL     1      32.977 -20.534 -20.475  0.00  0.00    -0.001 C 
ATOM      3  C   UNL     1      35.358 -20.385 -20.857  0.00  0.00    -0.001 C 
ATOM      4  C   UNL     1      34.491 -21.905 -19.207  0.00  0.00    +0.139 C 
ATOM      5  C   UNL     1      33.195 -21.504 -19.496  0.00  0.00    +0.037 C 
ATOM      6  C   UNL     1      35.575 -21.355 -19.879  0.00  0.00    +0.037 C 
ENDROOT
BRANCH   4   7
ATOM      7  O   UNL     1      34.706 -22.862 -18.244  0.00  0.00    -0.466 OA
BRANCH   7   8
ATOM      8  C   UNL     1      34.949 -22.411 -16.929  0.00  0.00    +0.279 C 
BRANCH   8  12
ATOM      9  O   UNL     1      33.881 -24.491 -12.700  0.00  0.00    -0.274 OA
ATOM     10  N   UNL     1      34.421 -23.482 -14.742  0.00  0.00    -0.232 N 
ATOM     11  N   UNL     1      32.736 -23.182 -16.393  0.00  0.00    -0.391 NA
ATOM     12  C   UNL     1      33.962 -23.057 -15.987  0.00  0.00    +0.210 C 
ATOM     13  C   UNL     1      32.160 -24.240 -14.261  0.00  0.00    +0.151 C 
ATOM     14  C   UNL     1      31.807 -23.780 -15.532  0.00  0.00    +0.123 C 
ATOM     15  C   UNL     1      33.561 -24.090 -13.815  0.00  0.00    +0.241 C 
ATOM     16  C   UNL     1      35.822 -23.305 -14.360  0.00  0.00    +0.122 C 
ATOM     17  C   UNL     1      31.207 -24.833 -13.425  0.00  0.00    -0.010 C 
ATOM     18  C   UNL     1      30.481 -23.921 -15.958  0.00  0.00    +0.028 C 
ATOM     19  C   UNL     1      29.890 -24.966 -13.862  0.00  0.00    -0.004 C 
ATOM     20  C   UNL     1      29.527 -24.510 -15.128  0.00  0.00    +0.002 C 
ENDBRANCH   8  12
ENDBRANCH   7   8
ENDBRANCH   4   7
BRANCH   1  21
ATOM     21  C   UNL     1      33.826 -18.938 -22.200  0.00  0.00    +0.047 C 
BRANCH  21  26
ATOM     22  S   UNL     1      34.660 -16.705 -20.806  0.00  0.00    -0.048 S 
ATOM     23  O   UNL     1      34.936 -17.470 -24.579  0.00  0.00    -0.274 OA
ATOM     24  O   UNL     1      34.438 -14.154 -21.402  0.00  0.00    -0.263 OA
ATOM     25  N   UNL     1      34.695 -15.673 -23.142  0.00  0.00    -0.246 N 
ATOM     26  C   UNL     1      34.905 -17.857 -22.192  0.00  0.00    +0.137 C 
ATOM     27  C   UNL     1      34.849 -17.010 -23.445  0.00  0.00    +0.239 C 
ATOM     28  C   UNL     1      34.580 -15.289 -21.832  0.00  0.00    +0.279 C 
ATOM     29  H   UNL     1      34.668 -15.002 -23.862  0.00  0.00    +0.158 HD
ENDBRANCH  21  26
ENDBRANCH   1  21
TORSDOF 5
ENDMDL
MODEL 6
REMARK VINA RESULT:     -12.0      3.645     10.860
REMARK  Name = 9889200
REMARK  5 active torsions:
REMARK  status: ('A' for Active; 'I' for Inactive)
REMARK    1  A    between atoms: C_1  and  C_21
REMARK    2  A    between atoms: C_4  and  O_7
REMARK    3  A    between atoms: O_7  and  C_8
REMARK    4  A    between atoms: C_8  and  C_12
REMARK    5  A    between atoms: C_21  and  C_26
REMARK                            x       y       z     vdW  Elec       q    Type
REMARK                         _______ _______ _______ _____ _____    ______ ____
ROOT
ATOM      1  C   UNL     1      33.598 -22.202 -18.946  0.00  0.00    -0.021 C 
ATOM      2  C   UNL     1      34.967 -22.014 -19.132  0.00  0.00    -0.001 C 
ATOM      3  C   UNL     1      32.685 -21.371 -19.594  0.00  0.00    -0.001 C 
ATOM      4  C   UNL     1      34.507 -20.170 -20.605  0.00  0.00    +0.139 C 
ATOM      5  C   UNL     1      35.424 -20.992 -19.965  0.00  0.00    +0.037 C 
ATOM      6  C   UNL     1      33.141 -20.350 -20.428  0.00  0.00    +0.037 C 
ENDROOT
BRANCH   4   7
ATOM      7  O   UNL     1      34.957 -19.165 -21.428  0.00  0.00    -0.466 OA
BRANCH   7   8
ATOM      8  C   UNL     1      34.841 -19.369 -22.819  0.00  0.00    +0.279 C 
BRANCH   8  12
ATOM      9  O   UNL     1      33.237 -16.907 -26.655  0.00  0.00    -0.274 OA
ATOM     10  N   UNL     1      34.014 -18.119 -24.809  0.00  0.00    -0.232 N 
ATOM     11  N   UNL     1      34.514 -16.987 -22.778  0.00  0.00    -0.391 NA
ATOM     12  C   UNL     1      34.439 -18.074 -23.483  0.00  0.00    +0.210 C 
ATOM     13  C   UNL     1      33.703 -15.708 -24.703  0.00  0.00    +0.151 C 
ATOM     14  C   UNL     1      34.145 -15.777 -23.379  0.00  0.00    +0.123 C 
ATOM     15  C   UNL     1      33.624 -16.956 -25.491  0.00  0.00    +0.241 C 
ATOM     16  C   UNL     1      33.959 -19.387 -25.536  0.00  0.00    +0.122 C 
ATOM     17  C   UNL     1      33.342 -14.483 -25.273  0.00  0.00    -0.010 C 
ATOM     18  C   UNL     1      34.221 -14.598 -22.630  0.00  0.00    +0.028 C 
ATOM     19  C   UNL     1      33.422 -13.316 -24.515  0.00  0.00    -0.004 C 
ATOM     20  C   UNL     1      33.861 -13.374 -23.194  0.00  0.00    +0.002 C 
ENDBRANCH   8  12
ENDBRANCH   7   8
ENDBRANCH   4   7
BRANCH   1  21
ATOM     21  C   UNL     1      33.110 -23.293 -18.055  0.00  0.00    +0.047 C 
BRANCH  21  26
ATOM     22  S   UNL     1      33.578 -23.639 -15.356  0.00  0.00    -0.048 S 
ATOM     23  O   UNL     1      30.321 -22.620 -17.157  0.00  0.00    -0.274 OA
ATOM     24  O   UNL     1      32.119 -24.831 -13.522  0.00  0.00    -0.263 OA
ATOM     25  N   UNL     1      31.028 -23.758 -15.272  0.00  0.00    -0.246 N 
ATOM     26  C   UNL     1      32.686 -22.773 -16.683  0.00  0.00    +0.137 C 
ATOM     27  C   UNL     1      31.217 -23.025 -16.425  0.00  0.00    +0.239 C 
ATOM     28  C   UNL     1      32.118 -24.178 -14.555  0.00  0.00    +0.279 C 
ATOM     29  H   UNL     1      30.118 -23.975 -14.966  0.00  0.00    +0.158 HD
ENDBRANCH  21  26
ENDBRANCH   1  21
TORSDOF 5
ENDMDL
MODEL 7
REMARK VINA RESULT:     -11.7      4.641     12.622
REMARK  Name = 9889200
REMARK  5 active torsions:
REMARK  status: ('A' for Active; 'I' for Inactive)
REMARK    1  A    between atoms: C_1  and  C_21
REMARK    2  A    between atoms: C_4  and  O_7
REMARK    3  A    between atoms: O_7  and  C_8
REMARK    4  A    between atoms: C_8  and  C_12
REMARK    5  A    between atoms: C_21  and  C_26
REMARK                            x       y       z     vdW  Elec       q    Type
REMARK                         _______ _______ _______ _____ _____    ______ ____
ROOT
ATOM      1  C   UNL     1      34.736 -18.484 -22.078  0.00  0.00    -0.021 C 
ATOM      2  C   UNL     1      34.893 -17.492 -21.110  0.00  0.00    -0.001 C 
ATOM      3  C   UNL     1      34.507 -18.131 -23.408  0.00  0.00    -0.001 C 
ATOM      4  C   UNL     1      34.590 -15.806 -22.797  0.00  0.00    +0.139 C 
ATOM      5  C   UNL     1      34.818 -16.146 -21.471  0.00  0.00    +0.037 C 
ATOM      6  C   UNL     1      34.434 -16.786 -23.769  0.00  0.00    +0.037 C 
ENDROOT
BRANCH   4   7
ATOM      7  O   UNL     1      34.519 -14.481 -23.154  0.00  0.00    -0.466 OA
BRANCH   7   8
ATOM      8  C   UNL     1      33.246 -13.968 -23.484  0.00  0.00    +0.279 C 
BRANCH   8  12
ATOM      9  O   UNL     1      31.859  -9.467 -22.405  0.00  0.00    -0.274 OA
ATOM     10  N   UNL     1      32.515 -11.656 -22.913  0.00  0.00    -0.232 N 
ATOM     11  N   UNL     1      34.194 -12.035 -24.553  0.00  0.00    -0.391 NA
ATOM     12  C   UNL     1      33.342 -12.474 -23.679  0.00  0.00    +0.210 C 
ATOM     13  C   UNL     1      33.515  -9.741 -24.032  0.00  0.00    +0.151 C 
ATOM     14  C   UNL     1      34.296 -10.652 -24.747  0.00  0.00    +0.123 C 
ATOM     15  C   UNL     1      32.550 -10.259 -23.039  0.00  0.00    +0.241 C 
ATOM     16  C   UNL     1      31.579 -12.231 -21.946  0.00  0.00    +0.122 C 
ATOM     17  C   UNL     1      33.642  -8.365 -24.249  0.00  0.00    -0.010 C 
ATOM     18  C   UNL     1      35.211 -10.165 -25.687  0.00  0.00    +0.028 C 
ATOM     19  C   UNL     1      34.558  -7.894 -25.188  0.00  0.00    -0.004 C 
ATOM     20  C   UNL     1      35.342  -8.794 -25.907  0.00  0.00    +0.002 C 
ENDBRANCH   8  12
ENDBRANCH   7   8
ENDBRANCH   4   7
BRANCH   1  21
ATOM     21  C   UNL     1      34.814 -19.922 -21.692  0.00  0.00    +0.047 C 
BRANCH  21  26
ATOM     22  S   UNL     1      35.023 -21.550 -19.471  0.00  0.00    -0.048 S 
ATOM     23  O   UNL     1      31.878 -19.965 -21.048  0.00  0.00    -0.274 OA
ATOM     24  O   UNL     1      33.544 -23.590 -18.721  0.00  0.00    -0.263 OA
ATOM     25  N   UNL     1      32.519 -21.852 -19.873  0.00  0.00    -0.246 N 
ATOM     26  C   UNL     1      34.175 -20.190 -20.331  0.00  0.00    +0.137 C 
ATOM     27  C   UNL     1      32.734 -20.628 -20.473  0.00  0.00    +0.239 C 
ATOM     28  C   UNL     1      33.570 -22.507 -19.287  0.00  0.00    +0.279 C 
ATOM     29  H   UNL     1      31.618 -22.249 -19.866  0.00  0.00    +0.158 HD
ENDBRANCH  21  26
ENDBRANCH   1  21
TORSDOF 5
ENDMDL
MODEL 8
REMARK VINA RESULT:     -11.6      4.594     12.907
REMARK  Name = 9889200
REMARK  5 active torsions:
REMARK  status: ('A' for Active; 'I' for Inactive)
REMARK    1  A    between atoms: C_1  and  C_21
REMARK    2  A    between atoms: C_4  and  O_7
REMARK    3  A    between atoms: O_7  and  C_8
REMARK    4  A    between atoms: C_8  and  C_12
REMARK    5  A    between atoms: C_21  and  C_26
REMARK                            x       y       z     vdW  Elec       q    Type
REMARK                         _______ _______ _______ _____ _____    ______ ____
ROOT
ATOM      1  C   UNL     1      34.795 -18.617 -22.046  0.00  0.00    -0.021 C 
ATOM      2  C   UNL     1      34.850 -17.621 -21.071  0.00  0.00    -0.001 C 
ATOM      3  C   UNL     1      34.701 -18.270 -23.394  0.00  0.00    -0.001 C 
ATOM      4  C   UNL     1      34.716 -15.942 -22.788  0.00  0.00    +0.139 C 
ATOM      5  C   UNL     1      34.810 -16.277 -21.444  0.00  0.00    +0.037 C 
ATOM      6  C   UNL     1      34.662 -16.926 -23.767  0.00  0.00    +0.037 C 
ENDROOT
BRANCH   4   7
ATOM      7  O   UNL     1      34.678 -14.618 -23.155  0.00  0.00    -0.466 OA
BRANCH   7   8
ATOM      8  C   UNL     1      33.436 -14.101 -23.578  0.00  0.00    +0.279 C 
BRANCH   8  12
ATOM      9  O   UNL     1      33.323 -11.975 -27.916  0.00  0.00    -0.274 OA
ATOM     10  N   UNL     1      33.370 -13.025 -25.824  0.00  0.00    -0.232 N 
ATOM     11  N   UNL     1      34.137 -11.827 -23.919  0.00  0.00    -0.391 NA
ATOM     12  C   UNL     1      33.669 -12.904 -24.469  0.00  0.00    +0.210 C 
ATOM     13  C   UNL     1      34.093 -10.718 -26.102  0.00  0.00    +0.151 C 
ATOM     14  C   UNL     1      34.359 -10.707 -24.731  0.00  0.00    +0.123 C 
ATOM     15  C   UNL     1      33.560 -11.955 -26.712  0.00  0.00    +0.241 C 
ATOM     16  C   UNL     1      32.845 -14.278 -26.368  0.00  0.00    +0.122 C 
ATOM     17  C   UNL     1      34.326  -9.583 -26.885  0.00  0.00    -0.010 C 
ATOM     18  C   UNL     1      34.864  -9.539 -24.150  0.00  0.00    +0.028 C 
ATOM     19  C   UNL     1      34.828  -8.425 -26.293  0.00  0.00    -0.004 C 
ATOM     20  C   UNL     1      35.097  -8.403 -24.926  0.00  0.00    +0.002 C 
ENDBRANCH   8  12
ENDBRANCH   7   8
ENDBRANCH   4   7
BRANCH   1  21
ATOM     21  C   UNL     1      34.837 -20.053 -21.648  0.00  0.00    +0.047 C 
BRANCH  21  26
ATOM     22  S   UNL     1      35.000 -21.673 -19.418  0.00  0.00    -0.048 S 
ATOM     23  O   UNL     1      31.901 -20.005 -21.001  0.00  0.00    -0.274 OA
ATOM     24  O   UNL     1      33.462 -23.664 -18.654  0.00  0.00    -0.263 OA
ATOM     25  N   UNL     1      32.487 -21.903 -19.816  0.00  0.00    -0.246 N 
ATOM     26  C   UNL     1      34.192 -20.294 -20.285  0.00  0.00    +0.137 C 
ATOM     27  C   UNL     1      32.738 -20.689 -20.423  0.00  0.00    +0.239 C 
ATOM     28  C   UNL     1      33.518 -22.586 -19.227  0.00  0.00    +0.279 C 
ATOM     29  H   UNL     1      31.575 -22.273 -19.806  0.00  0.00    +0.158 HD
ENDBRANCH  21  26
ENDBRANCH   1  21
TORSDOF 5
ENDMDL
MODEL 9
REMARK VINA RESULT:     -11.5      2.594     11.149
REMARK  Name = 9889200
REMARK  5 active torsions:
REMARK  status: ('A' for Active; 'I' for Inactive)
REMARK    1  A    between atoms: C_1  and  C_21
REMARK    2  A    between atoms: C_4  and  O_7
REMARK    3  A    between atoms: O_7  and  C_8
REMARK    4  A    between atoms: C_8  and  C_12
REMARK    5  A    between atoms: C_21  and  C_26
REMARK                            x       y       z     vdW  Elec       q    Type
REMARK                         _______ _______ _______ _____ _____    ______ ____
ROOT
ATOM      1  C   UNL     1      34.303 -21.827 -19.134  0.00  0.00    -0.021 C 
ATOM      2  C   UNL     1      35.360 -21.235 -19.824  0.00  0.00    -0.001 C 
ATOM      3  C   UNL     1      32.990 -21.446 -19.410  0.00  0.00    -0.001 C 
ATOM      4  C   UNL     1      33.795 -19.889 -21.057  0.00  0.00    +0.139 C 
ATOM      5  C   UNL     1      35.105 -20.261 -20.790  0.00  0.00    +0.037 C 
ATOM      6  C   UNL     1      32.734 -20.473 -20.376  0.00  0.00    +0.037 C 
ENDROOT
BRANCH   4   7
ATOM      7  O   UNL     1      33.543 -18.931 -22.009  0.00  0.00    -0.466 OA
BRANCH   7   8
ATOM      8  C   UNL     1      34.605 -18.583 -22.871  0.00  0.00    +0.279 C 
BRANCH   8  12
ATOM      9  O   UNL     1      33.055 -16.688 -27.037  0.00  0.00    -0.274 OA
ATOM     10  N   UNL     1      33.806 -17.627 -25.029  0.00  0.00    -0.232 N 
ATOM     11  N   UNL     1      34.241 -16.224 -23.159  0.00  0.00    -0.391 NA
ATOM     12  C   UNL     1      34.199 -17.397 -23.712  0.00  0.00    +0.210 C 
ATOM     13  C   UNL     1      33.457 -15.230 -25.254  0.00  0.00    +0.151 C 
ATOM     14  C   UNL     1      33.868 -15.112 -23.925  0.00  0.00    +0.123 C 
ATOM     15  C   UNL     1      33.415 -16.573 -25.869  0.00  0.00    +0.241 C 
ATOM     16  C   UNL     1      33.787 -18.982 -25.579  0.00  0.00    +0.122 C 
ATOM     17  C   UNL     1      33.090 -14.099 -25.992  0.00  0.00    -0.010 C 
ATOM     18  C   UNL     1      33.909 -13.842 -23.339  0.00  0.00    +0.028 C 
ATOM     19  C   UNL     1      33.135 -12.840 -25.396  0.00  0.00    -0.004 C 
ATOM     20  C   UNL     1      33.544 -12.711 -24.070  0.00  0.00    +0.002 C 
ENDBRANCH   8  12
ENDBRANCH   7   8
ENDBRANCH   4   7
BRANCH   1  21
ATOM     21  C   UNL     1      34.576 -22.867 -18.101  0.00  0.00    +0.047 C 
BRANCH  21  26
ATOM     22  S   UNL     1      36.747 -22.236 -16.516  0.00  0.00    -0.048 S 
ATOM     23  O   UNL     1      33.197 -23.333 -15.470  0.00  0.00    -0.274 OA
ATOM     24  O   UNL     1      37.683 -23.433 -14.370  0.00  0.00    -0.263 OA
ATOM     25  N   UNL     1      35.389 -23.481 -14.746  0.00  0.00    -0.246 N 
ATOM     26  C   UNL     1      34.943 -22.257 -16.750  0.00  0.00    +0.137 C 
ATOM     27  C   UNL     1      34.389 -23.075 -15.605  0.00  0.00    +0.239 C 
ATOM     28  C   UNL     1      36.690 -23.151 -15.025  0.00  0.00    +0.279 C 
ATOM     29  H   UNL     1      35.170 -24.001 -13.939  0.00  0.00    +0.158 HD
ENDBRANCH  21  26
ENDBRANCH   1  21
TORSDOF 5
ENDMDL
