MODEL 1
REMARK VINA RESULT:     -11.7      0.000      0.000
REMARK  Name = 2765355
REMARK  2 active torsions:
REMARK  status: ('A' for Active; 'I' for Inactive)
REMARK    1  A    between atoms: C_4  and  C_20
REMARK    2  A    between atoms: C_6  and  C_13
REMARK                            x       y       z     vdW  Elec       q    Type
REMARK                         _______ _______ _______ _____ _____    ______ ____
ROOT
ATOM      1  O   UNL     1      35.495 -22.225 -16.432  0.00  0.00    -0.353 OA
ATOM      2  N   UNL     1      35.547 -22.952 -15.251  0.00  0.00    -0.077 NA
ATOM      3  C   UNL     1      33.403 -22.720 -15.941  0.00  0.00    +0.058 A 
ATOM      4  C   UNL     1      34.206 -22.089 -16.841  0.00  0.00    +0.177 A 
ATOM      5  C   UNL     1      34.278 -23.265 -14.934  0.00  0.00    +0.123 A 
ATOM      6  C   UNL     1      31.523 -23.540 -14.899  0.00  0.00    +0.031 C 
ATOM      7  C   UNL     1      32.021 -22.812 -15.997  0.00  0.00    +0.007 C 
ATOM      8  C   UNL     1      33.757 -23.987 -13.847  0.00  0.00    +0.023 C 
ATOM      9  C   UNL     1      32.348 -24.101 -13.872  0.00  0.00    +0.004 C 
ENDROOT
BRANCH   6  13
ATOM     10  N   UNL     1      29.354 -22.933 -15.595  0.00  0.00    -0.338 NA
ATOM     11  N   UNL     1      27.381 -23.996 -14.710  0.00  0.00    -0.170 NA
ATOM     12  N   UNL     1      27.215 -22.294 -16.318  0.00  0.00    -0.293 N 
ATOM     13  C   UNL     1      30.089 -23.734 -14.800  0.00  0.00    +0.146 C 
ATOM     14  C   UNL     1      29.560 -24.675 -13.947  0.00  0.00    +0.055 C 
ATOM     15  C   UNL     1      28.182 -24.763 -13.943  0.00  0.00    +0.114 C 
ATOM     16  C   UNL     1      28.024 -23.115 -15.500  0.00  0.00    +0.141 C 
ATOM     17  H   UNL     1      27.632 -21.632 -16.916  0.00  0.00    +0.155 HD
ATOM     18  H   UNL     1      26.236 -22.384 -16.290  0.00  0.00    +0.155 HD
ENDBRANCH   6  13
BRANCH   4  20
ATOM     19 CL   UNL     1      33.436 -19.023 -21.886  0.00  0.00    -0.082 Cl
ATOM     20  C   UNL     1      34.021 -21.351 -18.058  0.00  0.00    +0.037 C 
ATOM     21  C   UNL     1      35.127 -20.879 -18.771  0.00  0.00    +0.004 C 
ATOM     22  C   UNL     1      32.733 -21.096 -18.538  0.00  0.00    +0.004 C 
ATOM     23  C   UNL     1      34.947 -20.161 -19.954  0.00  0.00    +0.011 C 
ATOM     24  C   UNL     1      32.552 -20.378 -19.720  0.00  0.00    +0.011 C 
ATOM     25  C   UNL     1      33.659 -19.909 -20.428  0.00  0.00    +0.058 C 
ENDBRANCH   4  20
TORSDOF 2
ENDMDL
MODEL 2
REMARK VINA RESULT:     -11.6      2.045      5.223
REMARK  Name = 2765355
REMARK  2 active torsions:
REMARK  status: ('A' for Active; 'I' for Inactive)
REMARK    1  A    between atoms: C_4  and  C_20
REMARK    2  A    between atoms: C_6  and  C_13
REMARK                            x       y       z     vdW  Elec       q    Type
REMARK                         _______ _______ _______ _____ _____    ______ ____
ROOT
ATOM      1  O   UNL     1      30.750 -22.332 -16.890  0.00  0.00    -0.353 OA
ATOM      2  N   UNL     1      30.283 -23.007 -15.769  0.00  0.00    -0.077 NA
ATOM      3  C   UNL     1      32.536 -22.799 -15.684  0.00  0.00    +0.058 A 
ATOM      4  C   UNL     1      32.102 -22.211 -16.833  0.00  0.00    +0.177 A 
ATOM      5  C   UNL     1      31.361 -23.299 -15.019  0.00  0.00    +0.123 A 
ATOM      6  C   UNL     1      33.929 -23.562 -14.019  0.00  0.00    +0.031 C 
ATOM      7  C   UNL     1      33.852 -22.888 -15.254  0.00  0.00    +0.007 C 
ATOM      8  C   UNL     1      31.464 -23.970 -13.788  0.00  0.00    +0.023 C 
ATOM      9  C   UNL     1      32.793 -24.079 -13.319  0.00  0.00    +0.004 C 
ENDROOT
BRANCH   6  13
ATOM     10  N   UNL     1      36.170 -24.256 -14.246  0.00  0.00    -0.338 NA
ATOM     11  N   UNL     1      37.739 -24.136 -12.420  0.00  0.00    -0.170 NA
ATOM     12  N   UNL     1      38.393 -24.959 -14.519  0.00  0.00    -0.293 N 
ATOM     13  C   UNL     1      35.238 -23.744 -13.421  0.00  0.00    +0.146 C 
ATOM     14  C   UNL     1      35.467 -23.407 -12.106  0.00  0.00    +0.055 C 
ATOM     15  C   UNL     1      36.752 -23.627 -11.654  0.00  0.00    +0.114 C 
ATOM     16  C   UNL     1      37.384 -24.424 -13.687  0.00  0.00    +0.141 C 
ATOM     17  H   UNL     1      38.189 -25.188 -15.455  0.00  0.00    +0.155 HD
ATOM     18  H   UNL     1      39.298 -25.103 -14.162  0.00  0.00    +0.155 HD
ENDBRANCH   6  13
BRANCH   4  20
ATOM     19 CL   UNL     1      34.606 -19.377 -21.430  0.00  0.00    -0.082 Cl
ATOM     20  C   UNL     1      32.706 -21.529 -17.942  0.00  0.00    +0.037 C 
ATOM     21  C   UNL     1      34.085 -21.616 -18.157  0.00  0.00    +0.004 C 
ATOM     22  C   UNL     1      31.920 -20.770 -18.815  0.00  0.00    +0.004 C 
ATOM     23  C   UNL     1      34.672 -20.952 -19.235  0.00  0.00    +0.011 C 
ATOM     24  C   UNL     1      32.507 -20.106 -19.892  0.00  0.00    +0.011 C 
ATOM     25  C   UNL     1      33.883 -20.196 -20.102  0.00  0.00    +0.058 C 
ENDBRANCH   4  20
TORSDOF 2
ENDMDL
MODEL 3
REMARK VINA RESULT:     -11.4      2.215      5.175
REMARK  Name = 2765355
REMARK  2 active torsions:
REMARK  status: ('A' for Active; 'I' for Inactive)
REMARK    1  A    between atoms: C_4  and  C_20
REMARK    2  A    between atoms: C_6  and  C_13
REMARK                            x       y       z     vdW  Elec       q    Type
REMARK                         _______ _______ _______ _____ _____    ______ ____
ROOT
ATOM      1  O   UNL     1      30.683 -22.282 -16.913  0.00  0.00    -0.353 OA
ATOM      2  N   UNL     1      30.213 -22.961 -15.797  0.00  0.00    -0.077 NA
ATOM      3  C   UNL     1      32.471 -22.803 -15.733  0.00  0.00    +0.058 A 
ATOM      4  C   UNL     1      32.037 -22.190 -16.869  0.00  0.00    +0.177 A 
ATOM      5  C   UNL     1      31.292 -23.287 -15.062  0.00  0.00    +0.123 A 
ATOM      6  C   UNL     1      33.864 -23.618 -14.094  0.00  0.00    +0.031 C 
ATOM      7  C   UNL     1      33.788 -22.925 -15.319  0.00  0.00    +0.007 C 
ATOM      8  C   UNL     1      31.394 -23.977 -13.842  0.00  0.00    +0.023 C 
ATOM      9  C   UNL     1      32.725 -24.120 -13.388  0.00  0.00    +0.004 C 
ENDROOT
BRANCH   6  13
ATOM     10  N   UNL     1      35.356 -23.280 -12.300  0.00  0.00    -0.338 NA
ATOM     11  N   UNL     1      37.595 -24.171 -12.311  0.00  0.00    -0.170 NA
ATOM     12  N   UNL     1      36.807 -22.916 -10.491  0.00  0.00    -0.293 N 
ATOM     13  C   UNL     1      35.175 -23.836 -13.513  0.00  0.00    +0.146 C 
ATOM     14  C   UNL     1      36.134 -24.562 -14.183  0.00  0.00    +0.055 C 
ATOM     15  C   UNL     1      37.340 -24.699 -13.526  0.00  0.00    +0.114 C 
ATOM     16  C   UNL     1      36.574 -23.484 -11.764  0.00  0.00    +0.141 C 
ATOM     17  H   UNL     1      36.095 -22.403 -10.044  0.00  0.00    +0.155 HD
ATOM     18  H   UNL     1      37.679 -23.034 -10.052  0.00  0.00    +0.155 HD
ENDBRANCH   6  13
BRANCH   4  20
ATOM     19 CL   UNL     1      34.552 -19.346 -21.455  0.00  0.00    -0.082 Cl
ATOM     20  C   UNL     1      32.644 -21.506 -17.976  0.00  0.00    +0.037 C 
ATOM     21  C   UNL     1      34.021 -21.605 -18.197  0.00  0.00    +0.004 C 
ATOM     22  C   UNL     1      31.862 -20.732 -18.839  0.00  0.00    +0.004 C 
ATOM     23  C   UNL     1      34.611 -20.940 -19.272  0.00  0.00    +0.011 C 
ATOM     24  C   UNL     1      32.452 -20.066 -19.914  0.00  0.00    +0.011 C 
ATOM     25  C   UNL     1      33.825 -20.169 -20.130  0.00  0.00    +0.058 C 
ENDBRANCH   4  20
TORSDOF 2
ENDMDL
MODEL 4
REMARK VINA RESULT:     -10.3      3.915      6.873
REMARK  Name = 2765355
REMARK  2 active torsions:
REMARK  status: ('A' for Active; 'I' for Inactive)
REMARK    1  A    between atoms: C_4  and  C_20
REMARK    2  A    between atoms: C_6  and  C_13
REMARK                            x       y       z     vdW  Elec       q    Type
REMARK                         _______ _______ _______ _____ _____    ______ ____
ROOT
ATOM      1  O   UNL     1      34.448 -23.806 -13.445  0.00  0.00    -0.353 OA
ATOM      2  N   UNL     1      35.759 -23.424 -13.696  0.00  0.00    -0.077 NA
ATOM      3  C   UNL     1      34.393 -22.694 -15.348  0.00  0.00    +0.058 A 
ATOM      4  C   UNL     1      33.633 -23.366 -14.439  0.00  0.00    +0.177 A 
ATOM      5  C   UNL     1      35.746 -22.741 -14.855  0.00  0.00    +0.123 A 
ATOM      6  C   UNL     1      35.003 -21.485 -17.207  0.00  0.00    +0.031 C 
ATOM      7  C   UNL     1      33.939 -22.089 -16.510  0.00  0.00    +0.007 C 
ATOM      8  C   UNL     1      36.791 -22.132 -15.570  0.00  0.00    +0.023 C 
ATOM      9  C   UNL     1      36.364 -21.504 -16.762  0.00  0.00    +0.004 C 
ENDROOT
BRANCH   6  13
ATOM     10  N   UNL     1      35.729 -20.102 -18.973  0.00  0.00    -0.338 NA
ATOM     11  N   UNL     1      34.274 -19.475 -20.789  0.00  0.00    -0.170 NA
ATOM     12  N   UNL     1      36.496 -18.722 -20.710  0.00  0.00    -0.293 N 
ATOM     13  C   UNL     1      34.705 -20.803 -18.452  0.00  0.00    +0.146 C 
ATOM     14  C   UNL     1      33.456 -20.891 -19.024  0.00  0.00    +0.055 C 
ATOM     15  C   UNL     1      33.296 -20.198 -20.207  0.00  0.00    +0.114 C 
ATOM     16  C   UNL     1      35.448 -19.470 -20.128  0.00  0.00    +0.141 C 
ATOM     17  H   UNL     1      37.376 -18.684 -20.270  0.00  0.00    +0.155 HD
ATOM     18  H   UNL     1      36.346 -18.240 -21.554  0.00  0.00    +0.155 HD
ENDBRANCH   6  13
BRANCH   4  20
ATOM     19 CL   UNL     1      27.877 -24.762 -13.836  0.00  0.00    -0.082 Cl
ATOM     20  C   UNL     1      32.245 -23.702 -14.293  0.00  0.00    +0.037 C 
ATOM     21  C   UNL     1      31.825 -24.516 -13.237  0.00  0.00    +0.004 C 
ATOM     22  C   UNL     1      31.304 -23.219 -15.206  0.00  0.00    +0.004 C 
ATOM     23  C   UNL     1      30.476 -24.843 -13.095  0.00  0.00    +0.011 C 
ATOM     24  C   UNL     1      29.955 -23.545 -15.065  0.00  0.00    +0.011 C 
ATOM     25  C   UNL     1      29.541 -24.358 -14.010  0.00  0.00    +0.058 C 
ENDBRANCH   4  20
TORSDOF 2
ENDMDL
MODEL 5
REMARK VINA RESULT:     -10.1      3.969      6.580
REMARK  Name = 2765355
REMARK  2 active torsions:
REMARK  status: ('A' for Active; 'I' for Inactive)
REMARK    1  A    between atoms: C_4  and  C_20
REMARK    2  A    between atoms: C_6  and  C_13
REMARK                            x       y       z     vdW  Elec       q    Type
REMARK                         _______ _______ _______ _____ _____    ______ ____
ROOT
ATOM      1  O   UNL     1      32.898 -24.740 -12.826  0.00  0.00    -0.353 OA
ATOM      2  N   UNL     1      31.610 -24.335 -13.148  0.00  0.00    -0.077 NA
ATOM      3  C   UNL     1      33.082 -23.602 -14.705  0.00  0.00    +0.058 A 
ATOM      4  C   UNL     1      33.777 -24.297 -13.763  0.00  0.00    +0.177 A 
ATOM      5  C   UNL     1      31.702 -23.639 -14.296  0.00  0.00    +0.123 A 
ATOM      6  C   UNL     1      32.600 -22.363 -16.582  0.00  0.00    +0.031 C 
ATOM      7  C   UNL     1      33.613 -22.989 -15.830  0.00  0.00    +0.007 C 
ATOM      8  C   UNL     1      30.709 -23.005 -15.063  0.00  0.00    +0.023 C 
ATOM      9  C   UNL     1      31.215 -22.368 -16.219  0.00  0.00    +0.004 C 
ENDROOT
BRANCH   6  13
ATOM     10  N   UNL     1      31.960 -21.120 -18.481  0.00  0.00    -0.338 NA
ATOM     11  N   UNL     1      33.564 -20.340 -20.101  0.00  0.00    -0.170 NA
ATOM     12  N   UNL     1      31.275 -19.886 -20.356  0.00  0.00    -0.293 N 
ATOM     13  C   UNL     1      32.982 -21.670 -17.798  0.00  0.00    +0.146 C 
ATOM     14  C   UNL     1      34.300 -21.603 -18.189  0.00  0.00    +0.055 C 
ATOM     15  C   UNL     1      34.535 -20.917 -19.363  0.00  0.00    +0.114 C 
ATOM     16  C   UNL     1      32.318 -20.478 -19.609  0.00  0.00    +0.141 C 
ATOM     17  H   UNL     1      30.344 -19.956 -20.042  0.00  0.00    +0.155 HD
ATOM     18  H   UNL     1      31.480 -19.404 -21.189  0.00  0.00    +0.155 HD
ENDBRANCH   6  13
BRANCH   4  20
ATOM     19 CL   UNL     1      39.469 -25.774 -12.834  0.00  0.00    -0.082 Cl
ATOM     20  C   UNL     1      35.149 -24.654 -13.538  0.00  0.00    +0.037 C 
ATOM     21  C   UNL     1      35.926 -23.928 -12.630  0.00  0.00    +0.004 C 
ATOM     22  C   UNL     1      35.720 -25.728 -14.227  0.00  0.00    +0.004 C 
ATOM     23  C   UNL     1      37.260 -24.275 -12.411  0.00  0.00    +0.011 C 
ATOM     24  C   UNL     1      37.053 -26.075 -14.009  0.00  0.00    +0.011 C 
ATOM     25  C   UNL     1      37.824 -25.348 -13.102  0.00  0.00    +0.058 C 
ENDBRANCH   4  20
TORSDOF 2
ENDMDL
MODEL 6
REMARK VINA RESULT:     -10.0     11.137     14.052
REMARK  Name = 2765355
REMARK  2 active torsions:
REMARK  status: ('A' for Active; 'I' for Inactive)
REMARK    1  A    between atoms: C_4  and  C_20
REMARK    2  A    between atoms: C_6  and  C_13
REMARK                            x       y       z     vdW  Elec       q    Type
REMARK                         _______ _______ _______ _____ _____    ______ ____
ROOT
ATOM      1  O   UNL     1      31.255  -8.378 -20.832  0.00  0.00    -0.353 OA
ATOM      2  N   UNL     1      30.738  -9.395 -20.041  0.00  0.00    -0.077 NA
ATOM      3  C   UNL     1      31.860 -10.261 -21.806  0.00  0.00    +0.058 A 
ATOM      4  C   UNL     1      31.927  -8.903 -21.890  0.00  0.00    +0.177 A 
ATOM      5  C   UNL     1      31.099 -10.554 -20.619  0.00  0.00    +0.123 A 
ATOM      6  C   UNL     1      32.154 -12.490 -22.294  0.00  0.00    +0.031 C 
ATOM      7  C   UNL     1      32.421 -11.166 -22.695  0.00  0.00    +0.007 C 
ATOM      8  C   UNL     1      30.844 -11.884 -20.242  0.00  0.00    +0.023 C 
ATOM      9  C   UNL     1      31.402 -12.835 -21.126  0.00  0.00    +0.004 C 
ENDROOT
BRANCH   6  13
ATOM     10  N   UNL     1      33.478 -14.433 -22.471  0.00  0.00    -0.338 NA
ATOM     11  N   UNL     1      33.706 -15.643 -24.542  0.00  0.00    -0.170 NA
ATOM     12  N   UNL     1      34.808 -16.362 -22.599  0.00  0.00    -0.293 N 
ATOM     13  C   UNL     1      32.670 -13.570 -23.114  0.00  0.00    +0.146 C 
ATOM     14  C   UNL     1      32.334 -13.667 -24.446  0.00  0.00    +0.055 C 
ATOM     15  C   UNL     1      32.889 -14.737 -25.119  0.00  0.00    +0.114 C 
ATOM     16  C   UNL     1      33.955 -15.433 -23.235  0.00  0.00    +0.141 C 
ATOM     17  H   UNL     1      35.024 -16.258 -21.643  0.00  0.00    +0.155 HD
ATOM     18  H   UNL     1      35.185 -17.113 -23.110  0.00  0.00    +0.155 HD
ENDBRANCH   6  13
BRANCH   4  20
ATOM     19 CL   UNL     1      34.339  -4.931 -25.610  0.00  0.00    -0.082 Cl
ATOM     20  C   UNL     1      32.510  -7.946 -22.787  0.00  0.00    +0.037 C 
ATOM     21  C   UNL     1      33.612  -7.186 -22.387  0.00  0.00    +0.004 C 
ATOM     22  C   UNL     1      31.977  -7.766 -24.067  0.00  0.00    +0.004 C 
ATOM     23  C   UNL     1      34.178  -6.255 -23.258  0.00  0.00    +0.011 C 
ATOM     24  C   UNL     1      32.543  -6.836 -24.939  0.00  0.00    +0.011 C 
ATOM     25  C   UNL     1      33.642  -6.079 -24.535  0.00  0.00    +0.058 C 
ENDBRANCH   4  20
TORSDOF 2
ENDMDL
MODEL 7
REMARK VINA RESULT:      -9.9      3.200      5.103
REMARK  Name = 2765355
REMARK  2 active torsions:
REMARK  status: ('A' for Active; 'I' for Inactive)
REMARK    1  A    between atoms: C_4  and  C_20
REMARK    2  A    between atoms: C_6  and  C_13
REMARK                            x       y       z     vdW  Elec       q    Type
REMARK                         _______ _______ _______ _____ _____    ______ ____
ROOT
ATOM      1  O   UNL     1      35.569 -22.367 -16.393  0.00  0.00    -0.353 OA
ATOM      2  N   UNL     1      34.893 -21.787 -17.457  0.00  0.00    -0.077 NA
ATOM      3  C   UNL     1      33.426 -22.679 -15.981  0.00  0.00    +0.058 A 
ATOM      4  C   UNL     1      34.685 -22.901 -15.511  0.00  0.00    +0.177 A 
ATOM      5  C   UNL     1      33.580 -21.966 -17.223  0.00  0.00    +0.123 A 
ATOM      6  C   UNL     1      31.131 -22.668 -16.141  0.00  0.00    +0.031 C 
ATOM      7  C   UNL     1      32.242 -23.067 -15.372  0.00  0.00    +0.007 C 
ATOM      8  C   UNL     1      32.455 -21.580 -17.972  0.00  0.00    +0.023 C 
ATOM      9  C   UNL     1      31.229 -21.960 -17.380  0.00  0.00    +0.004 C 
ENDROOT
BRANCH   6  13
ATOM     10  N   UNL     1      28.801 -22.320 -16.235  0.00  0.00    -0.338 NA
ATOM     11  N   UNL     1      27.269 -23.517 -14.811  0.00  0.00    -0.170 NA
ATOM     12  N   UNL     1      26.489 -21.938 -16.364  0.00  0.00    -0.293 N 
ATOM     13  C   UNL     1      29.807 -22.995 -15.647  0.00  0.00    +0.146 C 
ATOM     14  C   UNL     1      29.634 -23.932 -14.653  0.00  0.00    +0.055 C 
ATOM     15  C   UNL     1      28.327 -24.154 -14.270  0.00  0.00    +0.114 C 
ATOM     16  C   UNL     1      27.574 -22.625 -15.774  0.00  0.00    +0.141 C 
ATOM     17  H   UNL     1      26.654 -21.275 -17.073  0.00  0.00    +0.155 HD
ATOM     18  H   UNL     1      25.570 -22.123 -16.065  0.00  0.00    +0.155 HD
ENDBRANCH   6  13
BRANCH   4  20
ATOM     19 CL   UNL     1      37.094 -25.527 -10.743  0.00  0.00    -0.082 Cl
ATOM     20  C   UNL     1      35.266 -23.535 -14.362  0.00  0.00    +0.037 C 
ATOM     21  C   UNL     1      35.393 -24.926 -14.313  0.00  0.00    +0.004 C 
ATOM     22  C   UNL     1      35.709 -22.765 -13.282  0.00  0.00    +0.004 C 
ATOM     23  C   UNL     1      35.958 -25.542 -13.196  0.00  0.00    +0.011 C 
ATOM     24  C   UNL     1      36.274 -23.380 -12.165  0.00  0.00    +0.011 C 
ATOM     25  C   UNL     1      36.398 -24.768 -12.121  0.00  0.00    +0.058 C 
ENDBRANCH   4  20
TORSDOF 2
ENDMDL
MODEL 8
REMARK VINA RESULT:      -9.9      7.748     10.671
REMARK  Name = 2765355
REMARK  2 active torsions:
REMARK  status: ('A' for Active; 'I' for Inactive)
REMARK    1  A    between atoms: C_4  and  C_20
REMARK    2  A    between atoms: C_6  and  C_13
REMARK                            x       y       z     vdW  Elec       q    Type
REMARK                         _______ _______ _______ _____ _____    ______ ____
ROOT
ATOM      1  O   UNL     1      34.311 -17.237 -24.177  0.00  0.00    -0.353 OA
ATOM      2  N   UNL     1      33.928 -16.247 -25.072  0.00  0.00    -0.077 NA
ATOM      3  C   UNL     1      33.428 -15.630 -22.952  0.00  0.00    +0.058 A 
ATOM      4  C   UNL     1      34.009 -16.861 -22.906  0.00  0.00    +0.177 A 
ATOM      5  C   UNL     1      33.387 -15.255 -24.342  0.00  0.00    +0.123 A 
ATOM      6  C   UNL     1      32.433 -13.666 -22.286  0.00  0.00    +0.031 C 
ATOM      7  C   UNL     1      32.975 -14.896 -21.866  0.00  0.00    +0.007 C 
ATOM      8  C   UNL     1      32.839 -14.022 -24.736  0.00  0.00    +0.023 C 
ATOM      9  C   UNL     1      32.367 -13.247 -23.653  0.00  0.00    +0.004 C 
ENDROOT
BRANCH   6  13
ATOM     10  N   UNL     1      31.697 -11.507 -21.690  0.00  0.00    -0.338 NA
ATOM     11  N   UNL     1      30.928 -10.984 -19.467  0.00  0.00    -0.170 NA
ATOM     12  N   UNL     1      30.975  -9.341 -21.144  0.00  0.00    -0.293 N 
ATOM     13  C   UNL     1      31.909 -12.769 -21.273  0.00  0.00    +0.146 C 
ATOM     14  C   UNL     1      31.662 -13.214 -19.994  0.00  0.00    +0.055 C 
ATOM     15  C   UNL     1      31.166 -12.266 -19.123  0.00  0.00    +0.114 C 
ATOM     16  C   UNL     1      31.212 -10.677 -20.748  0.00  0.00    +0.141 C 
ATOM     17  H   UNL     1      31.165  -9.062 -22.069  0.00  0.00    +0.155 HD
ATOM     18  H   UNL     1      30.621  -8.692 -20.495  0.00  0.00    +0.155 HD
ENDBRANCH   6  13
BRANCH   4  20
ATOM     19 CL   UNL     1      35.456 -20.789 -18.673  0.00  0.00    -0.082 Cl
ATOM     20  C   UNL     1      34.358 -17.807 -21.885  0.00  0.00    +0.037 C 
ATOM     21  C   UNL     1      35.639 -17.800 -21.326  0.00  0.00    +0.004 C 
ATOM     22  C   UNL     1      33.419 -18.745 -21.443  0.00  0.00    +0.004 C 
ATOM     23  C   UNL     1      35.978 -18.720 -20.333  0.00  0.00    +0.011 C 
ATOM     24  C   UNL     1      33.758 -19.665 -20.451  0.00  0.00    +0.011 C 
ATOM     25  C   UNL     1      35.038 -19.653 -19.896  0.00  0.00    +0.058 C 
ENDBRANCH   4  20
TORSDOF 2
ENDMDL
MODEL 9
REMARK VINA RESULT:      -9.3      8.541     11.513
REMARK  Name = 2765355
REMARK  2 active torsions:
REMARK  status: ('A' for Active; 'I' for Inactive)
REMARK    1  A    between atoms: C_4  and  C_20
REMARK    2  A    between atoms: C_6  and  C_13
REMARK                            x       y       z     vdW  Elec       q    Type
REMARK                         _______ _______ _______ _____ _____    ______ ____
ROOT
ATOM      1  O   UNL     1      33.961 -15.903 -24.786  0.00  0.00    -0.353 OA
ATOM      2  N   UNL     1      33.666 -14.771 -25.533  0.00  0.00    -0.077 NA
ATOM      3  C   UNL     1      33.102 -14.455 -23.363  0.00  0.00    +0.058 A 
ATOM      4  C   UNL     1      33.621 -15.709 -23.486  0.00  0.00    +0.177 A 
ATOM      5  C   UNL     1      33.140 -13.873 -24.680  0.00  0.00    +0.123 A 
ATOM      6  C   UNL     1      32.171 -12.564 -22.441  0.00  0.00    +0.031 C 
ATOM      7  C   UNL     1      32.636 -13.871 -22.195  0.00  0.00    +0.007 C 
ATOM      8  C   UNL     1      32.669 -12.567 -24.900  0.00  0.00    +0.023 C 
ATOM      9  C   UNL     1      32.186 -11.940 -23.730  0.00  0.00    +0.004 C 
ENDROOT
BRANCH   6  13
ATOM     10  N   UNL     1      31.568 -10.476 -21.529  0.00  0.00    -0.338 NA
ATOM     11  N   UNL     1      30.677 -10.261 -19.301  0.00  0.00    -0.170 NA
ATOM     12  N   UNL     1      30.983  -8.374 -20.663  0.00  0.00    -0.293 N 
ATOM     13  C   UNL     1      31.646 -11.804 -21.323  0.00  0.00    +0.146 C 
ATOM     14  C   UNL     1      31.268 -12.431 -20.158  0.00  0.00    +0.055 C 
ATOM     15  C   UNL     1      30.784 -11.599 -19.168  0.00  0.00    +0.114 C 
ATOM     16  C   UNL     1      31.081  -9.773 -20.489  0.00  0.00    +0.141 C 
ATOM     17  H   UNL     1      31.264  -7.963 -21.512  0.00  0.00    +0.155 HD
ATOM     18  H   UNL     1      30.633  -7.812 -19.935  0.00  0.00    +0.155 HD
ENDBRANCH   6  13
BRANCH   4  20
ATOM     19 CL   UNL     1      34.688 -20.297 -19.846  0.00  0.00    -0.082 Cl
ATOM     20  C   UNL     1      33.879 -16.815 -22.609  0.00  0.00    +0.037 C 
ATOM     21  C   UNL     1      33.371 -18.083 -22.907  0.00  0.00    +0.004 C 
ATOM     22  C   UNL     1      34.639 -16.633 -21.449  0.00  0.00    +0.004 C 
ATOM     23  C   UNL     1      33.622 -19.159 -22.054  0.00  0.00    +0.011 C 
ATOM     24  C   UNL     1      34.889 -17.708 -20.597  0.00  0.00    +0.011 C 
ATOM     25  C   UNL     1      34.380 -18.971 -20.898  0.00  0.00    +0.058 C 
ENDBRANCH   4  20
TORSDOF 2
ENDMDL
