MODEL 1
REMARK VINA RESULT:     -11.9      0.000      0.000
REMARK  Name = 23586145
REMARK  7 active torsions:
REMARK  status: ('A' for Active; 'I' for Inactive)
REMARK    1  A    between atoms: C_5  and  O_24
REMARK    2  A    between atoms: C_7  and  N_10
REMARK    3  A    between atoms: N_10  and  C_12
REMARK    4  A    between atoms: C_15  and  S_18
REMARK    5  A    between atoms: S_18  and  N_21
REMARK    6  A    between atoms: O_24  and  C_25
REMARK    7  A    between atoms: C_25  and  C_26
REMARK                            x       y       z     vdW  Elec       q    Type
REMARK                         _______ _______ _______ _____ _____    ______ ____
ROOT
ATOM      1  N   UNL     1      31.469 -22.933 -13.597  0.00  0.00    -0.299 NA
ATOM      2  N   UNL     1      30.549 -22.544 -15.785  0.00  0.00    -0.106 N 
ATOM      3  N   UNL     1      29.330 -22.321 -16.343  0.00  0.00    -0.139 NA
ATOM      4  N   UNL     1      29.118 -22.576 -14.090  0.00  0.00    -0.145 NA
ATOM      5  C   UNL     1      32.612 -23.002 -14.198  0.00  0.00    +0.291 C 
ATOM      6  C   UNL     1      32.884 -22.855 -15.644  0.00  0.00    +0.105 C 
ATOM      7  C   UNL     1      31.803 -22.624 -16.409  0.00  0.00    +0.142 C 
ATOM      8  C   UNL     1      30.393 -22.697 -14.402  0.00  0.00    +0.178 C 
ATOM      9  C   UNL     1      28.522 -22.351 -15.288  0.00  0.00    +0.230 C 
ENDROOT
BRANCH   7  10
ATOM     10  N   UNL     1      31.845 -22.459 -17.764  0.00  0.00    -0.299 N 
ATOM     11  H   UNL     1      31.253 -23.046 -18.286  0.00  0.00    +0.153 HD
BRANCH  10  12
ATOM     12  C   UNL     1      32.625 -21.564 -18.506  0.00  0.00    +0.049 C 
ATOM     13  C   UNL     1      34.023 -21.628 -18.454  0.00  0.00    +0.016 C 
ATOM     14  C   UNL     1      32.015 -20.592 -19.310  0.00  0.00    +0.016 C 
ATOM     15  C   UNL     1      34.183 -19.771 -19.991  0.00  0.00    +0.122 C 
ATOM     16  C   UNL     1      34.798 -20.736 -19.193  0.00  0.00    +0.021 C 
ATOM     17  C   UNL     1      32.791 -19.700 -20.050  0.00  0.00    +0.021 C 
BRANCH  15  18
ATOM     18  S   UNL     1      35.154 -18.654 -20.917  0.00  0.00    +0.057 S 
ATOM     19  O   UNL     1      36.538 -18.778 -20.480  0.00  0.00    -0.153 OA
ATOM     20  O   UNL     1      34.824 -18.812 -22.326  0.00  0.00    -0.153 OA
BRANCH  18  21
ATOM     21  N   UNL     1      34.535 -17.158 -20.373  0.00  0.00    -0.203 NA
ATOM     22  H   UNL     1      33.569 -17.057 -20.685  0.00  0.00    +0.144 HD
ATOM     23  H   UNL     1      35.097 -16.398 -20.755  0.00  0.00    +0.144 HD
ENDBRANCH  18  21
ENDBRANCH  15  18
ENDBRANCH  10  12
ENDBRANCH   7  10
BRANCH   5  24
ATOM     24  O   UNL     1      33.719 -23.229 -13.497  0.00  0.00    -0.451 OA
BRANCH  24  25
ATOM     25  C   UNL     1      34.901 -22.672 -14.040  0.00  0.00    +0.208 C 
BRANCH  25  26
ATOM     26  C   UNL     1      36.101 -23.412 -13.450  0.00  0.00    +0.044 C 
ATOM     27  C   UNL     1      36.119 -23.280 -11.920  0.00  0.00    +0.004 C 
ATOM     28  C   UNL     1      36.088 -24.887 -13.870  0.00  0.00    +0.004 C 
ATOM     29  C   UNL     1      37.280 -24.056 -11.302  0.00  0.00    +0.000 C 
ATOM     30  C   UNL     1      37.249 -25.661 -13.248  0.00  0.00    +0.000 C 
ATOM     31  C   UNL     1      37.269 -25.520 -11.730  0.00  0.00    +0.000 C 
ENDBRANCH  25  26
ENDBRANCH  24  25
ENDBRANCH   5  24
TORSDOF 7
ENDMDL
MODEL 2
REMARK VINA RESULT:     -11.7      3.966      7.256
REMARK  Name = 23586145
REMARK  7 active torsions:
REMARK  status: ('A' for Active; 'I' for Inactive)
REMARK    1  A    between atoms: C_5  and  O_24
REMARK    2  A    between atoms: C_7  and  N_10
REMARK    3  A    between atoms: N_10  and  C_12
REMARK    4  A    between atoms: C_15  and  S_18
REMARK    5  A    between atoms: S_18  and  N_21
REMARK    6  A    between atoms: O_24  and  C_25
REMARK    7  A    between atoms: C_25  and  C_26
REMARK                            x       y       z     vdW  Elec       q    Type
REMARK                         _______ _______ _______ _____ _____    ______ ____
ROOT
ATOM      1  N   UNL     1      36.284 -23.339 -12.971  0.00  0.00    -0.299 NA
ATOM      2  N   UNL     1      34.366 -24.053 -11.707  0.00  0.00    -0.106 N 
ATOM      3  N   UNL     1      34.036 -24.264 -10.406  0.00  0.00    -0.139 NA
ATOM      4  N   UNL     1      36.198 -23.564 -10.555  0.00  0.00    -0.145 NA
ATOM      5  C   UNL     1      35.532 -23.494 -14.012  0.00  0.00    +0.291 C 
ATOM      6  C   UNL     1      34.122 -23.939 -14.052  0.00  0.00    +0.105 C 
ATOM      7  C   UNL     1      33.574 -24.212 -12.854  0.00  0.00    +0.142 C 
ATOM      8  C   UNL     1      35.697 -23.624 -11.773  0.00  0.00    +0.178 C 
ATOM      9  C   UNL     1      35.162 -23.957  -9.771  0.00  0.00    +0.230 C 
ENDROOT
BRANCH   7  10
ATOM     10  N   UNL     1      32.288 -24.634 -12.680  0.00  0.00    -0.299 N 
ATOM     11  H   UNL     1      32.155 -25.338 -12.004  0.00  0.00    +0.153 HD
BRANCH  10  12
ATOM     12  C   UNL     1      31.133 -24.198 -13.340  0.00  0.00    +0.049 C 
ATOM     13  C   UNL     1      29.977 -24.988 -13.344  0.00  0.00    +0.016 C 
ATOM     14  C   UNL     1      31.120 -22.965 -14.004  0.00  0.00    +0.016 C 
ATOM     15  C   UNL     1      28.823 -23.323 -14.661  0.00  0.00    +0.122 C 
ATOM     16  C   UNL     1      28.827 -24.552 -14.002  0.00  0.00    +0.021 C 
ATOM     17  C   UNL     1      29.970 -22.529 -14.662  0.00  0.00    +0.021 C 
BRANCH  15  18
ATOM     18  S   UNL     1      27.383 -22.778 -15.485  0.00  0.00    +0.057 S 
ATOM     19  O   UNL     1      26.339 -22.565 -14.492  0.00  0.00    -0.153 OA
ATOM     20  O   UNL     1      27.749 -21.700 -16.392  0.00  0.00    -0.153 OA
BRANCH  18  21
ATOM     21  N   UNL     1      26.993 -24.162 -16.407  0.00  0.00    -0.203 NA
ATOM     22  H   UNL     1      27.537 -24.159 -17.270  0.00  0.00    +0.144 HD
ATOM     23  H   UNL     1      25.999 -24.152 -16.632  0.00  0.00    +0.144 HD
ENDBRANCH  18  21
ENDBRANCH  15  18
ENDBRANCH  10  12
ENDBRANCH   7  10
BRANCH   5  24
ATOM     24  O   UNL     1      36.015 -23.241 -15.225  0.00  0.00    -0.451 OA
BRANCH  24  25
ATOM     25  C   UNL     1      35.793 -21.927 -15.701  0.00  0.00    +0.208 C 
BRANCH  25  26
ATOM     26  C   UNL     1      35.114 -22.016 -17.067  0.00  0.00    +0.044 C 
ATOM     27  C   UNL     1      33.588 -22.072 -16.910  0.00  0.00    +0.004 C 
ATOM     28  C   UNL     1      35.529 -20.836 -17.956  0.00  0.00    +0.004 C 
ATOM     29  C   UNL     1      32.883 -22.109 -18.265  0.00  0.00    +0.000 C 
ATOM     30  C   UNL     1      34.820 -20.874 -19.309  0.00  0.00    +0.000 C 
ATOM     31  C   UNL     1      33.305 -20.939 -19.149  0.00  0.00    +0.000 C 
ENDBRANCH  25  26
ENDBRANCH  24  25
ENDBRANCH   5  24
TORSDOF 7
ENDMDL
MODEL 3
REMARK VINA RESULT:     -11.7      3.450      7.205
REMARK  Name = 23586145
REMARK  7 active torsions:
REMARK  status: ('A' for Active; 'I' for Inactive)
REMARK    1  A    between atoms: C_5  and  O_24
REMARK    2  A    between atoms: C_7  and  N_10
REMARK    3  A    between atoms: N_10  and  C_12
REMARK    4  A    between atoms: C_15  and  S_18
REMARK    5  A    between atoms: S_18  and  N_21
REMARK    6  A    between atoms: O_24  and  C_25
REMARK    7  A    between atoms: C_25  and  C_26
REMARK                            x       y       z     vdW  Elec       q    Type
REMARK                         _______ _______ _______ _____ _____    ______ ____
ROOT
ATOM      1  N   UNL     1      30.586 -23.152 -15.570  0.00  0.00    -0.299 NA
ATOM      2  N   UNL     1      31.363 -24.125 -13.512  0.00  0.00    -0.106 N 
ATOM      3  N   UNL     1      30.831 -24.707 -12.406  0.00  0.00    -0.139 NA
ATOM      4  N   UNL     1      29.170 -24.099 -13.841  0.00  0.00    -0.145 NA
ATOM      5  C   UNL     1      31.837 -22.944 -15.829  0.00  0.00    +0.291 C 
ATOM      6  C   UNL     1      33.004 -23.288 -14.988  0.00  0.00    +0.105 C 
ATOM      7  C   UNL     1      32.712 -23.886 -13.820  0.00  0.00    +0.142 C 
ATOM      8  C   UNL     1      30.325 -23.760 -14.378  0.00  0.00    +0.178 C 
ATOM      9  C   UNL     1      29.527 -24.664 -12.660  0.00  0.00    +0.230 C 
ENDROOT
BRANCH   7  10
ATOM     10  N   UNL     1      33.647 -24.281 -12.907  0.00  0.00    -0.299 N 
ATOM     11  H   UNL     1      33.319 -24.418 -11.989  0.00  0.00    +0.153 HD
BRANCH  10  12
ATOM     12  C   UNL     1      35.012 -24.515 -13.108  0.00  0.00    +0.049 C 
ATOM     13  C   UNL     1      35.970 -23.781 -12.397  0.00  0.00    +0.016 C 
ATOM     14  C   UNL     1      35.437 -25.486 -14.024  0.00  0.00    +0.016 C 
ATOM     15  C   UNL     1      37.744 -24.983 -13.512  0.00  0.00    +0.122 C 
ATOM     16  C   UNL     1      37.330 -24.014 -12.598  0.00  0.00    +0.021 C 
ATOM     17  C   UNL     1      36.798 -25.720 -14.225  0.00  0.00    +0.021 C 
BRANCH  15  18
ATOM     18  S   UNL     1      39.447 -25.275 -13.763  0.00  0.00    +0.057 S 
ATOM     19  O   UNL     1      40.157 -24.014 -13.607  0.00  0.00    -0.153 OA
ATOM     20  O   UNL     1      39.841 -26.430 -12.968  0.00  0.00    -0.153 OA
BRANCH  18  21
ATOM     21  N   UNL     1      39.461 -25.716 -15.414  0.00  0.00    -0.203 NA
ATOM     22  H   UNL     1      38.727 -25.207 -15.907  0.00  0.00    +0.144 HD
ATOM     23  H   UNL     1      39.296 -26.718 -15.500  0.00  0.00    +0.144 HD
ENDBRANCH  18  21
ENDBRANCH  15  18
ENDBRANCH  10  12
ENDBRANCH   7  10
BRANCH   5  24
ATOM     24  O   UNL     1      32.192 -22.356 -16.968  0.00  0.00    -0.451 OA
BRANCH  24  25
ATOM     25  C   UNL     1      33.571 -22.423 -17.277  0.00  0.00    +0.208 C 
BRANCH  25  26
ATOM     26  C   UNL     1      33.804 -21.709 -18.607  0.00  0.00    +0.044 C 
ATOM     27  C   UNL     1      32.641 -20.757 -18.922  0.00  0.00    +0.004 C 
ATOM     28  C   UNL     1      35.139 -20.953 -18.590  0.00  0.00    +0.004 C 
ATOM     29  C   UNL     1      32.875 -19.992 -20.223  0.00  0.00    +0.000 C 
ATOM     30  C   UNL     1      35.369 -20.186 -19.892  0.00  0.00    +0.000 C 
ATOM     31  C   UNL     1      34.207 -19.249 -20.205  0.00  0.00    +0.000 C 
ENDBRANCH  25  26
ENDBRANCH  24  25
ENDBRANCH   5  24
TORSDOF 7
ENDMDL
MODEL 4
REMARK VINA RESULT:     -11.2      3.592      7.566
REMARK  Name = 23586145
REMARK  7 active torsions:
REMARK  status: ('A' for Active; 'I' for Inactive)
REMARK    1  A    between atoms: C_5  and  O_24
REMARK    2  A    between atoms: C_7  and  N_10
REMARK    3  A    between atoms: N_10  and  C_12
REMARK    4  A    between atoms: C_15  and  S_18
REMARK    5  A    between atoms: S_18  and  N_21
REMARK    6  A    between atoms: O_24  and  C_25
REMARK    7  A    between atoms: C_25  and  C_26
REMARK                            x       y       z     vdW  Elec       q    Type
REMARK                         _______ _______ _______ _____ _____    ______ ____
ROOT
ATOM      1  N   UNL     1      36.242 -22.227 -14.981  0.00  0.00    -0.299 NA
ATOM      2  N   UNL     1      34.768 -23.162 -13.326  0.00  0.00    -0.106 N 
ATOM      3  N   UNL     1      34.819 -23.521 -12.016  0.00  0.00    -0.139 NA
ATOM      4  N   UNL     1      36.839 -22.701 -12.676  0.00  0.00    -0.145 NA
ATOM      5  C   UNL     1      35.232 -22.313 -15.785  0.00  0.00    +0.291 C 
ATOM      6  C   UNL     1      33.876 -22.823 -15.485  0.00  0.00    +0.105 C 
ATOM      7  C   UNL     1      33.691 -23.243 -14.221  0.00  0.00    +0.142 C 
ATOM      8  C   UNL     1      36.019 -22.662 -13.707  0.00  0.00    +0.178 C 
ATOM      9  C   UNL     1      36.071 -23.224 -11.686  0.00  0.00    +0.230 C 
ENDROOT
BRANCH   7  10
ATOM     10  N   UNL     1      32.513 -23.746 -13.747  0.00  0.00    -0.299 N 
ATOM     11  H   UNL     1      32.586 -24.365 -12.985  0.00  0.00    +0.153 HD
BRANCH  10  12
ATOM     12  C   UNL     1      31.214 -23.496 -14.206  0.00  0.00    +0.049 C 
ATOM     13  C   UNL     1      30.108 -24.018 -13.524  0.00  0.00    +0.016 C 
ATOM     14  C   UNL     1      31.006 -22.722 -15.355  0.00  0.00    +0.016 C 
ATOM     15  C   UNL     1      28.617 -22.996 -15.127  0.00  0.00    +0.122 C 
ATOM     16  C   UNL     1      28.815 -23.769 -13.983  0.00  0.00    +0.021 C 
ATOM     17  C   UNL     1      29.713 -22.472 -15.813  0.00  0.00    +0.021 C 
BRANCH  15  18
ATOM     18  S   UNL     1      26.997 -22.685 -15.701  0.00  0.00    +0.057 S 
ATOM     19  O   UNL     1      26.096 -22.693 -14.558  0.00  0.00    -0.153 OA
ATOM     20  O   UNL     1      27.034 -21.528 -16.584  0.00  0.00    -0.153 OA
BRANCH  18  21
ATOM     21  N   UNL     1      26.711 -24.083 -16.641  0.00  0.00    -0.203 NA
ATOM     22  H   UNL     1      26.097 -24.716 -16.128  0.00  0.00    +0.144 HD
ATOM     23  H   UNL     1      27.597 -24.549 -16.834  0.00  0.00    +0.144 HD
ENDBRANCH  18  21
ENDBRANCH  15  18
ENDBRANCH  10  12
ENDBRANCH   7  10
BRANCH   5  24
ATOM     24  O   UNL     1      35.352 -21.914 -17.048  0.00  0.00    -0.451 OA
BRANCH  24  25
ATOM     25  C   UNL     1      34.149 -21.900 -17.793  0.00  0.00    +0.208 C 
BRANCH  25  26
ATOM     26  C   UNL     1      34.390 -21.125 -19.088  0.00  0.00    +0.044 C 
ATOM     27  C   UNL     1      33.141 -20.322 -19.479  0.00  0.00    +0.004 C 
ATOM     28  C   UNL     1      35.610 -20.206 -18.950  0.00  0.00    +0.004 C 
ATOM     29  C   UNL     1      33.375 -19.498 -20.743  0.00  0.00    +0.000 C 
ATOM     30  C   UNL     1      35.840 -19.381 -20.216  0.00  0.00    +0.000 C 
ATOM     31  C   UNL     1      34.594 -18.592 -20.605  0.00  0.00    +0.000 C 
ENDBRANCH  25  26
ENDBRANCH  24  25
ENDBRANCH   5  24
TORSDOF 7
ENDMDL
MODEL 5
REMARK VINA RESULT:     -10.8      3.638      7.628
REMARK  Name = 23586145
REMARK  7 active torsions:
REMARK  status: ('A' for Active; 'I' for Inactive)
REMARK    1  A    between atoms: C_5  and  O_24
REMARK    2  A    between atoms: C_7  and  N_10
REMARK    3  A    between atoms: N_10  and  C_12
REMARK    4  A    between atoms: C_15  and  S_18
REMARK    5  A    between atoms: S_18  and  N_21
REMARK    6  A    between atoms: O_24  and  C_25
REMARK    7  A    between atoms: C_25  and  C_26
REMARK                            x       y       z     vdW  Elec       q    Type
REMARK                         _______ _______ _______ _____ _____    ______ ____
ROOT
ATOM      1  N   UNL     1      37.147 -22.794 -14.813  0.00  0.00    -0.299 NA
ATOM      2  N   UNL     1      35.796 -24.252 -13.458  0.00  0.00    -0.106 N 
ATOM      3  N   UNL     1      35.980 -25.220 -12.523  0.00  0.00    -0.139 NA
ATOM      4  N   UNL     1      37.995 -24.422 -13.223  0.00  0.00    -0.145 NA
ATOM      5  C   UNL     1      36.025 -22.348 -15.277  0.00  0.00    +0.291 C 
ATOM      6  C   UNL     1      34.659 -22.778 -14.909  0.00  0.00    +0.105 C 
ATOM      7  C   UNL     1      34.595 -23.749 -13.981  0.00  0.00    +0.142 C 
ATOM      8  C   UNL     1      37.047 -23.777 -13.872  0.00  0.00    +0.178 C 
ATOM      9  C   UNL     1      37.304 -25.276 -12.426  0.00  0.00    +0.230 C 
ENDROOT
BRANCH   7  10
ATOM     10  N   UNL     1      33.429 -24.280 -13.508  0.00  0.00    -0.299 N 
ATOM     11  H   UNL     1      33.524 -25.015 -12.860  0.00  0.00    +0.153 HD
BRANCH  10  12
ATOM     12  C   UNL     1      32.116 -23.915 -13.828  0.00  0.00    +0.049 C 
ATOM     13  C   UNL     1      31.861 -23.049 -14.898  0.00  0.00    +0.016 C 
ATOM     14  C   UNL     1      31.041 -24.414 -13.081  0.00  0.00    +0.016 C 
ATOM     15  C   UNL     1      29.488 -23.187 -14.467  0.00  0.00    +0.122 C 
ATOM     16  C   UNL     1      30.552 -22.686 -15.216  0.00  0.00    +0.021 C 
ATOM     17  C   UNL     1      29.732 -24.051 -13.399  0.00  0.00    +0.021 C 
BRANCH  15  18
ATOM     18  S   UNL     1      27.849 -22.733 -14.865  0.00  0.00    +0.057 S 
ATOM     19  O   UNL     1      26.998 -23.904 -14.711  0.00  0.00    -0.153 OA
ATOM     20  O   UNL     1      27.525 -21.504 -14.155  0.00  0.00    -0.153 OA
BRANCH  18  21
ATOM     21  N   UNL     1      28.006 -22.379 -16.529  0.00  0.00    -0.203 NA
ATOM     22  H   UNL     1      28.531 -23.125 -16.986  0.00  0.00    +0.144 HD
ATOM     23  H   UNL     1      28.501 -21.496 -16.644  0.00  0.00    +0.144 HD
ENDBRANCH  18  21
ENDBRANCH  15  18
ENDBRANCH  10  12
ENDBRANCH   7  10
BRANCH   5  24
ATOM     24  O   UNL     1      36.021 -21.389 -16.198  0.00  0.00    -0.451 OA
BRANCH  24  25
ATOM     25  C   UNL     1      35.737 -21.819 -17.516  0.00  0.00    +0.208 C 
BRANCH  25  26
ATOM     26  C   UNL     1      34.623 -20.939 -18.082  0.00  0.00    +0.044 C 
ATOM     27  C   UNL     1      35.012 -20.397 -19.465  0.00  0.00    +0.004 C 
ATOM     28  C   UNL     1      33.302 -21.716 -18.152  0.00  0.00    +0.004 C 
ATOM     29  C   UNL     1      33.892 -19.556 -20.075  0.00  0.00    +0.000 C 
ATOM     30  C   UNL     1      32.184 -20.873 -18.766  0.00  0.00    +0.000 C 
ATOM     31  C   UNL     1      32.578 -20.329 -20.134  0.00  0.00    +0.000 C 
ENDBRANCH  25  26
ENDBRANCH  24  25
ENDBRANCH   5  24
TORSDOF 7
ENDMDL
MODEL 6
REMARK VINA RESULT:     -10.7      2.244      5.283
REMARK  Name = 23586145
REMARK  7 active torsions:
REMARK  status: ('A' for Active; 'I' for Inactive)
REMARK    1  A    between atoms: C_5  and  O_24
REMARK    2  A    between atoms: C_7  and  N_10
REMARK    3  A    between atoms: N_10  and  C_12
REMARK    4  A    between atoms: C_15  and  S_18
REMARK    5  A    between atoms: S_18  and  N_21
REMARK    6  A    between atoms: O_24  and  C_25
REMARK    7  A    between atoms: C_25  and  C_26
REMARK                            x       y       z     vdW  Elec       q    Type
REMARK                         _______ _______ _______ _____ _____    ______ ____
ROOT
ATOM      1  N   UNL     1      33.189 -22.778 -13.380  0.00  0.00    -0.299 NA
ATOM      2  N   UNL     1      34.384 -22.780 -15.467  0.00  0.00    -0.106 N 
ATOM      3  N   UNL     1      35.675 -22.790 -15.891  0.00  0.00    -0.139 NA
ATOM      4  N   UNL     1      35.605 -22.801 -13.615  0.00  0.00    -0.145 NA
ATOM      5  C   UNL     1      32.118 -22.764 -14.107  0.00  0.00    +0.291 C 
ATOM      6  C   UNL     1      32.027 -22.756 -15.584  0.00  0.00    +0.105 C 
ATOM      7  C   UNL     1      33.207 -22.764 -16.230  0.00  0.00    +0.142 C 
ATOM      8  C   UNL     1      34.367 -22.786 -14.067  0.00  0.00    +0.178 C 
ATOM      9  C   UNL     1      36.352 -22.803 -14.748  0.00  0.00    +0.230 C 
ENDROOT
BRANCH   7  10
ATOM     10  N   UNL     1      33.334 -22.760 -17.589  0.00  0.00    -0.299 N 
ATOM     11  H   UNL     1      33.234 -23.633 -18.032  0.00  0.00    +0.153 HD
BRANCH  10  12
ATOM     12  C   UNL     1      33.591 -21.674 -18.434  0.00  0.00    +0.049 C 
ATOM     13  C   UNL     1      34.908 -21.295 -18.722  0.00  0.00    +0.016 C 
ATOM     14  C   UNL     1      32.532 -20.953 -19.002  0.00  0.00    +0.016 C 
ATOM     15  C   UNL     1      34.102 -19.500 -20.125  0.00  0.00    +0.122 C 
ATOM     16  C   UNL     1      35.162 -20.212 -19.564  0.00  0.00    +0.021 C 
ATOM     17  C   UNL     1      32.786 -19.870 -19.844  0.00  0.00    +0.021 C 
BRANCH  15  18
ATOM     18  S   UNL     1      34.421 -18.145 -21.179  0.00  0.00    +0.057 S 
ATOM     19  O   UNL     1      33.622 -18.304 -22.386  0.00  0.00    -0.153 OA
ATOM     20  O   UNL     1      34.318 -16.919 -20.400  0.00  0.00    -0.153 OA
BRANCH  18  21
ATOM     21  N   UNL     1      36.064 -18.413 -21.564  0.00  0.00    -0.203 NA
ATOM     22  H   UNL     1      36.209 -18.253 -22.561  0.00  0.00    +0.144 HD
ATOM     23  H   UNL     1      36.314 -19.374 -21.335  0.00  0.00    +0.144 HD
ENDBRANCH  18  21
ENDBRANCH  15  18
ENDBRANCH  10  12
ENDBRANCH   7  10
BRANCH   5  24
ATOM     24  O   UNL     1      30.921 -22.755 -13.528  0.00  0.00    -0.451 OA
BRANCH  24  25
ATOM     25  C   UNL     1      30.231 -23.990 -13.550  0.00  0.00    +0.208 C 
BRANCH  25  26
ATOM     26  C   UNL     1      28.834 -23.754 -14.121  0.00  0.00    +0.044 C 
ATOM     27  C   UNL     1      28.566 -22.252 -14.293  0.00  0.00    +0.004 C 
ATOM     28  C   UNL     1      28.660 -24.495 -15.453  0.00  0.00    +0.004 C 
ATOM     29  C   UNL     1      27.194 -21.992 -14.912  0.00  0.00    +0.000 C 
ATOM     30  C   UNL     1      27.288 -24.231 -16.070  0.00  0.00    +0.000 C 
ATOM     31  C   UNL     1      27.022 -22.738 -16.231  0.00  0.00    +0.000 C 
ENDBRANCH  25  26
ENDBRANCH  24  25
ENDBRANCH   5  24
TORSDOF 7
ENDMDL
MODEL 7
REMARK VINA RESULT:     -10.1      5.015     10.509
REMARK  Name = 23586145
REMARK  7 active torsions:
REMARK  status: ('A' for Active; 'I' for Inactive)
REMARK    1  A    between atoms: C_5  and  O_24
REMARK    2  A    between atoms: C_7  and  N_10
REMARK    3  A    between atoms: N_10  and  C_12
REMARK    4  A    between atoms: C_15  and  S_18
REMARK    5  A    between atoms: S_18  and  N_21
REMARK    6  A    between atoms: O_24  and  C_25
REMARK    7  A    between atoms: C_25  and  C_26
REMARK                            x       y       z     vdW  Elec       q    Type
REMARK                         _______ _______ _______ _____ _____    ______ ____
ROOT
ATOM      1  N   UNL     1      33.304 -15.676 -22.911  0.00  0.00    -0.299 NA
ATOM      2  N   UNL     1      34.013 -17.950 -22.572  0.00  0.00    -0.106 N 
ATOM      3  N   UNL     1      33.961 -19.133 -23.237  0.00  0.00    -0.139 NA
ATOM      4  N   UNL     1      32.958 -17.504 -24.472  0.00  0.00    -0.145 NA
ATOM      5  C   UNL     1      33.828 -15.444 -21.751  0.00  0.00    +0.291 C 
ATOM      6  C   UNL     1      34.504 -16.406 -20.855  0.00  0.00    +0.105 C 
ATOM      7  C   UNL     1      34.572 -17.668 -21.316  0.00  0.00    +0.142 C 
ATOM      8  C   UNL     1      33.391 -16.965 -23.350  0.00  0.00    +0.178 C 
ATOM      9  C   UNL     1      33.324 -18.806 -24.356  0.00  0.00    +0.230 C 
ENDROOT
BRANCH   7  10
ATOM     10  N   UNL     1      35.156 -18.700 -20.639  0.00  0.00    -0.299 N 
ATOM     11  H   UNL     1      36.136 -18.761 -20.712  0.00  0.00    +0.153 HD
BRANCH  10  12
ATOM     12  C   UNL     1      34.541 -19.684 -19.856  0.00  0.00    +0.049 C 
ATOM     13  C   UNL     1      33.149 -19.841 -19.879  0.00  0.00    +0.016 C 
ATOM     14  C   UNL     1      35.310 -20.522 -19.040  0.00  0.00    +0.016 C 
ATOM     15  C   UNL     1      33.311 -21.652 -18.288  0.00  0.00    +0.122 C 
ATOM     16  C   UNL     1      32.537 -20.821 -19.098  0.00  0.00    +0.021 C 
ATOM     17  C   UNL     1      34.698 -21.503 -18.259  0.00  0.00    +0.021 C 
BRANCH  15  18
ATOM     18  S   UNL     1      32.544 -22.880 -17.311  0.00  0.00    +0.057 S 
ATOM     19  O   UNL     1      31.242 -22.383 -16.889  0.00  0.00    -0.153 OA
ATOM     20  O   UNL     1      32.641 -24.154 -18.009  0.00  0.00    -0.153 OA
BRANCH  18  21
ATOM     21  N   UNL     1      33.587 -22.915 -15.958  0.00  0.00    -0.203 NA
ATOM     22  H   UNL     1      34.341 -23.581 -16.129  0.00  0.00    +0.144 HD
ATOM     23  H   UNL     1      33.062 -23.201 -15.132  0.00  0.00    +0.144 HD
ENDBRANCH  18  21
ENDBRANCH  15  18
ENDBRANCH  10  12
ENDBRANCH   7  10
BRANCH   5  24
ATOM     24  O   UNL     1      33.793 -14.217 -21.240  0.00  0.00    -0.451 OA
BRANCH  24  25
ATOM     25  C   UNL     1      32.791 -13.999 -20.265  0.00  0.00    +0.208 C 
BRANCH  25  26
ATOM     26  C   UNL     1      31.840 -12.920 -20.781  0.00  0.00    +0.044 C 
ATOM     27  C   UNL     1      31.193 -12.164 -19.612  0.00  0.00    +0.004 C 
ATOM     28  C   UNL     1      32.574 -11.953 -21.718  0.00  0.00    +0.004 C 
ATOM     29  C   UNL     1      30.276 -11.045 -20.104  0.00  0.00    +0.000 C 
ATOM     30  C   UNL     1      31.656 -10.834 -22.206  0.00  0.00    +0.000 C 
ATOM     31  C   UNL     1      31.008 -10.091 -21.042  0.00  0.00    +0.000 C 
ENDBRANCH  25  26
ENDBRANCH  24  25
ENDBRANCH   5  24
TORSDOF 7
ENDMDL
MODEL 8
REMARK VINA RESULT:     -10.1      5.762     11.021
REMARK  Name = 23586145
REMARK  7 active torsions:
REMARK  status: ('A' for Active; 'I' for Inactive)
REMARK    1  A    between atoms: C_5  and  O_24
REMARK    2  A    between atoms: C_7  and  N_10
REMARK    3  A    between atoms: N_10  and  C_12
REMARK    4  A    between atoms: C_15  and  S_18
REMARK    5  A    between atoms: S_18  and  N_21
REMARK    6  A    between atoms: O_24  and  C_25
REMARK    7  A    between atoms: C_25  and  C_26
REMARK                            x       y       z     vdW  Elec       q    Type
REMARK                         _______ _______ _______ _____ _____    ______ ____
ROOT
ATOM      1  N   UNL     1      32.796 -13.986 -22.027  0.00  0.00    -0.299 NA
ATOM      2  N   UNL     1      33.834 -16.028 -22.760  0.00  0.00    -0.106 N 
ATOM      3  N   UNL     1      34.070 -16.678 -23.930  0.00  0.00    -0.139 NA
ATOM      4  N   UNL     1      32.967 -14.726 -24.333  0.00  0.00    -0.145 NA
ATOM      5  C   UNL     1      33.122 -14.365 -20.833  0.00  0.00    +0.291 C 
ATOM      6  C   UNL     1      33.834 -15.599 -20.439  0.00  0.00    +0.105 C 
ATOM      7  C   UNL     1      34.174 -16.413 -21.454  0.00  0.00    +0.142 C 
ATOM      8  C   UNL     1      33.156 -14.834 -23.033  0.00  0.00    +0.178 C 
ATOM      9  C   UNL     1      33.533 -15.857 -24.826  0.00  0.00    +0.230 C 
ENDROOT
BRANCH   7  10
ATOM     10  N   UNL     1      34.836 -17.597 -21.297  0.00  0.00    -0.299 N 
ATOM     11  H   UNL     1      35.695 -17.675 -21.771  0.00  0.00    +0.153 HD
BRANCH  10  12
ATOM     12  C   UNL     1      34.449 -18.716 -20.550  0.00  0.00    +0.049 C 
ATOM     13  C   UNL     1      35.402 -19.462 -19.845  0.00  0.00    +0.016 C 
ATOM     14  C   UNL     1      33.104 -19.103 -20.499  0.00  0.00    +0.016 C 
ATOM     15  C   UNL     1      33.674 -20.955 -19.056  0.00  0.00    +0.122 C 
ATOM     16  C   UNL     1      35.015 -20.576 -19.101  0.00  0.00    +0.021 C 
ATOM     17  C   UNL     1      32.717 -20.218 -19.755  0.00  0.00    +0.021 C 
BRANCH  15  18
ATOM     18  S   UNL     1      33.190 -22.350 -18.125  0.00  0.00    +0.057 S 
ATOM     19  O   UNL     1      33.155 -23.504 -19.011  0.00  0.00    -0.153 OA
ATOM     20  O   UNL     1      33.992 -22.396 -16.910  0.00  0.00    -0.153 OA
BRANCH  18  21
ATOM     21  N   UNL     1      31.589 -21.924 -17.708  0.00  0.00    -0.203 NA
ATOM     22  H   UNL     1      31.605 -21.257 -16.937  0.00  0.00    +0.144 HD
ATOM     23  H   UNL     1      31.077 -22.759 -17.426  0.00  0.00    +0.144 HD
ENDBRANCH  18  21
ENDBRANCH  15  18
ENDBRANCH  10  12
ENDBRANCH   7  10
BRANCH   5  24
ATOM     24  O   UNL     1      32.813 -13.605 -19.787  0.00  0.00    -0.451 OA
BRANCH  24  25
ATOM     25  C   UNL     1      31.526 -13.018 -19.826  0.00  0.00    +0.208 C 
BRANCH  25  26
ATOM     26  C   UNL     1      31.687 -11.500 -19.890  0.00  0.00    +0.044 C 
ATOM     27  C   UNL     1      31.155 -10.956 -21.223  0.00  0.00    +0.004 C 
ATOM     28  C   UNL     1      30.982 -10.829 -18.705  0.00  0.00    +0.004 C 
ATOM     29  C   UNL     1      31.257  -9.433 -21.291  0.00  0.00    +0.000 C 
ATOM     30  C   UNL     1      31.084  -9.306 -18.777  0.00  0.00    +0.000 C 
ATOM     31  C   UNL     1      30.562  -8.770 -20.106  0.00  0.00    +0.000 C 
ENDBRANCH  25  26
ENDBRANCH  24  25
ENDBRANCH   5  24
TORSDOF 7
ENDMDL
MODEL 9
REMARK VINA RESULT:      -9.9      6.181     11.429
REMARK  Name = 23586145
REMARK  7 active torsions:
REMARK  status: ('A' for Active; 'I' for Inactive)
REMARK    1  A    between atoms: C_5  and  O_24
REMARK    2  A    between atoms: C_7  and  N_10
REMARK    3  A    between atoms: N_10  and  C_12
REMARK    4  A    between atoms: C_15  and  S_18
REMARK    5  A    between atoms: S_18  and  N_21
REMARK    6  A    between atoms: O_24  and  C_25
REMARK    7  A    between atoms: C_25  and  C_26
REMARK                            x       y       z     vdW  Elec       q    Type
REMARK                         _______ _______ _______ _____ _____    ______ ____
ROOT
ATOM      1  N   UNL     1      32.198 -13.096 -22.579  0.00  0.00    -0.299 NA
ATOM      2  N   UNL     1      33.323 -14.945 -23.630  0.00  0.00    -0.106 N 
ATOM      3  N   UNL     1      33.451 -15.472 -24.876  0.00  0.00    -0.139 NA
ATOM      4  N   UNL     1      32.107 -13.635 -24.945  0.00  0.00    -0.145 NA
ATOM      5  C   UNL     1      32.731 -13.525 -21.481  0.00  0.00    +0.291 C 
ATOM      6  C   UNL     1      33.616 -14.697 -21.302  0.00  0.00    +0.105 C 
ATOM      7  C   UNL     1      33.887 -15.386 -22.424  0.00  0.00    +0.142 C 
ATOM      8  C   UNL     1      32.493 -13.818 -23.698  0.00  0.00    +0.178 C 
ATOM      9  C   UNL     1      32.708 -14.652 -25.612  0.00  0.00    +0.230 C 
ENDROOT
BRANCH   7  10
ATOM     10  N   UNL     1      34.682 -16.495 -22.468  0.00  0.00    -0.299 N 
ATOM     11  H   UNL     1      35.351 -16.515 -23.189  0.00  0.00    +0.153 HD
BRANCH  10  12
ATOM     12  C   UNL     1      34.667 -17.609 -21.619  0.00  0.00    +0.049 C 
ATOM     13  C   UNL     1      33.520 -18.404 -21.513  0.00  0.00    +0.016 C 
ATOM     14  C   UNL     1      35.801 -17.940 -20.867  0.00  0.00    +0.016 C 
ATOM     15  C   UNL     1      34.639 -19.836 -19.921  0.00  0.00    +0.122 C 
ATOM     16  C   UNL     1      33.506 -19.513 -20.667  0.00  0.00    +0.021 C 
ATOM     17  C   UNL     1      35.788 -19.049 -20.021  0.00  0.00    +0.021 C 
BRANCH  15  18
ATOM     18  S   UNL     1      34.622 -21.225 -18.863  0.00  0.00    +0.057 S 
ATOM     19  O   UNL     1      34.880 -22.414 -19.661  0.00  0.00    -0.153 OA
ATOM     20  O   UNL     1      35.457 -20.934 -17.705  0.00  0.00    -0.153 OA
BRANCH  18  21
ATOM     21  N   UNL     1      32.986 -21.236 -18.369  0.00  0.00    -0.203 NA
ATOM     22  H   UNL     1      32.654 -22.199 -18.317  0.00  0.00    +0.144 HD
ATOM     23  H   UNL     1      32.424 -20.719 -19.044  0.00  0.00    +0.144 HD
ENDBRANCH  18  21
ENDBRANCH  15  18
ENDBRANCH  10  12
ENDBRANCH   7  10
BRANCH   5  24
ATOM     24  O   UNL     1      32.502 -12.887 -20.337  0.00  0.00    -0.451 OA
BRANCH  24  25
ATOM     25  C   UNL     1      31.157 -12.903 -19.897  0.00  0.00    +0.208 C 
BRANCH  25  26
ATOM     26  C   UNL     1      30.655 -11.462 -19.825  0.00  0.00    +0.044 C 
ATOM     27  C   UNL     1      31.123 -10.789 -18.527  0.00  0.00    +0.004 C 
ATOM     28  C   UNL     1      31.117 -10.664 -21.051  0.00  0.00    +0.004 C 
ATOM     29  C   UNL     1      30.677  -9.330 -18.456  0.00  0.00    +0.000 C 
ATOM     30  C   UNL     1      30.671  -9.205 -20.976  0.00  0.00    +0.000 C 
ATOM     31  C   UNL     1      31.131  -8.543 -19.681  0.00  0.00    +0.000 C 
ENDBRANCH  25  26
ENDBRANCH  24  25
ENDBRANCH   5  24
TORSDOF 7
ENDMDL
