MODEL 1
REMARK VINA RESULT:     -11.5      0.000      0.000
REMARK  Name = 3351
REMARK  5 active torsions:
REMARK  status: ('A' for Active; 'I' for Inactive)
REMARK    1  A    between atoms: N_2  and  C_10
REMARK    2  A    between atoms: C_8  and  C_20
REMARK    3  A    between atoms: C_10  and  C_13
REMARK    4  A    between atoms: C_20  and  O_21
REMARK    5  A    between atoms: O_21  and  C_23
REMARK                            x       y       z     vdW  Elec       q    Type
REMARK                         _______ _______ _______ _____ _____    ______ ____
ROOT
ATOM      1  O   UNL     1      34.372 -16.665 -23.168  0.00  0.00    -0.271 OA
ATOM      2  N   UNL     1      31.978 -12.757 -21.190  0.00  0.00    +0.392 N 
ATOM      3  N   UNL     1      33.694 -14.993 -21.705  0.00  0.00    -0.281 N 
ATOM      4  C   UNL     1      31.995 -13.395 -22.515  0.00  0.00    -0.055 C 
ATOM      5  C   UNL     1      32.243 -13.749 -20.138  0.00  0.00    -0.055 C 
ATOM      6  C   UNL     1      33.345 -14.062 -22.777  0.00  0.00    +0.071 C 
ATOM      7  C   UNL     1      33.596 -14.430 -20.355  0.00  0.00    +0.071 C 
ATOM      8  C   UNL     1      34.194 -16.256 -22.017  0.00  0.00    +0.270 C 
ATOM      9  H   UNL     1      32.716 -12.053 -21.162  0.00  0.00    -0.079 HD
ENDROOT
BRANCH   2  10
ATOM     10  C   UNL     1      30.698 -12.091 -20.957  0.00  0.00    -0.050 C 
BRANCH  10  13
ATOM     11  O   UNL     1      31.537  -7.226 -21.026  0.00  0.00    -0.435 OA
ATOM     12  O   UNL     1      31.379  -7.048 -18.627  0.00  0.00    -0.435 OA
ATOM     13  C   UNL     1      30.875 -10.750 -20.296  0.00  0.00    -0.040 C 
ATOM     14  C   UNL     1      31.128  -9.632 -21.084  0.00  0.00    +0.034 C 
ATOM     15  C   UNL     1      30.782 -10.658 -18.903  0.00  0.00    -0.003 C 
ATOM     16  C   UNL     1      31.284  -8.424 -20.434  0.00  0.00    +0.176 C 
ATOM     17  C   UNL     1      31.194  -8.324 -19.064  0.00  0.00    +0.176 C 
ATOM     18  C   UNL     1      30.944  -9.423 -18.269  0.00  0.00    +0.040 C 
ATOM     19  C   UNL     1      31.596  -6.358 -19.876  0.00  0.00    +0.429 C 
ENDBRANCH  10  13
ENDBRANCH   2  10
BRANCH   8  20
ATOM     20  C   UNL     1      34.524 -17.158 -20.855  0.00  0.00    +0.290 C 
BRANCH  20  21
ATOM     21  O   UNL     1      34.399 -18.478 -21.321  0.00  0.00    -0.466 OA
BRANCH  21  23
ATOM     22 CL   UNL     1      32.657 -22.553 -17.468  0.00  0.00    -0.082 Cl
ATOM     23  C   UNL     1      33.991 -19.433 -20.416  0.00  0.00    +0.139 C 
ATOM     24  C   UNL     1      34.942 -20.160 -19.717  0.00  0.00    +0.038 C 
ATOM     25  C   UNL     1      32.635 -19.651 -20.221  0.00  0.00    +0.038 C 
ATOM     26  C   UNL     1      34.528 -21.128 -18.802  0.00  0.00    +0.015 C 
ATOM     27  C   UNL     1      32.221 -20.619 -19.306  0.00  0.00    +0.015 C 
ATOM     28  C   UNL     1      33.167 -21.358 -18.596  0.00  0.00    +0.058 C 
ENDBRANCH  21  23
ENDBRANCH  20  21
ENDBRANCH   8  20
TORSDOF 5
ENDMDL
MODEL 2
REMARK VINA RESULT:     -10.8      4.851     10.487
REMARK  Name = 3351
REMARK  5 active torsions:
REMARK  status: ('A' for Active; 'I' for Inactive)
REMARK    1  A    between atoms: N_2  and  C_10
REMARK    2  A    between atoms: C_8  and  C_20
REMARK    3  A    between atoms: C_10  and  C_13
REMARK    4  A    between atoms: C_20  and  O_21
REMARK    5  A    between atoms: O_21  and  C_23
REMARK                            x       y       z     vdW  Elec       q    Type
REMARK                         _______ _______ _______ _____ _____    ______ ____
ROOT
ATOM      1  O   UNL     1      32.560 -12.803 -25.346  0.00  0.00    -0.271 OA
ATOM      2  N   UNL     1      33.938 -16.744 -22.610  0.00  0.00    +0.392 N 
ATOM      3  N   UNL     1      32.965 -14.219 -23.549  0.00  0.00    -0.281 N 
ATOM      4  C   UNL     1      33.840 -16.472 -24.051  0.00  0.00    -0.055 C 
ATOM      5  C   UNL     1      34.242 -15.509 -21.873  0.00  0.00    -0.055 C 
ATOM      6  C   UNL     1      32.754 -15.435 -24.334  0.00  0.00    +0.071 C 
ATOM      7  C   UNL     1      33.167 -14.447 -22.116  0.00  0.00    +0.071 C 
ATOM      8  C   UNL     1      32.843 -12.970 -24.157  0.00  0.00    +0.270 C 
ATOM      9  H   UNL     1      33.038 -17.099 -22.287  0.00  0.00    -0.079 HD
ENDROOT
BRANCH   2  10
ATOM     10  C   UNL     1      34.954 -17.762 -22.347  0.00  0.00    -0.050 C 
BRANCH  10  13
ATOM     11  O   UNL     1      35.768 -20.741 -18.495  0.00  0.00    -0.435 OA
ATOM     12  O   UNL     1      33.450 -21.384 -18.354  0.00  0.00    -0.435 OA
ATOM     13  C   UNL     1      34.513 -18.734 -21.285  0.00  0.00    -0.040 C 
ATOM     14  C   UNL     1      35.456 -19.246 -20.399  0.00  0.00    +0.034 C 
ATOM     15  C   UNL     1      33.165 -19.101 -21.213  0.00  0.00    -0.003 C 
ATOM     16  C   UNL     1      35.005 -20.134 -19.443  0.00  0.00    +0.176 C 
ATOM     17  C   UNL     1      33.681 -20.501 -19.364  0.00  0.00    +0.176 C 
ATOM     18  C   UNL     1      32.735 -20.002 -20.235  0.00  0.00    +0.040 C 
ATOM     19  C   UNL     1      34.777 -21.531 -17.808  0.00  0.00    +0.429 C 
ENDBRANCH  10  13
ENDBRANCH   2  10
BRANCH   8  20
ATOM     20  C   UNL     1      33.081 -11.767 -23.280  0.00  0.00    +0.290 C 
BRANCH  20  21
ATOM     21  O   UNL     1      33.789 -10.834 -24.059  0.00  0.00    -0.466 OA
BRANCH  21  23
ATOM     22 CL   UNL     1      32.583  -5.150 -23.211  0.00  0.00    -0.082 Cl
ATOM     23  C   UNL     1      33.507  -9.501 -23.862  0.00  0.00    +0.139 C 
ATOM     24  C   UNL     1      34.491  -8.664 -23.357  0.00  0.00    +0.038 C 
ATOM     25  C   UNL     1      32.244  -9.019 -24.170  0.00  0.00    +0.038 C 
ATOM     26  C   UNL     1      34.204  -7.314 -23.155  0.00  0.00    +0.015 C 
ATOM     27  C   UNL     1      31.957  -7.669 -23.968  0.00  0.00    +0.015 C 
ATOM     28  C   UNL     1      32.937  -6.816 -23.461  0.00  0.00    +0.058 C 
ENDBRANCH  21  23
ENDBRANCH  20  21
ENDBRANCH   8  20
TORSDOF 5
ENDMDL
MODEL 3
REMARK VINA RESULT:     -10.8      7.700     11.333
REMARK  Name = 3351
REMARK  5 active torsions:
REMARK  status: ('A' for Active; 'I' for Inactive)
REMARK    1  A    between atoms: N_2  and  C_10
REMARK    2  A    between atoms: C_8  and  C_20
REMARK    3  A    between atoms: C_10  and  C_13
REMARK    4  A    between atoms: C_20  and  O_21
REMARK    5  A    between atoms: O_21  and  C_23
REMARK                            x       y       z     vdW  Elec       q    Type
REMARK                         _______ _______ _______ _____ _____    ______ ____
ROOT
ATOM      1  O   UNL     1      36.505 -21.061 -16.502  0.00  0.00    -0.271 OA
ATOM      2  N   UNL     1      32.718 -23.396 -14.239  0.00  0.00    +0.392 N 
ATOM      3  N   UNL     1      34.644 -22.395 -16.109  0.00  0.00    -0.281 N 
ATOM      4  C   UNL     1      33.845 -22.572 -13.779  0.00  0.00    -0.055 C 
ATOM      5  C   UNL     1      32.303 -22.991 -15.590  0.00  0.00    -0.055 C 
ATOM      6  C   UNL     1      35.033 -22.700 -14.732  0.00  0.00    +0.071 C 
ATOM      7  C   UNL     1      33.462 -23.120 -16.581  0.00  0.00    +0.071 C 
ATOM      8  C   UNL     1      35.451 -21.571 -16.892  0.00  0.00    +0.270 C 
ATOM      9  H   UNL     1      33.022 -24.369 -14.274  0.00  0.00    -0.079 HD
ENDROOT
BRANCH   2  10
ATOM     10  C   UNL     1      31.596 -23.298 -13.307  0.00  0.00    -0.050 C 
BRANCH  10  13
ATOM     11  O   UNL     1      27.854 -21.743 -16.129  0.00  0.00    -0.435 OA
ATOM     12  O   UNL     1      26.684 -23.841 -15.934  0.00  0.00    -0.435 OA
ATOM     13  C   UNL     1      30.272 -23.480 -14.001  0.00  0.00    -0.040 C 
ATOM     14  C   UNL     1      29.745 -22.430 -14.746  0.00  0.00    +0.034 C 
ATOM     15  C   UNL     1      29.601 -24.702 -13.880  0.00  0.00    -0.003 C 
ATOM     16  C   UNL     1      28.529 -22.643 -15.363  0.00  0.00    +0.176 C 
ATOM     17  C   UNL     1      27.861 -23.841 -15.251  0.00  0.00    +0.176 C 
ATOM     18  C   UNL     1      28.370 -24.891 -14.516  0.00  0.00    +0.040 C 
ATOM     19  C   UNL     1      26.686 -22.509 -16.488  0.00  0.00    +0.429 C 
ENDBRANCH  10  13
ENDBRANCH   2  10
BRANCH   8  20
ATOM     20  C   UNL     1      34.977 -21.301 -18.297  0.00  0.00    +0.290 C 
BRANCH  20  21
ATOM     21  O   UNL     1      35.694 -20.182 -18.757  0.00  0.00    -0.466 OA
BRANCH  21  23
ATOM     22 CL   UNL     1      33.727 -17.521 -23.607  0.00  0.00    -0.082 Cl
ATOM     23  C   UNL     1      35.234 -19.559 -19.895  0.00  0.00    +0.139 C 
ATOM     24  C   UNL     1      36.081 -18.720 -20.602  0.00  0.00    +0.038 C 
ATOM     25  C   UNL     1      33.930 -19.782 -20.314  0.00  0.00    +0.038 C 
ATOM     26  C   UNL     1      35.613 -18.087 -21.754  0.00  0.00    +0.015 C 
ATOM     27  C   UNL     1      33.463 -19.149 -21.466  0.00  0.00    +0.015 C 
ATOM     28  C   UNL     1      34.303 -18.302 -22.186  0.00  0.00    +0.058 C 
ENDBRANCH  21  23
ENDBRANCH  20  21
ENDBRANCH   8  20
TORSDOF 5
ENDMDL
MODEL 4
REMARK VINA RESULT:     -10.7      5.579      8.230
REMARK  Name = 3351
REMARK  5 active torsions:
REMARK  status: ('A' for Active; 'I' for Inactive)
REMARK    1  A    between atoms: N_2  and  C_10
REMARK    2  A    between atoms: C_8  and  C_20
REMARK    3  A    between atoms: C_10  and  C_13
REMARK    4  A    between atoms: C_20  and  O_21
REMARK    5  A    between atoms: O_21  and  C_23
REMARK                            x       y       z     vdW  Elec       q    Type
REMARK                         _______ _______ _______ _____ _____    ______ ____
ROOT
ATOM      1  O   UNL     1      30.783 -21.998 -16.894  0.00  0.00    -0.271 OA
ATOM      2  N   UNL     1      34.194 -20.201 -20.063  0.00  0.00    +0.392 N 
ATOM      3  N   UNL     1      32.651 -21.806 -18.262  0.00  0.00    -0.281 N 
ATOM      4  C   UNL     1      32.897 -19.723 -19.564  0.00  0.00    -0.055 C 
ATOM      5  C   UNL     1      34.861 -21.032 -19.050  0.00  0.00    -0.055 C 
ATOM      6  C   UNL     1      31.991 -20.899 -19.200  0.00  0.00    +0.071 C 
ATOM      7  C   UNL     1      33.992 -22.233 -18.669  0.00  0.00    +0.071 C 
ATOM      8  C   UNL     1      31.953 -22.287 -17.154  0.00  0.00    +0.270 C 
ATOM      9  H   UNL     1      34.031 -20.772 -20.893  0.00  0.00    -0.079 HD
ENDROOT
BRANCH   2  10
ATOM     10  C   UNL     1      35.045 -19.074 -20.442  0.00  0.00    -0.050 C 
BRANCH  10  13
ATOM     11  O   UNL     1      33.948 -14.997 -23.003  0.00  0.00    -0.435 OA
ATOM     12  O   UNL     1      33.094 -16.260 -24.869  0.00  0.00    -0.435 OA
ATOM     13  C   UNL     1      34.513 -18.350 -21.650  0.00  0.00    -0.040 C 
ATOM     14  C   UNL     1      34.523 -16.959 -21.668  0.00  0.00    +0.034 C 
ATOM     15  C   UNL     1      34.019 -19.093 -22.728  0.00  0.00    -0.003 C 
ATOM     16  C   UNL     1      34.025 -16.340 -22.797  0.00  0.00    +0.176 C 
ATOM     17  C   UNL     1      33.537 -17.061 -23.862  0.00  0.00    +0.176 C 
ATOM     18  C   UNL     1      33.519 -18.441 -23.859  0.00  0.00    +0.040 C 
ATOM     19  C   UNL     1      33.358 -14.953 -24.318  0.00  0.00    +0.429 C 
ENDBRANCH  10  13
ENDBRANCH   2  10
BRANCH   8  20
ATOM     20  C   UNL     1      32.706 -23.213 -16.233  0.00  0.00    +0.290 C 
BRANCH  20  21
ATOM     21  O   UNL     1      33.605 -22.413 -15.504  0.00  0.00    -0.466 OA
BRANCH  21  23
ATOM     22 CL   UNL     1      38.373 -25.042 -13.304  0.00  0.00    -0.082 Cl
ATOM     23  C   UNL     1      34.723 -23.028 -14.987  0.00  0.00    +0.139 C 
ATOM     24  C   UNL     1      35.972 -22.468 -15.207  0.00  0.00    +0.038 C 
ATOM     25  C   UNL     1      34.580 -24.199 -14.256  0.00  0.00    +0.038 C 
ATOM     26  C   UNL     1      37.105 -23.093 -14.685  0.00  0.00    +0.015 C 
ATOM     27  C   UNL     1      35.713 -24.823 -13.734  0.00  0.00    +0.015 C 
ATOM     28  C   UNL     1      36.975 -24.271 -13.948  0.00  0.00    +0.058 C 
ENDBRANCH  21  23
ENDBRANCH  20  21
ENDBRANCH   8  20
TORSDOF 5
ENDMDL
MODEL 5
REMARK VINA RESULT:     -10.6      8.910     11.861
REMARK  Name = 3351
REMARK  5 active torsions:
REMARK  status: ('A' for Active; 'I' for Inactive)
REMARK    1  A    between atoms: N_2  and  C_10
REMARK    2  A    between atoms: C_8  and  C_20
REMARK    3  A    between atoms: C_10  and  C_13
REMARK    4  A    between atoms: C_20  and  O_21
REMARK    5  A    between atoms: O_21  and  C_23
REMARK                            x       y       z     vdW  Elec       q    Type
REMARK                         _______ _______ _______ _____ _____    ______ ____
ROOT
ATOM      1  O   UNL     1      36.851 -22.570 -13.664  0.00  0.00    -0.271 OA
ATOM      2  N   UNL     1      32.057 -23.906 -13.286  0.00  0.00    +0.392 N 
ATOM      3  N   UNL     1      34.688 -23.229 -14.195  0.00  0.00    -0.281 N 
ATOM      4  C   UNL     1      33.137 -23.655 -12.322  0.00  0.00    -0.055 C 
ATOM      5  C   UNL     1      32.239 -23.081 -14.489  0.00  0.00    -0.055 C 
ATOM      6  C   UNL     1      34.499 -23.961 -12.943  0.00  0.00    +0.071 C 
ATOM      7  C   UNL     1      33.587 -23.369 -15.153  0.00  0.00    +0.071 C 
ATOM      8  C   UNL     1      35.895 -22.578 -14.444  0.00  0.00    +0.270 C 
ATOM      9  H   UNL     1      32.091 -24.888 -13.561  0.00  0.00    -0.079 HD
ENDROOT
BRANCH   2  10
ATOM     10  C   UNL     1      30.753 -23.645 -12.678  0.00  0.00    -0.050 C 
BRANCH  10  13
ATOM     11  O   UNL     1      27.418 -21.573 -15.672  0.00  0.00    -0.435 OA
ATOM     12  O   UNL     1      26.609 -23.710 -16.439  0.00  0.00    -0.435 OA
ATOM     13  C   UNL     1      29.640 -23.701 -13.690  0.00  0.00    -0.040 C 
ATOM     14  C   UNL     1      29.095 -22.513 -14.166  0.00  0.00    +0.034 C 
ATOM     15  C   UNL     1      29.177 -24.947 -14.128  0.00  0.00    -0.003 C 
ATOM     16  C   UNL     1      28.076 -22.614 -15.092  0.00  0.00    +0.176 C 
ATOM     17  C   UNL     1      27.615 -23.834 -15.530  0.00  0.00    +0.176 C 
ATOM     18  C   UNL     1      28.145 -25.020 -15.067  0.00  0.00    +0.040 C 
ATOM     19  C   UNL     1      26.490 -22.275 -16.524  0.00  0.00    +0.429 C 
ENDBRANCH  10  13
ENDBRANCH   2  10
BRANCH   8  20
ATOM     20  C   UNL     1      36.007 -21.842 -15.755  0.00  0.00    +0.290 C 
BRANCH  20  21
ATOM     21  O   UNL     1      35.013 -22.369 -16.599  0.00  0.00    -0.466 OA
BRANCH  21  23
ATOM     22 CL   UNL     1      33.546 -19.218 -21.332  0.00  0.00    -0.082 Cl
ATOM     23  C   UNL     1      34.669 -21.632 -17.710  0.00  0.00    +0.139 C 
ATOM     24  C   UNL     1      35.658 -20.967 -18.419  0.00  0.00    +0.038 C 
ATOM     25  C   UNL     1      33.340 -21.565 -18.099  0.00  0.00    +0.038 C 
ATOM     26  C   UNL     1      35.310 -20.218 -19.543  0.00  0.00    +0.015 C 
ATOM     27  C   UNL     1      32.992 -20.816 -19.223  0.00  0.00    +0.015 C 
ATOM     28  C   UNL     1      33.976 -20.143 -19.945  0.00  0.00    +0.058 C 
ENDBRANCH  21  23
ENDBRANCH  20  21
ENDBRANCH   8  20
TORSDOF 5
ENDMDL
MODEL 6
REMARK VINA RESULT:     -10.6      4.650      6.729
REMARK  Name = 3351
REMARK  5 active torsions:
REMARK  status: ('A' for Active; 'I' for Inactive)
REMARK    1  A    between atoms: N_2  and  C_10
REMARK    2  A    between atoms: C_8  and  C_20
REMARK    3  A    between atoms: C_10  and  C_13
REMARK    4  A    between atoms: C_20  and  O_21
REMARK    5  A    between atoms: O_21  and  C_23
REMARK                            x       y       z     vdW  Elec       q    Type
REMARK                         _______ _______ _______ _____ _____    ______ ____
ROOT
ATOM      1  O   UNL     1      35.456 -21.744 -17.921  0.00  0.00    -0.271 OA
ATOM      2  N   UNL     1      34.414 -18.441 -21.515  0.00  0.00    +0.392 N 
ATOM      3  N   UNL     1      34.324 -20.258 -19.302  0.00  0.00    -0.281 N 
ATOM      4  C   UNL     1      35.648 -19.058 -21.006  0.00  0.00    -0.055 C 
ATOM      5  C   UNL     1      33.275 -19.356 -21.349  0.00  0.00    -0.055 C 
ATOM      6  C   UNL     1      35.502 -19.420 -19.529  0.00  0.00    +0.071 C 
ATOM      7  C   UNL     1      33.084 -19.731 -19.878  0.00  0.00    +0.071 C 
ATOM      8  C   UNL     1      34.420 -21.384 -18.487  0.00  0.00    +0.270 C 
ATOM      9  H   UNL     1      34.230 -17.595 -20.975  0.00  0.00    -0.079 HD
ENDROOT
BRANCH   2  10
ATOM     10  C   UNL     1      34.570 -18.064 -22.919  0.00  0.00    -0.050 C 
BRANCH  10  13
ATOM     11  O   UNL     1      32.614 -14.573 -25.812  0.00  0.00    -0.435 OA
ATOM     12  O   UNL     1      32.643 -12.932 -24.047  0.00  0.00    -0.435 OA
ATOM     13  C   UNL     1      34.059 -16.673 -23.187  0.00  0.00    -0.040 C 
ATOM     14  C   UNL     1      33.576 -16.358 -24.453  0.00  0.00    +0.034 C 
ATOM     15  C   UNL     1      34.080 -15.728 -22.155  0.00  0.00    -0.003 C 
ATOM     16  C   UNL     1      33.119 -15.071 -24.651  0.00  0.00    +0.176 C 
ATOM     17  C   UNL     1      33.136 -14.134 -23.643  0.00  0.00    +0.176 C 
ATOM     18  C   UNL     1      33.611 -14.431 -22.382  0.00  0.00    +0.040 C 
ATOM     19  C   UNL     1      32.314 -13.217 -25.423  0.00  0.00    +0.429 C 
ENDBRANCH  10  13
ENDBRANCH   2  10
BRANCH   8  20
ATOM     20  C   UNL     1      33.163 -22.197 -18.308  0.00  0.00    +0.290 C 
BRANCH  20  21
ATOM     21  O   UNL     1      33.436 -23.147 -17.309  0.00  0.00    -0.466 OA
BRANCH  21  23
ATOM     22 CL   UNL     1      30.075 -23.047 -12.494  0.00  0.00    -0.082 Cl
ATOM     23  C   UNL     1      32.649 -23.122 -16.179  0.00  0.00    +0.139 C 
ATOM     24  C   UNL     1      33.199 -23.478 -14.957  0.00  0.00    +0.038 C 
ATOM     25  C   UNL     1      31.319 -22.743 -16.284  0.00  0.00    +0.038 C 
ATOM     26  C   UNL     1      32.400 -23.455 -13.813  0.00  0.00    +0.015 C 
ATOM     27  C   UNL     1      30.520 -22.720 -15.140  0.00  0.00    +0.015 C 
ATOM     28  C   UNL     1      31.060 -23.075 -13.905  0.00  0.00    +0.058 C 
ENDBRANCH  21  23
ENDBRANCH  20  21
ENDBRANCH   8  20
TORSDOF 5
ENDMDL
MODEL 7
REMARK VINA RESULT:     -10.3      8.174     13.342
REMARK  Name = 3351
REMARK  5 active torsions:
REMARK  status: ('A' for Active; 'I' for Inactive)
REMARK    1  A    between atoms: N_2  and  C_10
REMARK    2  A    between atoms: C_8  and  C_20
REMARK    3  A    between atoms: C_10  and  C_13
REMARK    4  A    between atoms: C_20  and  O_21
REMARK    5  A    between atoms: O_21  and  C_23
REMARK                            x       y       z     vdW  Elec       q    Type
REMARK                         _______ _______ _______ _____ _____    ______ ____
ROOT
ATOM      1  O   UNL     1      30.204 -23.076 -16.229  0.00  0.00    -0.271 OA
ATOM      2  N   UNL     1      33.545 -23.434 -12.538  0.00  0.00    +0.392 N 
ATOM      3  N   UNL     1      32.131 -22.830 -14.955  0.00  0.00    -0.281 N 
ATOM      4  C   UNL     1      32.146 -23.852 -12.708  0.00  0.00    -0.055 C 
ATOM      5  C   UNL     1      34.245 -23.441 -13.830  0.00  0.00    -0.055 C 
ATOM      6  C   UNL     1      31.418 -22.926 -13.682  0.00  0.00    +0.071 C 
ATOM      7  C   UNL     1      33.556 -22.511 -14.832  0.00  0.00    +0.071 C 
ATOM      8  C   UNL     1      31.426 -22.918 -16.154  0.00  0.00    +0.270 C 
ATOM      9  H   UNL     1      33.554 -22.481 -12.171  0.00  0.00    -0.079 HD
ENDROOT
BRANCH   2  10
ATOM     10  C   UNL     1      34.228 -24.301 -11.579  0.00  0.00    -0.050 C 
BRANCH  10  13
ATOM     11  O   UNL     1      38.036 -26.403 -13.915  0.00  0.00    -0.435 OA
ATOM     12  O   UNL     1      39.639 -24.951 -12.852  0.00  0.00    -0.435 OA
ATOM     13  C   UNL     1      35.692 -24.447 -11.898  0.00  0.00    -0.040 C 
ATOM     14  C   UNL     1      36.096 -25.422 -12.805  0.00  0.00    +0.034 C 
ATOM     15  C   UNL     1      36.614 -23.599 -11.275  0.00  0.00    -0.003 C 
ATOM     16  C   UNL     1      37.448 -25.518 -13.065  0.00  0.00    +0.176 C 
ATOM     17  C   UNL     1      38.363 -24.689 -12.458  0.00  0.00    +0.176 C 
ATOM     18  C   UNL     1      37.978 -23.718 -11.557  0.00  0.00    +0.040 C 
ATOM     19  C   UNL     1      39.424 -26.038 -13.776  0.00  0.00    +0.429 C 
ENDBRANCH  10  13
ENDBRANCH   2  10
BRANCH   8  20
ATOM     20  C   UNL     1      32.235 -22.815 -17.422  0.00  0.00    +0.290 C 
BRANCH  20  21
ATOM     21  O   UNL     1      31.727 -21.714 -18.136  0.00  0.00    -0.466 OA
BRANCH  21  23
ATOM     22 CL   UNL     1      35.525 -18.616 -21.370  0.00  0.00    -0.082 Cl
ATOM     23  C   UNL     1      32.617 -20.986 -18.893  0.00  0.00    +0.139 C 
ATOM     24  C   UNL     1      32.137 -20.070 -19.816  0.00  0.00    +0.038 C 
ATOM     25  C   UNL     1      33.980 -21.183 -18.720  0.00  0.00    +0.038 C 
ATOM     26  C   UNL     1      33.039 -19.334 -20.585  0.00  0.00    +0.015 C 
ATOM     27  C   UNL     1      34.882 -20.447 -19.489  0.00  0.00    +0.015 C 
ATOM     28  C   UNL     1      34.412 -19.523 -20.421  0.00  0.00    +0.058 C 
ENDBRANCH  21  23
ENDBRANCH  20  21
ENDBRANCH   8  20
TORSDOF 5
ENDMDL
MODEL 8
REMARK VINA RESULT:     -10.1      6.418     11.935
REMARK  Name = 3351
REMARK  5 active torsions:
REMARK  status: ('A' for Active; 'I' for Inactive)
REMARK    1  A    between atoms: N_2  and  C_10
REMARK    2  A    between atoms: C_8  and  C_20
REMARK    3  A    between atoms: C_10  and  C_13
REMARK    4  A    between atoms: C_20  and  O_21
REMARK    5  A    between atoms: O_21  and  C_23
REMARK                            x       y       z     vdW  Elec       q    Type
REMARK                         _______ _______ _______ _____ _____    ______ ____
ROOT
ATOM      1  O   UNL     1      35.849 -19.346 -19.687  0.00  0.00    -0.271 OA
ATOM      2  N   UNL     1      33.879 -22.659 -16.516  0.00  0.00    +0.392 N 
ATOM      3  N   UNL     1      34.548 -21.049 -18.788  0.00  0.00    -0.281 N 
ATOM      4  C   UNL     1      35.006 -21.718 -16.456  0.00  0.00    -0.055 C 
ATOM      5  C   UNL     1      32.823 -22.142 -17.398  0.00  0.00    -0.055 C 
ATOM      6  C   UNL     1      35.585 -21.478 -17.850  0.00  0.00    +0.071 C 
ATOM      7  C   UNL     1      33.358 -21.903 -18.811  0.00  0.00    +0.071 C 
ATOM      8  C   UNL     1      34.791 -19.980 -19.650  0.00  0.00    +0.270 C 
ATOM      9  H   UNL     1      34.216 -23.543 -16.900  0.00  0.00    -0.079 HD
ENDROOT
BRANCH   2  10
ATOM     10  C   UNL     1      33.350 -22.913 -15.176  0.00  0.00    -0.050 C 
BRANCH  10  13
ATOM     11  O   UNL     1      36.744 -22.778 -11.593  0.00  0.00    -0.435 OA
ATOM     12  O   UNL     1      37.200 -25.137 -11.776  0.00  0.00    -0.435 OA
ATOM     13  C   UNL     1      34.379 -23.546 -14.277  0.00  0.00    -0.040 C 
ATOM     14  C   UNL     1      35.052 -22.754 -13.352  0.00  0.00    +0.034 C 
ATOM     15  C   UNL     1      34.636 -24.917 -14.393  0.00  0.00    -0.003 C 
ATOM     16  C   UNL     1      35.986 -23.378 -12.550  0.00  0.00    +0.176 C 
ATOM     17  C   UNL     1      36.246 -24.725 -12.656  0.00  0.00    +0.176 C 
ATOM     18  C   UNL     1      35.588 -25.523 -13.568  0.00  0.00    +0.040 C 
ATOM     19  C   UNL     1      37.510 -23.898 -11.106  0.00  0.00    +0.429 C 
ENDBRANCH  10  13
ENDBRANCH   2  10
BRANCH   8  20
ATOM     20  C   UNL     1      33.669 -19.597 -20.582  0.00  0.00    +0.290 C 
BRANCH  20  21
ATOM     21  O   UNL     1      34.250 -19.382 -21.844  0.00  0.00    -0.466 OA
BRANCH  21  23
ATOM     22 CL   UNL     1      32.967 -14.352 -24.589  0.00  0.00    -0.082 Cl
ATOM     23  C   UNL     1      33.948 -18.202 -22.487  0.00  0.00    +0.139 C 
ATOM     24  C   UNL     1      33.189 -18.234 -23.647  0.00  0.00    +0.038 C 
ATOM     25  C   UNL     1      34.409 -17.003 -21.964  0.00  0.00    +0.038 C 
ATOM     26  C   UNL     1      32.884 -17.039 -24.300  0.00  0.00    +0.015 C 
ATOM     27  C   UNL     1      34.104 -15.808 -22.617  0.00  0.00    +0.015 C 
ATOM     28  C   UNL     1      33.342 -15.826 -23.784  0.00  0.00    +0.058 C 
ENDBRANCH  21  23
ENDBRANCH  20  21
ENDBRANCH   8  20
TORSDOF 5
ENDMDL
MODEL 9
REMARK VINA RESULT:     -10.1      3.806      6.020
REMARK  Name = 3351
REMARK  5 active torsions:
REMARK  status: ('A' for Active; 'I' for Inactive)
REMARK    1  A    between atoms: N_2  and  C_10
REMARK    2  A    between atoms: C_8  and  C_20
REMARK    3  A    between atoms: C_10  and  C_13
REMARK    4  A    between atoms: C_20  and  O_21
REMARK    5  A    between atoms: O_21  and  C_23
REMARK                            x       y       z     vdW  Elec       q    Type
REMARK                         _______ _______ _______ _____ _____    ______ ____
ROOT
ATOM      1  O   UNL     1      36.077 -20.571 -18.537  0.00  0.00    -0.271 OA
ATOM      2  N   UNL     1      33.937 -17.912 -22.180  0.00  0.00    +0.392 N 
ATOM      3  N   UNL     1      34.494 -19.596 -19.930  0.00  0.00    -0.281 N 
ATOM      4  C   UNL     1      35.311 -18.056 -21.678  0.00  0.00    -0.055 C 
ATOM      5  C   UNL     1      33.183 -19.157 -21.978  0.00  0.00    -0.055 C 
ATOM      6  C   UNL     1      35.311 -18.411 -20.192  0.00  0.00    +0.071 C 
ATOM      7  C   UNL     1      33.144 -19.541 -20.497  0.00  0.00    +0.071 C 
ATOM      8  C   UNL     1      34.977 -20.602 -19.094  0.00  0.00    +0.270 C 
ATOM      9  H   UNL     1      33.478 -17.168 -21.653  0.00  0.00    -0.079 HD
ENDROOT
BRANCH   2  10
ATOM     10  C   UNL     1      33.943 -17.538 -23.593  0.00  0.00    -0.050 C 
BRANCH  10  13
ATOM     11  O   UNL     1      33.707 -12.800 -22.224  0.00  0.00    -0.435 OA
ATOM     12  O   UNL     1      32.516 -12.163 -24.219  0.00  0.00    -0.435 OA
ATOM     13  C   UNL     1      33.543 -16.101 -23.795  0.00  0.00    -0.040 C 
ATOM     14  C   UNL     1      33.870 -15.161 -22.823  0.00  0.00    +0.034 C 
ATOM     15  C   UNL     1      32.851 -15.741 -24.958  0.00  0.00    -0.003 C 
ATOM     16  C   UNL     1      33.483 -13.856 -23.052  0.00  0.00    +0.176 C 
ATOM     17  C   UNL     1      32.803 -13.493 -24.191  0.00  0.00    +0.176 C 
ATOM     18  C   UNL     1      32.471 -14.413 -25.164  0.00  0.00    +0.040 C 
ATOM     19  C   UNL     1      33.093 -11.730 -22.969  0.00  0.00    +0.429 C 
ENDBRANCH  10  13
ENDBRANCH   2  10
BRANCH   8  20
ATOM     20  C   UNL     1      34.076 -21.791 -18.880  0.00  0.00    +0.290 C 
BRANCH  20  21
ATOM     21  O   UNL     1      34.387 -22.309 -17.610  0.00  0.00    -0.466 OA
BRANCH  21  23
ATOM     22 CL   UNL     1      29.965 -22.974 -13.805  0.00  0.00    -0.082 Cl
ATOM     23  C   UNL     1      33.350 -22.467 -16.719  0.00  0.00    +0.139 C 
ATOM     24  C   UNL     1      32.045 -22.303 -17.156  0.00  0.00    +0.038 C 
ATOM     25  C   UNL     1      33.629 -22.786 -15.398  0.00  0.00    +0.038 C 
ATOM     26  C   UNL     1      30.994 -22.460 -16.252  0.00  0.00    +0.015 C 
ATOM     27  C   UNL     1      32.578 -22.943 -14.494  0.00  0.00    +0.015 C 
ATOM     28  C   UNL     1      31.261 -22.780 -14.920  0.00  0.00    +0.058 C 
ENDBRANCH  21  23
ENDBRANCH  20  21
ENDBRANCH   8  20
TORSDOF 5
ENDMDL
