MODEL 1
REMARK VINA RESULT:     -12.4      0.000      0.000
REMARK  Name = 54576693
REMARK  3 active torsions:
REMARK  status: ('A' for Active; 'I' for Inactive)
REMARK    1  A    between atoms: N_2  and  C_19
REMARK    2  A    between atoms: N_4  and  C_14
REMARK    3  A    between atoms: C_19  and  C_24
REMARK                            x       y       z     vdW  Elec       q    Type
REMARK                         _______ _______ _______ _____ _____    ______ ____
ROOT
ATOM      1  O   UNL     1      36.363 -21.096 -16.789  0.00  0.00    -0.252 OA
ATOM      2  N   UNL     1      32.868 -23.463 -14.135  0.00  0.00    +0.392 N 
ATOM      3  N   UNL     1      34.541 -22.403 -16.218  0.00  0.00    -0.268 N 
ATOM      4  N   UNL     1      34.711 -21.465 -18.378  0.00  0.00    -0.266 N 
ATOM      5  C   UNL     1      33.973 -22.553 -13.808  0.00  0.00    -0.055 C 
ATOM      6  C   UNL     1      32.288 -23.104 -15.435  0.00  0.00    -0.055 C 
ATOM      7  C   UNL     1      33.334 -23.170 -16.552  0.00  0.00    +0.072 C 
ATOM      8  C   UNL     1      35.065 -22.640 -14.871  0.00  0.00    +0.072 C 
ATOM      9  C   UNL     1      35.285 -21.601 -17.113  0.00  0.00    +0.308 C 
ATOM     10  H   UNL     1      33.232 -24.414 -14.191  0.00  0.00    -0.079 HD
ATOM     11  H   UNL     1      34.166 -22.222 -18.694  0.00  0.00    +0.156 HD
ENDROOT
BRANCH   4  14
ATOM     12 CL   UNL     1      32.134 -20.446 -19.692  0.00  0.00    -0.081 Cl
ATOM     13  N   UNL     1      36.274 -18.736 -20.308  0.00  0.00    -0.241 NA
ATOM     14  C   UNL     1      34.824 -20.359 -19.256  0.00  0.00    +0.082 C 
ATOM     15  C   UNL     1      33.724 -19.812 -19.910  0.00  0.00    +0.074 C 
ATOM     16  C   UNL     1      36.065 -19.790 -19.488  0.00  0.00    +0.114 C 
ATOM     17  C   UNL     1      33.899 -18.727 -20.763  0.00  0.00    +0.033 C 
ATOM     18  C   UNL     1      35.182 -18.231 -20.926  0.00  0.00    +0.100 C 
ENDBRANCH   4  14
BRANCH   2  19
ATOM     19  C   UNL     1      31.846 -23.426 -13.089  0.00  0.00    -0.050 C 
BRANCH  19  24
ATOM     20  F   UNL     1      25.569 -21.792 -15.018  0.00  0.00    -0.125 F 
ATOM     21  F   UNL     1      26.413 -22.309 -16.970  0.00  0.00    -0.125 F 
ATOM     22  O   UNL     1      27.810 -21.626 -15.319  0.00  0.00    -0.395 OA
ATOM     23  O   UNL     1      26.676 -23.757 -15.245  0.00  0.00    -0.395 OA
ATOM     24  C   UNL     1      30.458 -23.550 -13.658  0.00  0.00    -0.040 C 
ATOM     25  C   UNL     1      29.838 -22.433 -14.224  0.00  0.00    +0.034 C 
ATOM     26  C   UNL     1      29.797 -24.791 -13.615  0.00  0.00    -0.003 C 
ATOM     27  C   UNL     1      28.566 -22.596 -14.733  0.00  0.00    +0.181 C 
ATOM     28  C   UNL     1      27.919 -23.812 -14.691  0.00  0.00    +0.182 C 
ATOM     29  C   UNL     1      28.509 -24.930 -14.138  0.00  0.00    +0.040 C 
ATOM     30  C   UNL     1      26.627 -22.377 -15.632  0.00  0.00    +0.589 C 
ENDBRANCH  19  24
ENDBRANCH   2  19
TORSDOF 3
ENDMDL
MODEL 2
REMARK VINA RESULT:     -11.8      5.029      9.455
REMARK  Name = 54576693
REMARK  3 active torsions:
REMARK  status: ('A' for Active; 'I' for Inactive)
REMARK    1  A    between atoms: N_2  and  C_19
REMARK    2  A    between atoms: N_4  and  C_14
REMARK    3  A    between atoms: C_19  and  C_24
REMARK                            x       y       z     vdW  Elec       q    Type
REMARK                         _______ _______ _______ _____ _____    ______ ____
ROOT
ATOM      1  O   UNL     1      31.146 -22.008 -17.297  0.00  0.00    -0.252 OA
ATOM      2  N   UNL     1      34.403 -19.808 -20.365  0.00  0.00    +0.392 N 
ATOM      3  N   UNL     1      33.047 -21.566 -18.540  0.00  0.00    -0.268 N 
ATOM      4  N   UNL     1      33.156 -22.966 -16.642  0.00  0.00    -0.266 N 
ATOM      5  C   UNL     1      33.068 -19.466 -19.860  0.00  0.00    -0.055 C 
ATOM      6  C   UNL     1      35.162 -20.530 -19.337  0.00  0.00    -0.055 C 
ATOM      7  C   UNL     1      34.446 -21.816 -18.912  0.00  0.00    +0.072 C 
ATOM      8  C   UNL     1      32.301 -20.731 -19.483  0.00  0.00    +0.072 C 
ATOM      9  C   UNL     1      32.357 -22.168 -17.463  0.00  0.00    +0.308 C 
ATOM     10  H   UNL     1      34.300 -20.414 -21.180  0.00  0.00    -0.079 HD
ATOM     11  H   UNL     1      33.923 -23.407 -17.074  0.00  0.00    +0.156 HD
ENDROOT
BRANCH   4  14
ATOM     12 CL   UNL     1      35.688 -23.077 -14.914  0.00  0.00    -0.081 Cl
ATOM     13  N   UNL     1      31.450 -23.632 -13.438  0.00  0.00    -0.241 NA
ATOM     14  C   UNL     1      32.987 -23.212 -15.257  0.00  0.00    +0.082 C 
ATOM     15  C   UNL     1      34.061 -23.285 -14.376  0.00  0.00    +0.074 C 
ATOM     16  C   UNL     1      31.713 -23.391 -14.742  0.00  0.00    +0.114 C 
ATOM     17  C   UNL     1      33.830 -23.531 -13.027  0.00  0.00    +0.033 C 
ATOM     18  C   UNL     1      32.518 -23.695 -12.612  0.00  0.00    +0.100 C 
ENDBRANCH   4  14
BRANCH   2  19
ATOM     19  C   UNL     1      35.119 -18.603 -20.781  0.00  0.00    -0.050 C 
BRANCH  19  24
ATOM     20  F   UNL     1      31.691 -13.872 -24.194  0.00  0.00    -0.125 F 
ATOM     21  F   UNL     1      33.552 -13.857 -25.347  0.00  0.00    -0.125 F 
ATOM     22  O   UNL     1      33.606 -14.552 -23.188  0.00  0.00    -0.395 OA
ATOM     23  O   UNL     1      32.539 -15.842 -24.928  0.00  0.00    -0.395 OA
ATOM     24  C   UNL     1      34.417 -17.894 -21.908  0.00  0.00    -0.040 C 
ATOM     25  C   UNL     1      34.391 -16.498 -21.939  0.00  0.00    +0.034 C 
ATOM     26  C   UNL     1      33.796 -18.646 -22.921  0.00  0.00    -0.003 C 
ATOM     27  C   UNL     1      33.736 -15.893 -22.993  0.00  0.00    +0.181 C 
ATOM     28  C   UNL     1      33.126 -16.630 -23.986  0.00  0.00    +0.182 C 
ATOM     29  C   UNL     1      33.139 -18.009 -23.978  0.00  0.00    +0.040 C 
ATOM     30  C   UNL     1      32.850 -14.542 -24.409  0.00  0.00    +0.589 C 
ENDBRANCH  19  24
ENDBRANCH   2  19
TORSDOF 3
ENDMDL
MODEL 3
REMARK VINA RESULT:     -11.8      6.455      9.956
REMARK  Name = 54576693
REMARK  3 active torsions:
REMARK  status: ('A' for Active; 'I' for Inactive)
REMARK    1  A    between atoms: N_2  and  C_19
REMARK    2  A    between atoms: N_4  and  C_14
REMARK    3  A    between atoms: C_19  and  C_24
REMARK                            x       y       z     vdW  Elec       q    Type
REMARK                         _______ _______ _______ _____ _____    ______ ____
ROOT
ATOM      1  O   UNL     1      32.236 -12.948 -24.970  0.00  0.00    -0.252 OA
ATOM      2  N   UNL     1      34.134 -16.788 -22.419  0.00  0.00    +0.392 N 
ATOM      3  N   UNL     1      32.931 -14.308 -23.233  0.00  0.00    -0.268 N 
ATOM      4  N   UNL     1      32.723 -11.977 -22.919  0.00  0.00    -0.266 N 
ATOM      5  C   UNL     1      33.990 -16.466 -23.844  0.00  0.00    -0.055 C 
ATOM      6  C   UNL     1      34.378 -15.563 -21.647  0.00  0.00    -0.055 C 
ATOM      7  C   UNL     1      33.235 -14.558 -21.817  0.00  0.00    +0.072 C 
ATOM      8  C   UNL     1      32.817 -15.512 -24.058  0.00  0.00    +0.072 C 
ATOM      9  C   UNL     1      32.609 -13.054 -23.800  0.00  0.00    +0.308 C 
ATOM     10  H   UNL     1      33.268 -17.215 -22.090  0.00  0.00    -0.079 HD
ATOM     11  H   UNL     1      32.556 -12.171 -21.969  0.00  0.00    +0.156 HD
ENDROOT
BRANCH   4  14
ATOM     12 CL   UNL     1      31.231  -9.764 -21.408  0.00  0.00    -0.081 Cl
ATOM     13  N   UNL     1      34.391  -9.136 -24.580  0.00  0.00    -0.241 NA
ATOM     14  C   UNL     1      33.051 -10.637 -23.241  0.00  0.00    +0.082 C 
ATOM     15  C   UNL     1      32.440  -9.551 -22.621  0.00  0.00    +0.074 C 
ATOM     16  C   UNL     1      34.011 -10.377 -24.205  0.00  0.00    +0.114 C 
ATOM     17  C   UNL     1      32.804  -8.258 -22.981  0.00  0.00    +0.033 C 
ATOM     18  C   UNL     1      33.776  -8.105 -23.957  0.00  0.00    +0.100 C 
ENDBRANCH   4  14
BRANCH   2  19
ATOM     19  C   UNL     1      35.220 -17.747 -22.217  0.00  0.00    -0.050 C 
BRANCH  19  24
ATOM     20  F   UNL     1      31.726 -21.204 -17.566  0.00  0.00    -0.125 F 
ATOM     21  F   UNL     1      32.226 -22.847 -18.923  0.00  0.00    -0.125 F 
ATOM     22  O   UNL     1      32.145 -20.735 -19.745  0.00  0.00    -0.395 OA
ATOM     23  O   UNL     1      33.879 -21.459 -18.228  0.00  0.00    -0.395 OA
ATOM     24  C   UNL     1      34.895 -18.741 -21.134  0.00  0.00    -0.040 C 
ATOM     25  C   UNL     1      33.594 -19.238 -21.017  0.00  0.00    +0.034 C 
ATOM     26  C   UNL     1      35.905 -19.163 -20.252  0.00  0.00    -0.003 C 
ATOM     27  C   UNL     1      33.344 -20.147 -20.011  0.00  0.00    +0.181 C 
ATOM     28  C   UNL     1      34.334 -20.561 -19.145  0.00  0.00    +0.182 C 
ATOM     29  C   UNL     1      35.626 -20.086 -19.240  0.00  0.00    +0.040 C 
ATOM     30  C   UNL     1      32.503 -21.554 -18.621  0.00  0.00    +0.589 C 
ENDBRANCH  19  24
ENDBRANCH   2  19
TORSDOF 3
ENDMDL
MODEL 4
REMARK VINA RESULT:     -11.6      8.394     12.855
REMARK  Name = 54576693
REMARK  3 active torsions:
REMARK  status: ('A' for Active; 'I' for Inactive)
REMARK    1  A    between atoms: N_2  and  C_19
REMARK    2  A    between atoms: N_4  and  C_14
REMARK    3  A    between atoms: C_19  and  C_24
REMARK                            x       y       z     vdW  Elec       q    Type
REMARK                         _______ _______ _______ _____ _____    ______ ____
ROOT
ATOM      1  O   UNL     1      33.986 -18.862 -23.153  0.00  0.00    -0.252 OA
ATOM      2  N   UNL     1      33.047 -13.970 -23.377  0.00  0.00    +0.392 N 
ATOM      3  N   UNL     1      33.894 -16.611 -22.624  0.00  0.00    -0.268 N 
ATOM      4  N   UNL     1      34.155 -18.231 -20.926  0.00  0.00    -0.266 N 
ATOM      5  C   UNL     1      32.730 -15.122 -24.230  0.00  0.00    -0.055 C 
ATOM      6  C   UNL     1      33.040 -14.371 -21.965  0.00  0.00    -0.055 C 
ATOM      7  C   UNL     1      34.056 -15.485 -21.694  0.00  0.00    +0.072 C 
ATOM      8  C   UNL     1      33.761 -16.231 -24.031  0.00  0.00    +0.072 C 
ATOM      9  C   UNL     1      34.002 -17.980 -22.291  0.00  0.00    +0.308 C 
ATOM     10  H   UNL     1      33.980 -13.632 -23.616  0.00  0.00    -0.079 HD
ATOM     11  H   UNL     1      34.615 -17.535 -20.404  0.00  0.00    +0.156 HD
ENDROOT
BRANCH   4  14
ATOM     12 CL   UNL     1      36.306 -19.913 -19.529  0.00  0.00    -0.081 Cl
ATOM     13  N   UNL     1      31.863 -20.753 -19.511  0.00  0.00    -0.241 NA
ATOM     14  C   UNL     1      33.721 -19.374 -20.209  0.00  0.00    +0.082 C 
ATOM     15  C   UNL     1      34.606 -20.212 -19.537  0.00  0.00    +0.074 C 
ATOM     16  C   UNL     1      32.372 -19.686 -20.165  0.00  0.00    +0.114 C 
ATOM     17  C   UNL     1      34.119 -21.320 -18.852  0.00  0.00    +0.033 C 
ATOM     18  C   UNL     1      32.752 -21.544 -18.869  0.00  0.00    +0.100 C 
ENDBRANCH   4  14
BRANCH   2  19
ATOM     19  C   UNL     1      32.095 -12.884 -23.607  0.00  0.00    -0.050 C 
BRANCH  19  24
ATOM     20  F   UNL     1      33.181  -6.207 -23.427  0.00  0.00    -0.125 F 
ATOM     21  F   UNL     1      34.708  -6.850 -21.997  0.00  0.00    -0.125 F 
ATOM     22  O   UNL     1      32.893  -8.169 -22.328  0.00  0.00    -0.395 OA
ATOM     23  O   UNL     1      34.596  -7.877 -24.015  0.00  0.00    -0.395 OA
ATOM     24  C   UNL     1      32.786 -11.553 -23.744  0.00  0.00    -0.040 C 
ATOM     25  C   UNL     1      32.438 -10.500 -22.895  0.00  0.00    +0.034 C 
ATOM     26  C   UNL     1      33.778 -11.383 -24.727  0.00  0.00    -0.003 C 
ATOM     27  C   UNL     1      33.099  -9.300 -23.058  0.00  0.00    +0.181 C 
ATOM     28  C   UNL     1      34.071  -9.134 -24.022  0.00  0.00    +0.182 C 
ATOM     29  C   UNL     1      34.433 -10.158 -24.872  0.00  0.00    +0.040 C 
ATOM     30  C   UNL     1      33.843  -7.288 -22.946  0.00  0.00    +0.589 C 
ENDBRANCH  19  24
ENDBRANCH   2  19
TORSDOF 3
ENDMDL
MODEL 5
REMARK VINA RESULT:     -11.0      4.964      6.067
REMARK  Name = 54576693
REMARK  3 active torsions:
REMARK  status: ('A' for Active; 'I' for Inactive)
REMARK    1  A    between atoms: N_2  and  C_19
REMARK    2  A    between atoms: N_4  and  C_14
REMARK    3  A    between atoms: C_19  and  C_24
REMARK                            x       y       z     vdW  Elec       q    Type
REMARK                         _______ _______ _______ _____ _____    ______ ____
ROOT
ATOM      1  O   UNL     1      36.347 -19.263 -19.688  0.00  0.00    -0.252 OA
ATOM      2  N   UNL     1      33.749 -22.519 -16.946  0.00  0.00    +0.392 N 
ATOM      3  N   UNL     1      34.777 -20.832 -19.035  0.00  0.00    -0.268 N 
ATOM      4  N   UNL     1      34.340 -19.383 -20.846  0.00  0.00    -0.266 N 
ATOM      5  C   UNL     1      34.880 -21.619 -16.684  0.00  0.00    -0.055 C 
ATOM      6  C   UNL     1      32.834 -21.908 -17.918  0.00  0.00    -0.055 C 
ATOM      7  C   UNL     1      33.543 -21.603 -19.241  0.00  0.00    +0.072 C 
ATOM      8  C   UNL     1      35.649 -21.341 -17.974  0.00  0.00    +0.072 C 
ATOM      9  C   UNL     1      35.235 -19.771 -19.848  0.00  0.00    +0.308 C 
ATOM     10  H   UNL     1      34.108 -23.390 -17.338  0.00  0.00    -0.079 HD
ATOM     11  H   UNL     1      33.749 -20.087 -21.200  0.00  0.00    +0.156 HD
ENDROOT
BRANCH   4  14
ATOM     12 CL   UNL     1      33.824 -19.212 -23.865  0.00  0.00    -0.081 Cl
ATOM     13  N   UNL     1      34.141 -15.703 -21.031  0.00  0.00    -0.241 NA
ATOM     14  C   UNL     1      34.186 -18.091 -21.406  0.00  0.00    +0.082 C 
ATOM     15  C   UNL     1      33.949 -17.890 -22.763  0.00  0.00    +0.074 C 
ATOM     16  C   UNL     1      34.272 -16.974 -20.591  0.00  0.00    +0.114 C 
ATOM     17  C   UNL     1      33.809 -16.596 -23.253  0.00  0.00    +0.033 C 
ATOM     18  C   UNL     1      33.912 -15.547 -22.354  0.00  0.00    +0.100 C 
ENDBRANCH   4  14
BRANCH   2  19
ATOM     19  C   UNL     1      33.045 -22.833 -15.704  0.00  0.00    -0.050 C 
BRANCH  19  24
ATOM     20  F   UNL     1      37.736 -23.313 -10.851  0.00  0.00    -0.125 F 
ATOM     21  F   UNL     1      36.008 -24.074  -9.746  0.00  0.00    -0.125 F 
ATOM     22  O   UNL     1      35.657 -22.684 -11.503  0.00  0.00    -0.395 OA
ATOM     23  O   UNL     1      36.468 -24.941 -11.789  0.00  0.00    -0.395 OA
ATOM     24  C   UNL     1      33.965 -23.429 -14.673  0.00  0.00    -0.040 C 
ATOM     25  C   UNL     1      34.341 -22.674 -13.560  0.00  0.00    +0.034 C 
ATOM     26  C   UNL     1      34.437 -24.744 -14.840  0.00  0.00    -0.003 C 
ATOM     27  C   UNL     1      35.186 -23.264 -12.642  0.00  0.00    +0.181 C 
ATOM     28  C   UNL     1      35.649 -24.552 -12.805  0.00  0.00    +0.182 C 
ATOM     29  C   UNL     1      35.291 -25.318 -13.895  0.00  0.00    +0.040 C 
ATOM     30  C   UNL     1      36.461 -23.755 -10.983  0.00  0.00    +0.589 C 
ENDBRANCH  19  24
ENDBRANCH   2  19
TORSDOF 3
ENDMDL
MODEL 6
REMARK VINA RESULT:     -11.0      4.920      9.322
REMARK  Name = 54576693
REMARK  3 active torsions:
REMARK  status: ('A' for Active; 'I' for Inactive)
REMARK    1  A    between atoms: N_2  and  C_19
REMARK    2  A    between atoms: N_4  and  C_14
REMARK    3  A    between atoms: C_19  and  C_24
REMARK                            x       y       z     vdW  Elec       q    Type
REMARK                         _______ _______ _______ _____ _____    ______ ____
ROOT
ATOM      1  O   UNL     1      30.967 -21.859 -16.962  0.00  0.00    -0.252 OA
ATOM      2  N   UNL     1      34.238 -20.076 -20.276  0.00  0.00    +0.392 N 
ATOM      3  N   UNL     1      32.811 -21.656 -18.345  0.00  0.00    -0.268 N 
ATOM      4  N   UNL     1      32.884 -23.064 -16.451  0.00  0.00    -0.266 N 
ATOM      5  C   UNL     1      32.998 -19.571 -19.675  0.00  0.00    -0.055 C 
ATOM      6  C   UNL     1      34.975 -20.892 -19.302  0.00  0.00    -0.055 C 
ATOM      7  C   UNL     1      34.136 -22.078 -18.817  0.00  0.00    +0.072 C 
ATOM      8  C   UNL     1      32.108 -20.731 -19.236  0.00  0.00    +0.072 C 
ATOM      9  C   UNL     1      32.133 -22.169 -17.216  0.00  0.00    +0.308 C 
ATOM     10  H   UNL     1      33.999 -20.662 -21.077  0.00  0.00    -0.079 HD
ATOM     11  H   UNL     1      33.555 -23.596 -16.936  0.00  0.00    +0.156 HD
ENDROOT
BRANCH   4  14
ATOM     12 CL   UNL     1      30.127 -23.814 -15.336  0.00  0.00    -0.081 Cl
ATOM     13  N   UNL     1      33.924 -23.364 -12.924  0.00  0.00    -0.241 NA
ATOM     14  C   UNL     1      32.788 -23.291 -15.056  0.00  0.00    +0.082 C 
ATOM     15  C   UNL     1      31.590 -23.637 -14.438  0.00  0.00    +0.074 C 
ATOM     16  C   UNL     1      33.916 -23.169 -14.261  0.00  0.00    +0.114 C 
ATOM     17  C   UNL     1      31.559 -23.845 -13.063  0.00  0.00    +0.033 C 
ATOM     18  C   UNL     1      32.743 -23.698 -12.358  0.00  0.00    +0.100 C 
ENDBRANCH   4  14
BRANCH   2  19
ATOM     19  C   UNL     1      35.067 -18.969 -20.751  0.00  0.00    -0.050 C 
BRANCH  19  24
ATOM     20  F   UNL     1      31.795 -14.035 -24.027  0.00  0.00    -0.125 F 
ATOM     21  F   UNL     1      33.672 -14.020 -25.153  0.00  0.00    -0.125 F 
ATOM     22  O   UNL     1      33.680 -14.797 -23.022  0.00  0.00    -0.395 OA
ATOM     23  O   UNL     1      32.608 -15.995 -24.824  0.00  0.00    -0.395 OA
ATOM     24  C   UNL     1      34.397 -18.203 -21.860  0.00  0.00    -0.040 C 
ATOM     25  C   UNL     1      34.403 -16.806 -21.838  0.00  0.00    +0.034 C 
ATOM     26  C   UNL     1      33.773 -18.901 -22.909  0.00  0.00    -0.003 C 
ATOM     27  C   UNL     1      33.776 -16.147 -22.876  0.00  0.00    +0.181 C 
ATOM     28  C   UNL     1      33.164 -16.831 -23.904  0.00  0.00    +0.182 C 
ATOM     29  C   UNL     1      33.146 -18.210 -23.949  0.00  0.00    +0.040 C 
ATOM     30  C   UNL     1      32.942 -14.723 -24.252  0.00  0.00    +0.589 C 
ENDBRANCH  19  24
ENDBRANCH   2  19
TORSDOF 3
ENDMDL
MODEL 7
REMARK VINA RESULT:     -10.7     10.267     13.971
REMARK  Name = 54576693
REMARK  3 active torsions:
REMARK  status: ('A' for Active; 'I' for Inactive)
REMARK    1  A    between atoms: N_2  and  C_19
REMARK    2  A    between atoms: N_4  and  C_14
REMARK    3  A    between atoms: C_19  and  C_24
REMARK                            x       y       z     vdW  Elec       q    Type
REMARK                         _______ _______ _______ _____ _____    ______ ____
ROOT
ATOM      1  O   UNL     1      30.373  -7.918 -21.375  0.00  0.00    -0.252 OA
ATOM      2  N   UNL     1      32.965 -11.906 -22.873  0.00  0.00    +0.392 N 
ATOM      3  N   UNL     1      32.008  -9.251 -22.325  0.00  0.00    -0.268 N 
ATOM      4  N   UNL     1      31.684  -7.037 -23.075  0.00  0.00    -0.266 N 
ATOM      5  C   UNL     1      31.686 -11.706 -22.179  0.00  0.00    -0.055 C 
ATOM      6  C   UNL     1      33.184 -10.828 -23.846  0.00  0.00    -0.055 C 
ATOM      7  C   UNL     1      33.195  -9.455 -23.167  0.00  0.00    +0.072 C 
ATOM      8  C   UNL     1      31.686 -10.371 -21.439  0.00  0.00    +0.072 C 
ATOM      9  C   UNL     1      31.276  -8.049 -22.205  0.00  0.00    +0.308 C 
ATOM     10  H   UNL     1      33.718 -11.883 -22.185  0.00  0.00    -0.079 HD
ATOM     11  H   UNL     1      32.635  -7.039 -23.332  0.00  0.00    +0.156 HD
ENDROOT
BRANCH   4  14
ATOM     12 CL   UNL     1      31.161  -4.566 -21.334  0.00  0.00    -0.081 Cl
ATOM     13  N   UNL     1      29.603  -5.227 -25.527  0.00  0.00    -0.241 NA
ATOM     14  C   UNL     1      30.884  -6.008 -23.631  0.00  0.00    +0.082 C 
ATOM     15  C   UNL     1      30.579  -4.842 -22.935  0.00  0.00    +0.074 C 
ATOM     16  C   UNL     1      30.375  -6.150 -24.912  0.00  0.00    +0.114 C 
ATOM     17  C   UNL     1      29.786  -3.869 -23.535  0.00  0.00    +0.033 C 
ATOM     18  C   UNL     1      29.328  -4.107 -24.820  0.00  0.00    +0.100 C 
ENDBRANCH   4  14
BRANCH   2  19
ATOM     19  C   UNL     1      32.991 -13.209 -23.536  0.00  0.00    -0.050 C 
BRANCH  19  24
ATOM     20  F   UNL     1      34.335 -19.390 -21.131  0.00  0.00    -0.125 F 
ATOM     21  F   UNL     1      36.356 -18.548 -21.087  0.00  0.00    -0.125 F 
ATOM     22  O   UNL     1      34.844 -17.690 -22.543  0.00  0.00    -0.395 OA
ATOM     23  O   UNL     1      34.658 -17.368 -20.157  0.00  0.00    -0.395 OA
ATOM     24  C   UNL     1      33.429 -14.305 -22.600  0.00  0.00    -0.040 C 
ATOM     25  C   UNL     1      33.939 -15.497 -23.120  0.00  0.00    +0.034 C 
ATOM     26  C   UNL     1      33.321 -14.117 -21.211  0.00  0.00    -0.003 C 
ATOM     27  C   UNL     1      34.327 -16.471 -22.224  0.00  0.00    +0.181 C 
ATOM     28  C   UNL     1      34.222 -16.287 -20.862  0.00  0.00    +0.182 C 
ATOM     29  C   UNL     1      33.721 -15.119 -20.324  0.00  0.00    +0.040 C 
ATOM     30  C   UNL     1      35.043 -18.237 -21.231  0.00  0.00    +0.589 C 
ENDBRANCH  19  24
ENDBRANCH   2  19
TORSDOF 3
ENDMDL
MODEL 8
REMARK VINA RESULT:     -10.6      9.334     13.190
REMARK  Name = 54576693
REMARK  3 active torsions:
REMARK  status: ('A' for Active; 'I' for Inactive)
REMARK    1  A    between atoms: N_2  and  C_19
REMARK    2  A    between atoms: N_4  and  C_14
REMARK    3  A    between atoms: C_19  and  C_24
REMARK                            x       y       z     vdW  Elec       q    Type
REMARK                         _______ _______ _______ _____ _____    ______ ____
ROOT
ATOM      1  O   UNL     1      30.940  -9.415 -21.003  0.00  0.00    -0.252 OA
ATOM      2  N   UNL     1      32.901 -13.199 -23.592  0.00  0.00    +0.392 N 
ATOM      3  N   UNL     1      32.311 -10.651 -22.398  0.00  0.00    -0.268 N 
ATOM      4  N   UNL     1      32.165  -8.307 -22.634  0.00  0.00    -0.266 N 
ATOM      5  C   UNL     1      31.730 -13.041 -22.720  0.00  0.00    -0.055 C 
ATOM      6  C   UNL     1      33.142 -11.960 -24.342  0.00  0.00    -0.055 C 
ATOM      7  C   UNL     1      33.375 -10.773 -23.403  0.00  0.00    +0.072 C 
ATOM      8  C   UNL     1      31.954 -11.903 -21.728  0.00  0.00    +0.072 C 
ATOM      9  C   UNL     1      31.735  -9.443 -21.946  0.00  0.00    +0.308 C 
ATOM     10  H   UNL     1      33.717 -13.393 -23.011  0.00  0.00    -0.079 HD
ATOM     11  H   UNL     1      33.079  -8.338 -22.999  0.00  0.00    +0.156 HD
ENDROOT
BRANCH   4  14
ATOM     12 CL   UNL     1      32.058  -6.259 -20.353  0.00  0.00    -0.081 Cl
ATOM     13  N   UNL     1      30.087  -5.821 -24.398  0.00  0.00    -0.241 NA
ATOM     14  C   UNL     1      31.434  -7.116 -22.865  0.00  0.00    +0.082 C 
ATOM     15  C   UNL     1      31.316  -6.116 -21.905  0.00  0.00    +0.074 C 
ATOM     16  C   UNL     1      30.806  -6.920 -24.084  0.00  0.00    +0.114 C 
ATOM     17  C   UNL     1      30.583  -4.969 -22.191  0.00  0.00    +0.033 C 
ATOM     18  C   UNL     1      29.994  -4.870 -23.441  0.00  0.00    +0.100 C 
ENDBRANCH   4  14
BRANCH   2  19
ATOM     19  C   UNL     1      32.713 -14.325 -24.506  0.00  0.00    -0.050 C 
BRANCH  19  24
ATOM     20  F   UNL     1      36.350 -18.828 -21.001  0.00  0.00    -0.125 F 
ATOM     21  F   UNL     1      34.495 -18.896 -19.841  0.00  0.00    -0.125 F 
ATOM     22  O   UNL     1      34.976 -17.024 -21.029  0.00  0.00    -0.395 OA
ATOM     23  O   UNL     1      34.385 -19.109 -22.096  0.00  0.00    -0.395 OA
ATOM     24  C   UNL     1      33.146 -15.627 -23.887  0.00  0.00    -0.040 C 
ATOM     25  C   UNL     1      33.884 -15.619 -22.700  0.00  0.00    +0.034 C 
ATOM     26  C   UNL     1      32.802 -16.841 -24.508  0.00  0.00    -0.003 C 
ATOM     27  C   UNL     1      34.258 -16.837 -22.170  0.00  0.00    +0.181 C 
ATOM     28  C   UNL     1      33.920 -18.027 -22.779  0.00  0.00    +0.182 C 
ATOM     29  C   UNL     1      33.192 -18.061 -23.951  0.00  0.00    +0.040 C 
ATOM     30  C   UNL     1      35.046 -18.458 -21.001  0.00  0.00    +0.589 C 
ENDBRANCH  19  24
ENDBRANCH   2  19
TORSDOF 3
ENDMDL
MODEL 9
REMARK VINA RESULT:     -10.1      9.951     13.245
REMARK  Name = 54576693
REMARK  3 active torsions:
REMARK  status: ('A' for Active; 'I' for Inactive)
REMARK    1  A    between atoms: N_2  and  C_19
REMARK    2  A    between atoms: N_4  and  C_14
REMARK    3  A    between atoms: C_19  and  C_24
REMARK                            x       y       z     vdW  Elec       q    Type
REMARK                         _______ _______ _______ _____ _____    ______ ____
ROOT
ATOM      1  O   UNL     1      34.545 -14.555 -23.625  0.00  0.00    -0.252 OA
ATOM      2  N   UNL     1      31.669 -11.652 -20.767  0.00  0.00    +0.392 N 
ATOM      3  N   UNL     1      33.402 -13.697 -21.806  0.00  0.00    -0.268 N 
ATOM      4  N   UNL     1      33.999 -15.980 -21.877  0.00  0.00    -0.266 N 
ATOM      5  C   UNL     1      32.044 -11.657 -22.187  0.00  0.00    -0.055 C 
ATOM      6  C   UNL     1      31.565 -13.029 -20.269  0.00  0.00    -0.055 C 
ATOM      7  C   UNL     1      32.886 -13.786 -20.433  0.00  0.00    +0.072 C 
ATOM      8  C   UNL     1      33.390 -12.350 -22.379  0.00  0.00    +0.072 C 
ATOM      9  C   UNL     1      34.018 -14.745 -22.527  0.00  0.00    +0.308 C 
ATOM     10  H   UNL     1      32.395 -11.168 -20.238  0.00  0.00    -0.079 HD
ATOM     11  H   UNL     1      34.009 -15.955 -20.892  0.00  0.00    +0.156 HD
ENDROOT
BRANCH   4  14
ATOM     12 CL   UNL     1      35.642 -18.196 -20.536  0.00  0.00    -0.081 Cl
ATOM     13  N   UNL     1      33.121 -18.656 -24.261  0.00  0.00    -0.241 NA
ATOM     14  C   UNL     1      33.967 -17.264 -22.475  0.00  0.00    +0.082 C 
ATOM     15  C   UNL     1      34.672 -18.346 -21.956  0.00  0.00    +0.074 C 
ATOM     16  C   UNL     1      33.213 -17.471 -23.618  0.00  0.00    +0.114 C 
ATOM     17  C   UNL     1      34.602 -19.582 -22.590  0.00  0.00    +0.033 C 
ATOM     18  C   UNL     1      33.819 -19.684 -23.728  0.00  0.00    +0.100 C 
ENDBRANCH   4  14
BRANCH   2  19
ATOM     19  C   UNL     1      30.408 -10.938 -20.571  0.00  0.00    -0.050 C 
BRANCH  19  24
ATOM     20  F   UNL     1      31.578  -4.493 -22.268  0.00  0.00    -0.125 F 
ATOM     21  F   UNL     1      29.567  -4.276 -21.430  0.00  0.00    -0.125 F 
ATOM     22  O   UNL     1      30.196  -6.291 -22.261  0.00  0.00    -0.395 OA
ATOM     23  O   UNL     1      31.140  -5.385 -20.231  0.00  0.00    -0.395 OA
ATOM     24  C   UNL     1      30.619  -9.453 -20.446  0.00  0.00    -0.040 C 
ATOM     25  C   UNL     1      30.265  -8.611 -21.504  0.00  0.00    +0.034 C 
ATOM     26  C   UNL     1      31.168  -8.926 -19.264  0.00  0.00    -0.003 C 
ATOM     27  C   UNL     1      30.476  -7.257 -21.343  0.00  0.00    +0.181 C 
ATOM     28  C   UNL     1      31.015  -6.741 -20.184  0.00  0.00    +0.182 C 
ATOM     29  C   UNL     1      31.371  -7.551 -19.126  0.00  0.00    +0.040 C 
ATOM     30  C   UNL     1      30.621  -5.123 -21.542  0.00  0.00    +0.589 C 
ENDBRANCH  19  24
ENDBRANCH   2  19
TORSDOF 3
ENDMDL
