MODEL 1
REMARK VINA RESULT:     -11.5      0.000      0.000
REMARK  Name = 71226662
REMARK  4 active torsions:
REMARK  status: ('A' for Active; 'I' for Inactive)
REMARK    1  A    between atoms: C_5  and  C_15
REMARK    2  A    between atoms: C_7  and  C_23
REMARK    3  A    between atoms: C_19  and  C_20
REMARK    4  A    between atoms: C_28  and  C_31
REMARK                            x       y       z     vdW  Elec       q    Type
REMARK                         _______ _______ _______ _____ _____    ______ ____
ROOT
ATOM      1  N   UNL     1      31.260  -7.124 -21.155  0.00  0.00    -0.251 N 
ATOM      2  N   UNL     1      31.825  -8.129 -23.052  0.00  0.00    -0.392 NA
ATOM      3  N   UNL     1      30.930  -8.019 -18.550  0.00  0.00    -0.231 NA
ATOM      4  N   UNL     1      31.467 -10.209 -19.089  0.00  0.00    -0.344 N 
ATOM      5  C   UNL     1      31.491  -6.983 -22.494  0.00  0.00    +0.182 C 
ATOM      6  C   UNL     1      31.459  -8.446 -20.840  0.00  0.00    +0.185 C 
ATOM      7  C   UNL     1      31.807  -9.047 -22.027  0.00  0.00    +0.136 C 
ATOM      8  C   UNL     1      30.892  -6.228 -20.173  0.00  0.00    +0.089 C 
ATOM      9  C   UNL     1      31.282  -8.899 -19.468  0.00  0.00    +0.128 C 
ATOM     10  C   UNL     1      30.742  -6.698 -18.924  0.00  0.00    +0.116 C 
ATOM     11  H   UNL     1      31.337 -10.472 -18.149  0.00  0.00    +0.143 HD
ATOM     12  H   UNL     1      31.730 -10.883 -19.757  0.00  0.00    +0.143 HD
ENDROOT
BRANCH   5  15
ATOM     13  O   UNL     1      34.242  -5.556 -23.579  0.00  0.00    -0.260 OA
ATOM     14  N   UNL     1      32.103  -5.581 -24.478  0.00  0.00    -0.263 N 
ATOM     15  C   UNL     1      31.369  -5.650 -23.210  0.00  0.00    +0.143 C 
ATOM     16  C   UNL     1      29.922  -5.329 -23.607  0.00  0.00    +0.030 C 
ATOM     17  C   UNL     1      29.822  -5.817 -25.049  0.00  0.00    +0.024 C 
ATOM     18  C   UNL     1      31.195  -5.498 -25.619  0.00  0.00    +0.095 C 
ATOM     19  C   UNL     1      33.485  -5.485 -24.541  0.00  0.00    +0.293 C 
BRANCH  19  20
ATOM     20  C   UNL     1      34.074  -5.284 -25.846  0.00  0.00    -0.007 C 
ATOM     21  C   UNL     1      34.564  -5.117 -26.929  0.00  0.00    -0.081 C 
ATOM     22  C   UNL     1      35.161  -4.915 -28.249  0.00  0.00    +0.090 C 
ENDBRANCH  19  20
ENDBRANCH   5  15
BRANCH   7  23
ATOM     23  C   UNL     1      32.119 -10.428 -22.232  0.00  0.00    +0.028 C 
ATOM     24  C   UNL     1      31.468 -11.409 -21.482  0.00  0.00    +0.002 C 
ATOM     25  C   UNL     1      33.074 -10.794 -23.181  0.00  0.00    +0.002 C 
ATOM     26  C   UNL     1      31.774 -12.755 -21.681  0.00  0.00    +0.005 C 
ATOM     27  C   UNL     1      33.378 -12.140 -23.380  0.00  0.00    +0.005 C 
ATOM     28  C   UNL     1      32.729 -13.121 -22.630  0.00  0.00    +0.054 C 
BRANCH  28  31
ATOM     29  O   UNL     1      32.771 -15.049 -23.931  0.00  0.00    -0.270 OA
ATOM     30  N   UNL     1      33.629 -15.189 -21.752  0.00  0.00    -0.266 N 
ATOM     31  C   UNL     1      33.046 -14.525 -22.839  0.00  0.00    +0.251 C 
ATOM     32  H   UNL     1      33.788 -14.641 -20.950  0.00  0.00    +0.157 HD
ATOM     33  N   UNL     1      34.568 -16.980 -20.497  0.00  0.00    -0.229 NA
ATOM     34  C   UNL     1      34.019 -16.548 -21.655  0.00  0.00    +0.134 C 
ATOM     35  C   UNL     1      33.811 -17.354 -22.763  0.00  0.00    +0.034 C 
ATOM     36  C   UNL     1      34.190 -18.689 -22.677  0.00  0.00    +0.004 C 
ATOM     37  C   UNL     1      34.924 -18.283 -20.451  0.00  0.00    +0.100 C 
ATOM     38  C   UNL     1      34.758 -19.170 -21.502  0.00  0.00    +0.021 C 
ENDBRANCH  28  31
ENDBRANCH   7  23
TORSDOF 4
ENDMDL
MODEL 2
REMARK VINA RESULT:     -10.2      1.418      2.028
REMARK  Name = 71226662
REMARK  4 active torsions:
REMARK  status: ('A' for Active; 'I' for Inactive)
REMARK    1  A    between atoms: C_5  and  C_15
REMARK    2  A    between atoms: C_7  and  C_23
REMARK    3  A    between atoms: C_19  and  C_20
REMARK    4  A    between atoms: C_28  and  C_31
REMARK                            x       y       z     vdW  Elec       q    Type
REMARK                         _______ _______ _______ _____ _____    ______ ____
ROOT
ATOM      1  N   UNL     1      31.480  -6.738 -23.513  0.00  0.00    -0.251 N 
ATOM      2  N   UNL     1      32.401  -7.958 -25.123  0.00  0.00    -0.392 NA
ATOM      3  N   UNL     1      30.569  -7.328 -20.960  0.00  0.00    -0.231 NA
ATOM      4  N   UNL     1      31.129  -9.571 -21.130  0.00  0.00    -0.344 N 
ATOM      5  C   UNL     1      31.998  -6.752 -24.778  0.00  0.00    +0.182 C 
ATOM      6  C   UNL     1      31.560  -8.018 -23.021  0.00  0.00    +0.185 C 
ATOM      7  C   UNL     1      32.131  -8.754 -24.033  0.00  0.00    +0.136 C 
ATOM      8  C   UNL     1      30.943  -5.732 -22.737  0.00  0.00    +0.089 C 
ATOM      9  C   UNL     1      31.077  -8.311 -21.680  0.00  0.00    +0.128 C 
ATOM     10  C   UNL     1      30.513  -6.056 -21.506  0.00  0.00    +0.116 C 
ATOM     11  H   UNL     1      30.791  -9.725 -20.218  0.00  0.00    +0.143 HD
ATOM     12  H   UNL     1      31.504 -10.320 -21.648  0.00  0.00    +0.143 HD
ENDROOT
BRANCH   5  15
ATOM     13  O   UNL     1      34.848  -5.127 -24.878  0.00  0.00    -0.260 OA
ATOM     14  N   UNL     1      33.250  -5.467 -26.525  0.00  0.00    -0.263 N 
ATOM     15  C   UNL     1      32.079  -5.508 -25.643  0.00  0.00    +0.143 C 
ATOM     16  C   UNL     1      30.891  -5.384 -26.605  0.00  0.00    +0.030 C 
ATOM     17  C   UNL     1      31.405  -6.003 -27.901  0.00  0.00    +0.024 C 
ATOM     18  C   UNL     1      32.866  -5.583 -27.930  0.00  0.00    +0.095 C 
ATOM     19  C   UNL     1      34.533  -5.224 -26.059  0.00  0.00    +0.293 C 
BRANCH  19  20
ATOM     20  C   UNL     1      35.577  -5.072 -27.047  0.00  0.00    -0.007 C 
ATOM     21  C   UNL     1      36.444  -4.946 -27.868  0.00  0.00    -0.081 C 
ATOM     22  C   UNL     1      37.500  -4.792 -28.868  0.00  0.00    +0.090 C 
ENDBRANCH  19  20
ENDBRANCH   5  15
BRANCH   7  23
ATOM     23  C   UNL     1      32.429 -10.153 -24.015  0.00  0.00    +0.028 C 
ATOM     24  C   UNL     1      32.823 -10.767 -22.825  0.00  0.00    +0.002 C 
ATOM     25  C   UNL     1      32.327 -10.903 -25.187  0.00  0.00    +0.002 C 
ATOM     26  C   UNL     1      33.115 -12.131 -22.809  0.00  0.00    +0.005 C 
ATOM     27  C   UNL     1      32.619 -12.266 -25.169  0.00  0.00    +0.005 C 
ATOM     28  C   UNL     1      33.013 -12.881 -23.980  0.00  0.00    +0.054 C 
BRANCH  28  31
ATOM     29  O   UNL     1      33.237 -14.950 -25.020  0.00  0.00    -0.270 OA
ATOM     30  N   UNL     1      33.656 -14.841 -22.714  0.00  0.00    -0.266 N 
ATOM     31  C   UNL     1      33.315 -14.303 -23.962  0.00  0.00    +0.251 C 
ATOM     32  H   UNL     1      33.678 -14.203 -21.964  0.00  0.00    +0.157 HD
ATOM     33  N   UNL     1      34.275 -16.480 -21.104  0.00  0.00    -0.229 NA
ATOM     34  C   UNL     1      33.973 -16.183 -22.388  0.00  0.00    +0.134 C 
ATOM     35  C   UNL     1      33.954 -17.111 -23.416  0.00  0.00    +0.034 C 
ATOM     36  C   UNL     1      34.264 -18.431 -23.107  0.00  0.00    +0.004 C 
ATOM     37  C   UNL     1      34.572 -17.773 -20.841  0.00  0.00    +0.100 C 
ATOM     38  C   UNL     1      34.579 -18.777 -21.797  0.00  0.00    +0.021 C 
ENDBRANCH  28  31
ENDBRANCH   7  23
TORSDOF 4
ENDMDL
MODEL 3
REMARK VINA RESULT:     -10.0      1.661      2.903
REMARK  Name = 71226662
REMARK  4 active torsions:
REMARK  status: ('A' for Active; 'I' for Inactive)
REMARK    1  A    between atoms: C_5  and  C_15
REMARK    2  A    between atoms: C_7  and  C_23
REMARK    3  A    between atoms: C_19  and  C_20
REMARK    4  A    between atoms: C_28  and  C_31
REMARK                            x       y       z     vdW  Elec       q    Type
REMARK                         _______ _______ _______ _____ _____    ______ ____
ROOT
ATOM      1  N   UNL     1      31.851  -7.731 -23.237  0.00  0.00    -0.251 N 
ATOM      2  N   UNL     1      32.885  -8.995 -24.740  0.00  0.00    -0.392 NA
ATOM      3  N   UNL     1      30.679  -8.265 -20.780  0.00  0.00    -0.231 NA
ATOM      4  N   UNL     1      31.182 -10.526 -20.877  0.00  0.00    -0.344 N 
ATOM      5  C   UNL     1      32.488  -7.774 -24.445  0.00  0.00    +0.182 C 
ATOM      6  C   UNL     1      31.842  -9.007 -22.730  0.00  0.00    +0.185 C 
ATOM      7  C   UNL     1      32.486  -9.771 -23.675  0.00  0.00    +0.136 C 
ATOM      8  C   UNL     1      31.273  -6.700 -22.525  0.00  0.00    +0.089 C 
ATOM      9  C   UNL     1      31.223  -9.270 -21.440  0.00  0.00    +0.128 C 
ATOM     10  C   UNL     1      30.716  -6.998 -21.339  0.00  0.00    +0.116 C 
ATOM     11  H   UNL     1      30.753 -10.659 -20.001  0.00  0.00    +0.143 HD
ATOM     12  H   UNL     1      31.582 -11.291 -21.350  0.00  0.00    +0.143 HD
ENDROOT
BRANCH   5  15
ATOM     13  O   UNL     1      29.960  -6.727 -26.259  0.00  0.00    -0.260 OA
ATOM     14  N   UNL     1      31.632  -5.537 -25.177  0.00  0.00    -0.263 N 
ATOM     15  C   UNL     1      32.691  -6.542 -25.309  0.00  0.00    +0.143 C 
ATOM     16  C   UNL     1      33.970  -5.777 -24.946  0.00  0.00    +0.030 C 
ATOM     17  C   UNL     1      33.489  -4.700 -23.979  0.00  0.00    +0.024 C 
ATOM     18  C   UNL     1      32.124  -4.322 -24.532  0.00  0.00    +0.095 C 
ATOM     19  C   UNL     1      30.366  -5.704 -25.719  0.00  0.00    +0.293 C 
BRANCH  19  20
ATOM     20  C   UNL     1      29.459  -4.581 -25.638  0.00  0.00    -0.007 C 
ATOM     21  C   UNL     1      28.707  -3.648 -25.572  0.00  0.00    -0.081 C 
ATOM     22  C   UNL     1      27.789  -2.512 -25.491  0.00  0.00    +0.090 C 
ENDBRANCH  19  20
ENDBRANCH   5  15
BRANCH   7  23
ATOM     23  C   UNL     1      32.737 -11.178 -23.617  0.00  0.00    +0.028 C 
ATOM     24  C   UNL     1      32.494 -11.978 -24.735  0.00  0.00    +0.002 C 
ATOM     25  C   UNL     1      33.225 -11.750 -22.442  0.00  0.00    +0.002 C 
ATOM     26  C   UNL     1      32.738 -13.349 -24.676  0.00  0.00    +0.005 C 
ATOM     27  C   UNL     1      33.469 -13.122 -22.385  0.00  0.00    +0.005 C 
ATOM     28  C   UNL     1      33.226 -13.922 -23.501  0.00  0.00    +0.054 C 
BRANCH  28  31
ATOM     29  O   UNL     1      33.307 -16.039 -24.462  0.00  0.00    -0.270 OA
ATOM     30  N   UNL     1      33.894 -15.849 -22.198  0.00  0.00    -0.266 N 
ATOM     31  C   UNL     1      33.482 -15.352 -23.442  0.00  0.00    +0.251 C 
ATOM     32  H   UNL     1      33.991 -15.182 -21.481  0.00  0.00    +0.157 HD
ATOM     33  N   UNL     1      34.574 -17.442 -20.566  0.00  0.00    -0.229 NA
ATOM     34  C   UNL     1      34.190 -17.187 -21.838  0.00  0.00    +0.134 C 
ATOM     35  C   UNL     1      34.067 -18.157 -22.820  0.00  0.00    +0.034 C 
ATOM     36  C   UNL     1      34.354 -19.473 -22.475  0.00  0.00    +0.004 C 
ATOM     37  C   UNL     1      34.846 -18.733 -20.269  0.00  0.00    +0.100 C 
ATOM     38  C   UNL     1      34.752 -19.775 -21.177  0.00  0.00    +0.021 C 
ENDBRANCH  28  31
ENDBRANCH   7  23
TORSDOF 4
ENDMDL
MODEL 4
REMARK VINA RESULT:      -9.8      1.778      2.598
REMARK  Name = 71226662
REMARK  4 active torsions:
REMARK  status: ('A' for Active; 'I' for Inactive)
REMARK    1  A    between atoms: C_5  and  C_15
REMARK    2  A    between atoms: C_7  and  C_23
REMARK    3  A    between atoms: C_19  and  C_20
REMARK    4  A    between atoms: C_28  and  C_31
REMARK                            x       y       z     vdW  Elec       q    Type
REMARK                         _______ _______ _______ _____ _____    ______ ____
ROOT
ATOM      1  N   UNL     1      31.694  -5.633 -23.532  0.00  0.00    -0.251 N 
ATOM      2  N   UNL     1      32.290  -7.274 -24.901  0.00  0.00    -0.392 NA
ATOM      3  N   UNL     1      31.275  -5.493 -20.792  0.00  0.00    -0.231 NA
ATOM      4  N   UNL     1      31.783  -7.731 -20.463  0.00  0.00    -0.344 N 
ATOM      5  C   UNL     1      31.964  -6.000 -24.820  0.00  0.00    +0.182 C 
ATOM      6  C   UNL     1      31.858  -6.745 -22.742  0.00  0.00    +0.185 C 
ATOM      7  C   UNL     1      32.226  -7.746 -23.610  0.00  0.00    +0.136 C 
ATOM      8  C   UNL     1      31.316  -4.433 -22.965  0.00  0.00    +0.089 C 
ATOM      9  C   UNL     1      31.634  -6.654 -21.307  0.00  0.00    +0.128 C 
ATOM     10  C   UNL     1      31.124  -4.404 -21.636  0.00  0.00    +0.116 C 
ATOM     11  H   UNL     1      31.622  -7.625 -19.497  0.00  0.00    +0.143 HD
ATOM     12  H   UNL     1      32.051  -8.607 -20.824  0.00  0.00    +0.143 HD
ENDROOT
BRANCH   5  15
ATOM     13  O   UNL     1      34.703  -4.408 -25.681  0.00  0.00    -0.260 OA
ATOM     14  N   UNL     1      32.950  -5.200 -26.979  0.00  0.00    -0.263 N 
ATOM     15  C   UNL     1      31.888  -5.028 -25.982  0.00  0.00    +0.143 C 
ATOM     16  C   UNL     1      30.595  -5.185 -26.794  0.00  0.00    +0.030 C 
ATOM     17  C   UNL     1      30.992  -6.115 -27.936  0.00  0.00    +0.024 C 
ATOM     18  C   UNL     1      32.419  -5.691 -28.248  0.00  0.00    +0.095 C 
ATOM     19  C   UNL     1      34.263  -4.819 -26.750  0.00  0.00    +0.293 C 
BRANCH  19  20
ATOM     20  C   UNL     1      35.182  -4.915 -27.862  0.00  0.00    -0.007 C 
ATOM     21  C   UNL     1      35.946  -4.994 -28.785  0.00  0.00    -0.081 C 
ATOM     22  C   UNL     1      36.876  -5.092 -29.909  0.00  0.00    +0.090 C 
ENDBRANCH  19  20
ENDBRANCH   5  15
BRANCH   7  23
ATOM     23  C   UNL     1      32.516  -9.107 -23.278  0.00  0.00    +0.028 C 
ATOM     24  C   UNL     1      31.758  -9.766 -22.309  0.00  0.00    +0.002 C 
ATOM     25  C   UNL     1      33.558  -9.775 -23.921  0.00  0.00    +0.002 C 
ATOM     26  C   UNL     1      32.042 -11.092 -21.985  0.00  0.00    +0.005 C 
ATOM     27  C   UNL     1      33.842 -11.101 -23.596  0.00  0.00    +0.005 C 
ATOM     28  C   UNL     1      33.084 -11.760 -22.628  0.00  0.00    +0.054 C 
BRANCH  28  31
ATOM     29  O   UNL     1      33.822 -13.407 -21.161  0.00  0.00    -0.270 OA
ATOM     30  N   UNL     1      33.152 -14.083 -23.305  0.00  0.00    -0.266 N 
ATOM     31  C   UNL     1      33.379 -13.144 -22.291  0.00  0.00    +0.251 C 
ATOM     32  H   UNL     1      32.797 -13.724 -24.150  0.00  0.00    +0.157 HD
ATOM     33  N   UNL     1      33.078 -16.204 -24.381  0.00  0.00    -0.229 NA
ATOM     34  C   UNL     1      33.369 -15.483 -23.275  0.00  0.00    +0.134 C 
ATOM     35  C   UNL     1      33.868 -16.028 -22.103  0.00  0.00    +0.034 C 
ATOM     36  C   UNL     1      34.085 -17.401 -22.064  0.00  0.00    +0.004 C 
ATOM     37  C   UNL     1      33.300 -17.536 -24.306  0.00  0.00    +0.100 C 
ATOM     38  C   UNL     1      33.797 -18.176 -23.182  0.00  0.00    +0.021 C 
ENDBRANCH  28  31
ENDBRANCH   7  23
TORSDOF 4
ENDMDL
MODEL 5
REMARK VINA RESULT:      -8.8      2.188      3.102
REMARK  Name = 71226662
REMARK  4 active torsions:
REMARK  status: ('A' for Active; 'I' for Inactive)
REMARK    1  A    between atoms: C_5  and  C_15
REMARK    2  A    between atoms: C_7  and  C_23
REMARK    3  A    between atoms: C_19  and  C_20
REMARK    4  A    between atoms: C_28  and  C_31
REMARK                            x       y       z     vdW  Elec       q    Type
REMARK                         _______ _______ _______ _____ _____    ______ ____
ROOT
ATOM      1  N   UNL     1      31.841  -6.315 -23.880  0.00  0.00    -0.251 N 
ATOM      2  N   UNL     1      32.926  -7.574 -25.351  0.00  0.00    -0.392 NA
ATOM      3  N   UNL     1      30.456  -6.880 -21.544  0.00  0.00    -0.231 NA
ATOM      4  N   UNL     1      30.855  -9.159 -21.697  0.00  0.00    -0.344 N 
ATOM      5  C   UNL     1      32.568  -6.346 -25.037  0.00  0.00    +0.182 C 
ATOM      6  C   UNL     1      31.731  -7.608 -23.429  0.00  0.00    +0.185 C 
ATOM      7  C   UNL     1      32.408  -8.368 -24.354  0.00  0.00    +0.136 C 
ATOM      8  C   UNL     1      31.261  -5.284 -23.172  0.00  0.00    +0.089 C 
ATOM      9  C   UNL     1      31.001  -7.887 -22.201  0.00  0.00    +0.128 C 
ATOM     10  C   UNL     1      30.599  -5.597 -22.045  0.00  0.00    +0.116 C 
ATOM     11  H   UNL     1      30.352  -9.303 -20.862  0.00  0.00    +0.143 HD
ATOM     12  H   UNL     1      31.253  -9.925 -22.169  0.00  0.00    +0.143 HD
ENDROOT
BRANCH   5  15
ATOM     13  O   UNL     1      31.766  -6.281 -28.220  0.00  0.00    -0.260 OA
ATOM     14  N   UNL     1      31.785  -4.585 -26.637  0.00  0.00    -0.263 N 
ATOM     15  C   UNL     1      32.898  -5.095 -25.830  0.00  0.00    +0.143 C 
ATOM     16  C   UNL     1      33.271  -3.911 -24.929  0.00  0.00    +0.030 C 
ATOM     17  C   UNL     1      31.959  -3.148 -24.769  0.00  0.00    +0.024 C 
ATOM     18  C   UNL     1      31.299  -3.304 -26.129  0.00  0.00    +0.095 C 
ATOM     19  C   UNL     1      31.354  -5.205 -27.800  0.00  0.00    +0.293 C 
BRANCH  19  20
ATOM     20  C   UNL     1      30.340  -4.526 -28.574  0.00  0.00    -0.007 C 
ATOM     21  C   UNL     1      29.497  -3.962 -29.217  0.00  0.00    -0.081 C 
ATOM     22  C   UNL     1      28.471  -3.275 -30.000  0.00  0.00    +0.090 C 
ENDBRANCH  19  20
ENDBRANCH   5  15
BRANCH   7  23
ATOM     23  C   UNL     1      32.585  -9.787 -24.335  0.00  0.00    +0.028 C 
ATOM     24  C   UNL     1      32.323 -10.538 -25.482  0.00  0.00    +0.002 C 
ATOM     25  C   UNL     1      33.019 -10.420 -23.170  0.00  0.00    +0.002 C 
ATOM     26  C   UNL     1      32.495 -11.922 -25.463  0.00  0.00    +0.005 C 
ATOM     27  C   UNL     1      33.190 -11.804 -23.152  0.00  0.00    +0.005 C 
ATOM     28  C   UNL     1      32.928 -12.556 -24.297  0.00  0.00    +0.054 C 
BRANCH  28  31
ATOM     29  O   UNL     1      32.821 -14.655 -25.293  0.00  0.00    -0.270 OA
ATOM     30  N   UNL     1      33.583 -14.541 -23.077  0.00  0.00    -0.266 N 
ATOM     31  C   UNL     1      33.109 -13.999 -24.279  0.00  0.00    +0.251 C 
ATOM     32  H   UNL     1      33.769 -13.893 -22.358  0.00  0.00    +0.157 HD
ATOM     33  N   UNL     1      34.292 -16.199 -21.524  0.00  0.00    -0.229 NA
ATOM     34  C   UNL     1      33.830 -15.899 -22.759  0.00  0.00    +0.134 C 
ATOM     35  C   UNL     1      33.581 -16.841 -23.744  0.00  0.00    +0.034 C 
ATOM     36  C   UNL     1      33.820 -18.177 -23.441  0.00  0.00    +0.004 C 
ATOM     37  C   UNL     1      34.513 -17.507 -21.267  0.00  0.00    +0.100 C 
ATOM     38  C   UNL     1      34.295 -18.525 -22.181  0.00  0.00    +0.021 C 
ENDBRANCH  28  31
ENDBRANCH   7  23
TORSDOF 4
ENDMDL
MODEL 6
REMARK VINA RESULT:      -8.8      2.120      4.453
REMARK  Name = 71226662
REMARK  4 active torsions:
REMARK  status: ('A' for Active; 'I' for Inactive)
REMARK    1  A    between atoms: C_5  and  C_15
REMARK    2  A    between atoms: C_7  and  C_23
REMARK    3  A    between atoms: C_19  and  C_20
REMARK    4  A    between atoms: C_28  and  C_31
REMARK                            x       y       z     vdW  Elec       q    Type
REMARK                         _______ _______ _______ _____ _____    ______ ____
ROOT
ATOM      1  N   UNL     1      32.228  -7.173 -22.507  0.00  0.00    -0.251 N 
ATOM      2  N   UNL     1      30.951  -8.879 -21.886  0.00  0.00    -0.392 NA
ATOM      3  N   UNL     1      34.705  -6.997 -23.744  0.00  0.00    -0.231 NA
ATOM      4  N   UNL     1      34.946  -9.298 -23.893  0.00  0.00    -0.344 N 
ATOM      5  C   UNL     1      31.056  -7.567 -21.924  0.00  0.00    +0.182 C 
ATOM      6  C   UNL     1      32.913  -8.309 -22.863  0.00  0.00    +0.185 C 
ATOM      7  C   UNL     1      32.105  -9.350 -22.469  0.00  0.00    +0.136 C 
ATOM      8  C   UNL     1      32.770  -5.931 -22.762  0.00  0.00    +0.089 C 
ATOM      9  C   UNL     1      34.211  -8.199 -23.511  0.00  0.00    +0.128 C 
ATOM     10  C   UNL     1      33.971  -5.886 -23.364  0.00  0.00    +0.116 C 
ATOM     11  H   UNL     1      35.821  -9.178 -24.329  0.00  0.00    +0.143 HD
ATOM     12  H   UNL     1      34.598 -10.205 -23.730  0.00  0.00    +0.143 HD
ENDROOT
BRANCH   5  15
ATOM     13  O   UNL     1      30.353  -7.630 -18.718  0.00  0.00    -0.260 OA
ATOM     14  N   UNL     1      30.458  -5.849 -20.202  0.00  0.00    -0.263 N 
ATOM     15  C   UNL     1      30.030  -6.579 -21.400  0.00  0.00    +0.143 C 
ATOM     16  C   UNL     1      29.713  -5.470 -22.411  0.00  0.00    +0.030 C 
ATOM     17  C   UNL     1      30.638  -4.328 -22.001  0.00  0.00    +0.024 C 
ATOM     18  C   UNL     1      30.665  -4.431 -20.484  0.00  0.00    +0.095 C 
ATOM     19  C   UNL     1      30.528  -6.439 -18.948  0.00  0.00    +0.293 C 
BRANCH  19  20
ATOM     20  C   UNL     1      30.830  -5.576 -17.829  0.00  0.00    -0.007 C 
ATOM     21  C   UNL     1      31.081  -4.859 -16.899  0.00  0.00    -0.081 C 
ATOM     22  C   UNL     1      31.386  -3.986 -15.766  0.00  0.00    +0.090 C 
ENDBRANCH  19  20
ENDBRANCH   5  15
BRANCH   7  23
ATOM     23  C   UNL     1      32.372 -10.748 -22.619  0.00  0.00    +0.028 C 
ATOM     24  C   UNL     1      32.857 -11.240 -23.832  0.00  0.00    +0.002 C 
ATOM     25  C   UNL     1      32.146 -11.619 -21.553  0.00  0.00    +0.002 C 
ATOM     26  C   UNL     1      33.116 -12.603 -23.977  0.00  0.00    +0.005 C 
ATOM     27  C   UNL     1      32.405 -12.981 -21.699  0.00  0.00    +0.005 C 
ATOM     28  C   UNL     1      32.890 -13.474 -22.911  0.00  0.00    +0.054 C 
BRANCH  28  31
ATOM     29  O   UNL     1      32.864 -15.454 -24.131  0.00  0.00    -0.270 OA
ATOM     30  N   UNL     1      33.730 -15.531 -21.951  0.00  0.00    -0.266 N 
ATOM     31  C   UNL     1      33.161 -14.894 -23.063  0.00  0.00    +0.251 C 
ATOM     32  H   UNL     1      33.911 -14.955 -21.174  0.00  0.00    +0.157 HD
ATOM     33  N   UNL     1      34.619 -17.297 -20.628  0.00  0.00    -0.229 NA
ATOM     34  C   UNL     1      34.078 -16.896 -21.800  0.00  0.00    +0.134 C 
ATOM     35  C   UNL     1      33.839 -17.740 -22.873  0.00  0.00    +0.034 C 
ATOM     36  C   UNL     1      34.176 -19.081 -22.734  0.00  0.00    +0.004 C 
ATOM     37  C   UNL     1      34.935 -18.608 -20.530  0.00  0.00    +0.100 C 
ATOM     38  C   UNL     1      34.736 -19.532 -21.543  0.00  0.00    +0.021 C 
ENDBRANCH  28  31
ENDBRANCH   7  23
TORSDOF 4
ENDMDL
MODEL 7
REMARK VINA RESULT:      -8.5      1.881      4.415
REMARK  Name = 71226662
REMARK  4 active torsions:
REMARK  status: ('A' for Active; 'I' for Inactive)
REMARK    1  A    between atoms: C_5  and  C_15
REMARK    2  A    between atoms: C_7  and  C_23
REMARK    3  A    between atoms: C_19  and  C_20
REMARK    4  A    between atoms: C_28  and  C_31
REMARK                            x       y       z     vdW  Elec       q    Type
REMARK                         _______ _______ _______ _____ _____    ______ ____
ROOT
ATOM      1  N   UNL     1      32.482  -7.165 -24.094  0.00  0.00    -0.251 N 
ATOM      2  N   UNL     1      31.326  -8.768 -23.084  0.00  0.00    -0.392 NA
ATOM      3  N   UNL     1      34.771  -7.166 -25.662  0.00  0.00    -0.231 NA
ATOM      4  N   UNL     1      35.028  -9.466 -25.527  0.00  0.00    -0.344 N 
ATOM      5  C   UNL     1      31.403  -7.473 -23.313  0.00  0.00    +0.182 C 
ATOM      6  C   UNL     1      33.132  -8.341 -24.380  0.00  0.00    +0.185 C 
ATOM      7  C   UNL     1      32.400  -9.317 -23.745  0.00  0.00    +0.136 C 
ATOM      8  C   UNL     1      32.965  -5.971 -24.586  0.00  0.00    +0.089 C 
ATOM      9  C   UNL     1      34.332  -8.323 -25.204  0.00  0.00    +0.128 C 
ATOM     10  C   UNL     1      34.075  -6.011 -25.342  0.00  0.00    +0.116 C 
ATOM     11  H   UNL     1      35.835  -9.408 -26.088  0.00  0.00    +0.143 HD
ATOM     12  H   UNL     1      34.719 -10.341 -25.197  0.00  0.00    +0.143 HD
ENDROOT
BRANCH   5  15
ATOM     13  O   UNL     1      30.322  -7.756 -20.227  0.00  0.00    -0.260 OA
ATOM     14  N   UNL     1      30.802  -5.868 -21.487  0.00  0.00    -0.263 N 
ATOM     15  C   UNL     1      30.439  -6.421 -22.796  0.00  0.00    +0.143 C 
ATOM     16  C   UNL     1      30.371  -5.190 -23.709  0.00  0.00    +0.030 C 
ATOM     17  C   UNL     1      31.363  -4.215 -23.080  0.00  0.00    +0.024 C 
ATOM     18  C   UNL     1      31.198  -4.466 -21.590  0.00  0.00    +0.095 C 
ATOM     19  C   UNL     1      30.655  -6.579 -20.305  0.00  0.00    +0.293 C 
BRANCH  19  20
ATOM     20  C   UNL     1      30.918  -5.871 -19.072  0.00  0.00    -0.007 C 
ATOM     21  C   UNL     1      31.135  -5.283 -18.048  0.00  0.00    -0.081 C 
ATOM     22  C   UNL     1      31.400  -4.568 -16.801  0.00  0.00    +0.090 C 
ENDBRANCH  19  20
ENDBRANCH   5  15
BRANCH   7  23
ATOM     23  C   UNL     1      32.668 -10.722 -23.738  0.00  0.00    +0.028 C 
ATOM     24  C   UNL     1      33.091 -11.347 -22.563  0.00  0.00    +0.002 C 
ATOM     25  C   UNL     1      32.506 -11.469 -24.905  0.00  0.00    +0.002 C 
ATOM     26  C   UNL     1      33.352 -12.716 -22.557  0.00  0.00    +0.005 C 
ATOM     27  C   UNL     1      32.767 -12.839 -24.898  0.00  0.00    +0.005 C 
ATOM     28  C   UNL     1      33.190 -13.463 -23.724  0.00  0.00    +0.054 C 
BRANCH  28  31
ATOM     29  O   UNL     1      33.383 -15.526 -24.782  0.00  0.00    -0.270 OA
ATOM     30  N   UNL     1      33.774 -15.449 -22.470  0.00  0.00    -0.266 N 
ATOM     31  C   UNL     1      33.461 -14.892 -23.717  0.00  0.00    +0.251 C 
ATOM     32  H   UNL     1      33.800 -14.819 -21.713  0.00  0.00    +0.157 HD
ATOM     33  N   UNL     1      34.336 -17.118 -20.870  0.00  0.00    -0.229 NA
ATOM     34  C   UNL     1      34.058 -16.801 -22.155  0.00  0.00    +0.134 C 
ATOM     35  C   UNL     1      34.032 -17.719 -23.192  0.00  0.00    +0.034 C 
ATOM     36  C   UNL     1      34.308 -19.048 -22.893  0.00  0.00    +0.004 C 
ATOM     37  C   UNL     1      34.600 -18.420 -20.617  0.00  0.00    +0.100 C 
ATOM     38  C   UNL     1      34.599 -19.414 -21.583  0.00  0.00    +0.021 C 
ENDBRANCH  28  31
ENDBRANCH   7  23
TORSDOF 4
ENDMDL
MODEL 8
REMARK VINA RESULT:      -8.5      2.080      3.138
REMARK  Name = 71226662
REMARK  4 active torsions:
REMARK  status: ('A' for Active; 'I' for Inactive)
REMARK    1  A    between atoms: C_5  and  C_15
REMARK    2  A    between atoms: C_7  and  C_23
REMARK    3  A    between atoms: C_19  and  C_20
REMARK    4  A    between atoms: C_28  and  C_31
REMARK                            x       y       z     vdW  Elec       q    Type
REMARK                         _______ _______ _______ _____ _____    ______ ____
ROOT
ATOM      1  N   UNL     1      31.279  -5.764 -21.321  0.00  0.00    -0.251 N 
ATOM      2  N   UNL     1      31.854  -6.681 -23.258  0.00  0.00    -0.392 NA
ATOM      3  N   UNL     1      30.941  -6.774 -18.760  0.00  0.00    -0.231 NA
ATOM      4  N   UNL     1      31.486  -8.937 -19.393  0.00  0.00    -0.344 N 
ATOM      5  C   UNL     1      31.515  -5.562 -22.652  0.00  0.00    +0.182 C 
ATOM      6  C   UNL     1      31.481  -7.098 -21.065  0.00  0.00    +0.185 C 
ATOM      7  C   UNL     1      31.835  -7.644 -22.276  0.00  0.00    +0.136 C 
ATOM      8  C   UNL     1      30.904  -4.913 -20.302  0.00  0.00    +0.089 C 
ATOM      9  C   UNL     1      31.299  -7.611 -19.715  0.00  0.00    +0.128 C 
ATOM     10  C   UNL     1      30.751  -5.439 -19.075  0.00  0.00    +0.116 C 
ATOM     11  H   UNL     1      31.353  -9.241 -18.466  0.00  0.00    +0.143 HD
ATOM     12  H   UNL     1      31.754  -9.580 -20.089  0.00  0.00    +0.143 HD
ENDROOT
BRANCH   5  15
ATOM     13  O   UNL     1      30.223  -5.415 -25.666  0.00  0.00    -0.260 OA
ATOM     14  N   UNL     1      30.071  -3.931 -23.888  0.00  0.00    -0.263 N 
ATOM     15  C   UNL     1      31.392  -4.200 -23.309  0.00  0.00    +0.143 C 
ATOM     16  C   UNL     1      31.597  -3.049 -22.315  0.00  0.00    +0.030 C 
ATOM     17  C   UNL     1      30.180  -2.681 -21.885  0.00  0.00    +0.024 C 
ATOM     18  C   UNL     1      29.370  -2.879 -23.157  0.00  0.00    +0.095 C 
ATOM     19  C   UNL     1      29.628  -4.532 -25.057  0.00  0.00    +0.293 C 
BRANCH  19  20
ATOM     20  C   UNL     1      28.366  -4.077 -25.596  0.00  0.00    -0.007 C 
ATOM     21  C   UNL     1      27.317  -3.700 -26.043  0.00  0.00    -0.081 C 
ATOM     22  C   UNL     1      26.040  -3.241 -26.588  0.00  0.00    +0.090 C 
ENDBRANCH  19  20
ENDBRANCH   5  15
BRANCH   7  23
ATOM     23  C   UNL     1      32.151  -9.014 -22.540  0.00  0.00    +0.028 C 
ATOM     24  C   UNL     1      33.121  -9.336 -23.491  0.00  0.00    +0.002 C 
ATOM     25  C   UNL     1      31.490 -10.029 -21.847  0.00  0.00    +0.002 C 
ATOM     26  C   UNL     1      33.428 -10.672 -23.749  0.00  0.00    +0.005 C 
ATOM     27  C   UNL     1      31.798 -11.364 -22.105  0.00  0.00    +0.005 C 
ATOM     28  C   UNL     1      32.766 -11.686 -23.056  0.00  0.00    +0.054 C 
BRANCH  28  31
ATOM     29  O   UNL     1      33.003 -13.504 -24.488  0.00  0.00    -0.270 OA
ATOM     30  N   UNL     1      33.456 -13.847 -22.211  0.00  0.00    -0.266 N 
ATOM     31  C   UNL     1      33.088 -13.079 -23.324  0.00  0.00    +0.251 C 
ATOM     32  H   UNL     1      33.480 -13.370 -21.350  0.00  0.00    +0.157 HD
ATOM     33  N   UNL     1      34.122 -15.763 -20.967  0.00  0.00    -0.229 NA
ATOM     34  C   UNL     1      33.796 -15.222 -22.163  0.00  0.00    +0.134 C 
ATOM     35  C   UNL     1      33.774 -15.929 -23.354  0.00  0.00    +0.034 C 
ATOM     36  C   UNL     1      34.106 -17.278 -23.317  0.00  0.00    +0.004 C 
ATOM     37  C   UNL     1      34.440 -17.077 -20.970  0.00  0.00    +0.100 C 
ATOM     38  C   UNL     1      34.446 -17.871 -22.106  0.00  0.00    +0.021 C 
ENDBRANCH  28  31
ENDBRANCH   7  23
TORSDOF 4
ENDMDL
