MODEL 1
REMARK VINA RESULT:     -12.7      0.000      0.000
REMARK  Name = 11740318
REMARK  5 active torsions:
REMARK  status: ('A' for Active; 'I' for Inactive)
REMARK    1  A    between atoms: N_1  and  C_20
REMARK    2  A    between atoms: C_2  and  O_8
REMARK    3  A    between atoms: O_8  and  C_9
REMARK    4  A    between atoms: C_14  and  N_15
REMARK    5  A    between atoms: C_20  and  C_23
REMARK                            x       y       z     vdW  Elec       q    Type
REMARK                         _______ _______ _______ _____ _____    ______ ____
ROOT
ATOM      1  N   UNL     1      33.047 -23.153 -13.405  0.00  0.00    +0.392 N 
ATOM      2  C   UNL     1      32.919 -22.625 -15.821  0.00  0.00    +0.145 C 
ATOM      3  C   UNL     1      33.618 -23.438 -14.727  0.00  0.00    -0.032 C 
ATOM      4  C   UNL     1      31.413 -22.868 -15.811  0.00  0.00    +0.039 C 
ATOM      5  C   UNL     1      30.845 -22.645 -14.416  0.00  0.00    -0.019 C 
ATOM      6  C   UNL     1      31.610 -23.458 -13.369  0.00  0.00    -0.077 C 
ATOM      7  H   UNL     1      33.160 -22.156 -13.223  0.00  0.00    -0.079 HD
ENDROOT
BRANCH   2   8
ATOM      8  O   UNL     1      33.430 -22.995 -17.097  0.00  0.00    -0.481 OA
BRANCH   8   9
ATOM      9  C   UNL     1      33.572 -21.993 -18.018  0.00  0.00    +0.138 C 
ATOM     10  C   UNL     1      34.843 -21.535 -18.348  0.00  0.00    +0.038 C 
ATOM     11  C   UNL     1      32.444 -21.441 -18.617  0.00  0.00    +0.038 C 
ATOM     12  C   UNL     1      34.988 -20.513 -19.288  0.00  0.00    +0.018 C 
ATOM     13  C   UNL     1      32.589 -20.420 -19.555  0.00  0.00    +0.018 C 
ATOM     14  C   UNL     1      33.861 -19.957 -19.891  0.00  0.00    +0.057 C 
BRANCH  14  15
ATOM     15  N   UNL     1      34.005 -18.945 -20.823  0.00  0.00    -0.246 N 
ATOM     16  N   UNL     1      33.866 -17.854 -22.762  0.00  0.00    -0.224 NA
ATOM     17  C   UNL     1      34.587 -17.720 -20.617  0.00  0.00    +0.092 C 
ATOM     18  C   UNL     1      33.587 -18.972 -22.130  0.00  0.00    +0.172 C 
ATOM     19  C   UNL     1      34.489 -17.069 -21.824  0.00  0.00    +0.117 C 
ENDBRANCH  14  15
ENDBRANCH   8   9
ENDBRANCH   2   8
BRANCH   1  20
ATOM     20  C   UNL     1      33.756 -23.902 -12.368  0.00  0.00    -0.050 C 
BRANCH  20  23
ATOM     21  O   UNL     1      38.654 -24.393 -12.743  0.00  0.00    -0.435 OA
ATOM     22  O   UNL     1      38.468 -26.241 -14.278  0.00  0.00    -0.435 OA
ATOM     23  C   UNL     1      35.003 -24.555 -12.902  0.00  0.00    -0.040 C 
ATOM     24  C   UNL     1      36.246 -24.080 -12.498  0.00  0.00    +0.034 C 
ATOM     25  C   UNL     1      34.884 -25.628 -13.794  0.00  0.00    -0.003 C 
ATOM     26  C   UNL     1      37.359 -24.711 -13.014  0.00  0.00    +0.176 C 
ATOM     27  C   UNL     1      36.027 -26.249 -14.300  0.00  0.00    +0.040 C 
ATOM     28  C   UNL     1      37.253 -25.766 -13.891  0.00  0.00    +0.176 C 
ATOM     29  C   UNL     1      39.351 -25.367 -13.547  0.00  0.00    +0.429 C 
ENDBRANCH  20  23
ENDBRANCH   1  20
TORSDOF 5
ENDMDL
MODEL 2
REMARK VINA RESULT:     -12.3      4.637      8.828
REMARK  Name = 11740318
REMARK  5 active torsions:
REMARK  status: ('A' for Active; 'I' for Inactive)
REMARK    1  A    between atoms: N_1  and  C_20
REMARK    2  A    between atoms: C_2  and  O_8
REMARK    3  A    between atoms: O_8  and  C_9
REMARK    4  A    between atoms: C_14  and  N_15
REMARK    5  A    between atoms: C_20  and  C_23
REMARK                            x       y       z     vdW  Elec       q    Type
REMARK                         _______ _______ _______ _____ _____    ______ ____
ROOT
ATOM      1  N   UNL     1      34.118 -18.631 -21.601  0.00  0.00    +0.392 N 
ATOM      2  C   UNL     1      33.812 -16.399 -22.627  0.00  0.00    +0.145 C 
ATOM      3  C   UNL     1      34.628 -17.255 -21.653  0.00  0.00    -0.032 C 
ATOM      4  C   UNL     1      33.781 -17.025 -24.018  0.00  0.00    +0.039 C 
ATOM      5  C   UNL     1      33.326 -18.476 -23.940  0.00  0.00    -0.019 C 
ATOM      6  C   UNL     1      34.157 -19.264 -22.926  0.00  0.00    -0.077 C 
ATOM      7  H   UNL     1      33.144 -18.593 -21.299  0.00  0.00    -0.079 HD
ENDROOT
BRANCH   2   8
ATOM      8  O   UNL     1      34.390 -15.102 -22.727  0.00  0.00    -0.481 OA
BRANCH   8   9
ATOM      9  C   UNL     1      33.642 -14.056 -22.258  0.00  0.00    +0.138 C 
ATOM     10  C   UNL     1      33.062 -14.134 -20.996  0.00  0.00    +0.038 C 
ATOM     11  C   UNL     1      33.468 -12.924 -23.047  0.00  0.00    +0.038 C 
ATOM     12  C   UNL     1      32.299 -13.068 -20.518  0.00  0.00    +0.018 C 
ATOM     13  C   UNL     1      32.705 -11.859 -22.570  0.00  0.00    +0.018 C 
ATOM     14  C   UNL     1      32.121 -11.931 -21.305  0.00  0.00    +0.057 C 
BRANCH  14  15
ATOM     15  N   UNL     1      31.365 -10.874 -20.831  0.00  0.00    -0.246 N 
ATOM     16  N   UNL     1      30.014  -9.700 -19.502  0.00  0.00    -0.224 NA
ATOM     17  C   UNL     1      31.222  -9.643 -21.419  0.00  0.00    +0.092 C 
ATOM     18  C   UNL     1      30.617 -10.854 -19.680  0.00  0.00    +0.172 C 
ATOM     19  C   UNL     1      30.387  -8.940 -20.583  0.00  0.00    +0.117 C 
ENDBRANCH  14  15
ENDBRANCH   8   9
ENDBRANCH   2   8
BRANCH   1  20
ATOM     20  C   UNL     1      34.878 -19.422 -20.633  0.00  0.00    -0.050 C 
BRANCH  20  23
ATOM     21  O   UNL     1      34.024 -22.672 -17.015  0.00  0.00    -0.435 OA
ATOM     22  O   UNL     1      31.634 -22.424 -17.199  0.00  0.00    -0.435 OA
ATOM     23  C   UNL     1      33.975 -20.214 -19.725  0.00  0.00    -0.040 C 
ATOM     24  C   UNL     1      34.537 -21.078 -18.791  0.00  0.00    +0.034 C 
ATOM     25  C   UNL     1      32.588 -20.063 -19.840  0.00  0.00    -0.003 C 
ATOM     26  C   UNL     1      33.670 -21.782 -17.982  0.00  0.00    +0.176 C 
ATOM     27  C   UNL     1      31.732 -20.787 -19.007  0.00  0.00    +0.040 C 
ATOM     28  C   UNL     1      32.305 -21.641 -18.087  0.00  0.00    +0.176 C 
ATOM     29  C   UNL     1      32.729 -23.074 -16.522  0.00  0.00    +0.429 C 
ENDBRANCH  20  23
ENDBRANCH   1  20
TORSDOF 5
ENDMDL
MODEL 3
REMARK VINA RESULT:     -11.2      1.598      2.195
REMARK  Name = 11740318
REMARK  5 active torsions:
REMARK  status: ('A' for Active; 'I' for Inactive)
REMARK    1  A    between atoms: N_1  and  C_20
REMARK    2  A    between atoms: C_2  and  O_8
REMARK    3  A    between atoms: O_8  and  C_9
REMARK    4  A    between atoms: C_14  and  N_15
REMARK    5  A    between atoms: C_20  and  C_23
REMARK                            x       y       z     vdW  Elec       q    Type
REMARK                         _______ _______ _______ _____ _____    ______ ____
ROOT
ATOM      1  N   UNL     1      31.529 -23.122 -13.658  0.00  0.00    +0.392 N 
ATOM      2  C   UNL     1      31.330 -22.427 -16.026  0.00  0.00    +0.145 C 
ATOM      3  C   UNL     1      31.906 -23.447 -15.039  0.00  0.00    -0.032 C 
ATOM      4  C   UNL     1      29.815 -22.318 -15.883  0.00  0.00    +0.039 C 
ATOM      5  C   UNL     1      29.432 -22.058 -14.432  0.00  0.00    -0.019 C 
ATOM      6  C   UNL     1      30.068 -23.090 -13.498  0.00  0.00    -0.077 C 
ATOM      7  H   UNL     1      31.888 -22.191 -13.445  0.00  0.00    -0.079 HD
ENDROOT
BRANCH   2   8
ATOM      8  O   UNL     1      31.632 -22.824 -17.359  0.00  0.00    -0.481 OA
BRANCH   8   9
ATOM      9  C   UNL     1      32.435 -21.985 -18.084  0.00  0.00    +0.138 C 
ATOM     10  C   UNL     1      31.860 -21.037 -18.924  0.00  0.00    +0.038 C 
ATOM     11  C   UNL     1      33.817 -22.088 -17.975  0.00  0.00    +0.038 C 
ATOM     12  C   UNL     1      32.678 -20.181 -19.664  0.00  0.00    +0.018 C 
ATOM     13  C   UNL     1      34.635 -21.233 -18.714  0.00  0.00    +0.018 C 
ATOM     14  C   UNL     1      34.065 -20.280 -19.558  0.00  0.00    +0.057 C 
BRANCH  14  15
ATOM     15  N   UNL     1      34.876 -19.431 -20.290  0.00  0.00    -0.246 N 
ATOM     16  N   UNL     1      36.678 -18.265 -20.892  0.00  0.00    -0.224 NA
ATOM     17  C   UNL     1      34.539 -18.772 -21.445  0.00  0.00    +0.092 C 
ATOM     18  C   UNL     1      36.174 -19.091 -20.002  0.00  0.00    +0.172 C 
ATOM     19  C   UNL     1      35.663 -18.063 -21.794  0.00  0.00    +0.117 C 
ENDBRANCH  14  15
ENDBRANCH   8   9
ENDBRANCH   2   8
BRANCH   1  20
ATOM     20  C   UNL     1      32.125 -24.078 -12.725  0.00  0.00    -0.050 C 
BRANCH  20  23
ATOM     21  O   UNL     1      36.474 -23.440 -10.475  0.00  0.00    -0.435 OA
ATOM     22  O   UNL     1      37.706 -23.702 -12.530  0.00  0.00    -0.435 OA
ATOM     23  C   UNL     1      33.628 -23.983 -12.709  0.00  0.00    -0.040 C 
ATOM     24  C   UNL     1      34.281 -23.746 -11.505  0.00  0.00    +0.034 C 
ATOM     25  C   UNL     1      34.334 -24.136 -13.908  0.00  0.00    -0.003 C 
ATOM     26  C   UNL     1      35.658 -23.667 -11.541  0.00  0.00    +0.176 C 
ATOM     27  C   UNL     1      35.728 -24.052 -13.917  0.00  0.00    +0.040 C 
ATOM     28  C   UNL     1      36.362 -23.816 -12.715  0.00  0.00    +0.176 C 
ATOM     29  C   UNL     1      37.769 -23.465 -11.109  0.00  0.00    +0.429 C 
ENDBRANCH  20  23
ENDBRANCH   1  20
TORSDOF 5
ENDMDL
MODEL 4
REMARK VINA RESULT:     -11.1      3.791     10.848
REMARK  Name = 11740318
REMARK  5 active torsions:
REMARK  status: ('A' for Active; 'I' for Inactive)
REMARK    1  A    between atoms: N_1  and  C_20
REMARK    2  A    between atoms: C_2  and  O_8
REMARK    3  A    between atoms: O_8  and  C_9
REMARK    4  A    between atoms: C_14  and  N_15
REMARK    5  A    between atoms: C_20  and  C_23
REMARK                            x       y       z     vdW  Elec       q    Type
REMARK                         _______ _______ _______ _____ _____    ______ ____
ROOT
ATOM      1  N   UNL     1      34.310 -18.607 -21.453  0.00  0.00    +0.392 N 
ATOM      2  C   UNL     1      34.603 -20.251 -19.624  0.00  0.00    +0.145 C 
ATOM      3  C   UNL     1      34.124 -20.010 -21.059  0.00  0.00    -0.032 C 
ATOM      4  C   UNL     1      36.057 -19.822 -19.450  0.00  0.00    +0.039 C 
ATOM      5  C   UNL     1      36.253 -18.392 -19.934  0.00  0.00    -0.019 C 
ATOM      6  C   UNL     1      35.722 -18.212 -21.358  0.00  0.00    -0.077 C 
ATOM      7  H   UNL     1      33.777 -18.027 -20.806  0.00  0.00    -0.079 HD
ENDROOT
BRANCH   2   8
ATOM      8  O   UNL     1      34.498 -21.635 -19.308  0.00  0.00    -0.481 OA
BRANCH   8   9
ATOM      9  C   UNL     1      33.902 -21.951 -18.117  0.00  0.00    +0.138 C 
ATOM     10  C   UNL     1      32.521 -22.104 -18.056  0.00  0.00    +0.038 C 
ATOM     11  C   UNL     1      34.683 -22.118 -16.978  0.00  0.00    +0.038 C 
ATOM     12  C   UNL     1      31.914 -22.426 -16.842  0.00  0.00    +0.018 C 
ATOM     13  C   UNL     1      34.077 -22.441 -15.765  0.00  0.00    +0.018 C 
ATOM     14  C   UNL     1      32.692 -22.595 -15.697  0.00  0.00    +0.057 C 
BRANCH  14  15
ATOM     15  N   UNL     1      32.090 -22.916 -14.493  0.00  0.00    -0.246 N 
ATOM     16  N   UNL     1      31.823 -23.776 -12.454  0.00  0.00    -0.224 NA
ATOM     17  C   UNL     1      30.826 -22.567 -14.092  0.00  0.00    +0.092 C 
ATOM     18  C   UNL     1      32.646 -23.643 -13.470  0.00  0.00    +0.172 C 
ATOM     19  C   UNL     1      30.686 -23.107 -12.836  0.00  0.00    +0.117 C 
ENDBRANCH  14  15
ENDBRANCH   8   9
ENDBRANCH   2   8
BRANCH   1  20
ATOM     20  C   UNL     1      33.805 -18.385 -22.807  0.00  0.00    -0.050 C 
BRANCH  20  23
ATOM     21  O   UNL     1      32.531 -14.606 -25.719  0.00  0.00    -0.435 OA
ATOM     22  O   UNL     1      33.021 -12.976 -24.013  0.00  0.00    -0.435 OA
ATOM     23  C   UNL     1      33.606 -16.921 -23.097  0.00  0.00    -0.040 C 
ATOM     24  C   UNL     1      33.139 -16.533 -24.348  0.00  0.00    +0.034 C 
ATOM     25  C   UNL     1      33.893 -15.982 -22.099  0.00  0.00    -0.003 C 
ATOM     26  C   UNL     1      32.972 -15.181 -24.566  0.00  0.00    +0.176 C 
ATOM     27  C   UNL     1      33.714 -14.619 -22.346  0.00  0.00    +0.040 C 
ATOM     28  C   UNL     1      33.252 -14.250 -23.592  0.00  0.00    +0.176 C 
ATOM     29  C   UNL     1      32.563 -13.209 -25.360  0.00  0.00    +0.429 C 
ENDBRANCH  20  23
ENDBRANCH   1  20
TORSDOF 5
ENDMDL
MODEL 5
REMARK VINA RESULT:     -11.1      3.942     10.915
REMARK  Name = 11740318
REMARK  5 active torsions:
REMARK  status: ('A' for Active; 'I' for Inactive)
REMARK    1  A    between atoms: N_1  and  C_20
REMARK    2  A    between atoms: C_2  and  O_8
REMARK    3  A    between atoms: O_8  and  C_9
REMARK    4  A    between atoms: C_14  and  N_15
REMARK    5  A    between atoms: C_20  and  C_23
REMARK                            x       y       z     vdW  Elec       q    Type
REMARK                         _______ _______ _______ _____ _____    ______ ____
ROOT
ATOM      1  N   UNL     1      34.309 -18.123 -21.535  0.00  0.00    +0.392 N 
ATOM      2  C   UNL     1      34.133 -19.925 -19.846  0.00  0.00    +0.145 C 
ATOM      3  C   UNL     1      33.707 -19.427 -21.231  0.00  0.00    -0.032 C 
ATOM      4  C   UNL     1      35.653 -19.981 -19.724  0.00  0.00    +0.039 C 
ATOM      5  C   UNL     1      36.269 -18.645 -20.117  0.00  0.00    -0.019 C 
ATOM      6  C   UNL     1      35.776 -18.190 -21.492  0.00  0.00    -0.077 C 
ATOM      7  H   UNL     1      34.004 -17.463 -20.819  0.00  0.00    -0.079 HD
ENDROOT
BRANCH   2   8
ATOM      8  O   UNL     1      33.612 -21.230 -19.623  0.00  0.00    -0.481 OA
BRANCH   8   9
ATOM      9  C   UNL     1      33.626 -21.687 -18.332  0.00  0.00    +0.138 C 
ATOM     10  C   UNL     1      34.803 -21.632 -17.594  0.00  0.00    +0.038 C 
ATOM     11  C   UNL     1      32.462 -22.201 -17.770  0.00  0.00    +0.038 C 
ATOM     12  C   UNL     1      34.817 -22.098 -16.278  0.00  0.00    +0.018 C 
ATOM     13  C   UNL     1      32.475 -22.666 -16.456  0.00  0.00    +0.018 C 
ATOM     14  C   UNL     1      33.653 -22.614 -15.709  0.00  0.00    +0.057 C 
BRANCH  14  15
ATOM     15  N   UNL     1      33.666 -23.074 -14.405  0.00  0.00    -0.246 N 
ATOM     16  N   UNL     1      32.917 -23.867 -12.461  0.00  0.00    -0.224 NA
ATOM     17  C   UNL     1      34.766 -23.216 -13.599  0.00  0.00    +0.092 C 
ATOM     18  C   UNL     1      32.580 -23.480 -13.671  0.00  0.00    +0.172 C 
ATOM     19  C   UNL     1      34.280 -23.705 -12.410  0.00  0.00    +0.117 C 
ENDBRANCH  14  15
ENDBRANCH   8   9
ENDBRANCH   2   8
BRANCH   1  20
ATOM     20  C   UNL     1      33.855 -17.641 -22.839  0.00  0.00    -0.050 C 
BRANCH  20  23
ATOM     21  O   UNL     1      32.792 -13.355 -25.047  0.00  0.00    -0.435 OA
ATOM     22  O   UNL     1      33.147 -12.093 -23.025  0.00  0.00    -0.435 OA
ATOM     23  C   UNL     1      33.674 -16.147 -22.853  0.00  0.00    -0.040 C 
ATOM     24  C   UNL     1      33.301 -15.518 -24.036  0.00  0.00    +0.034 C 
ATOM     25  C   UNL     1      33.883 -15.423 -21.673  0.00  0.00    -0.003 C 
ATOM     26  C   UNL     1      33.147 -14.148 -23.999  0.00  0.00    +0.176 C 
ATOM     27  C   UNL     1      33.719 -14.036 -21.663  0.00  0.00    +0.040 C 
ATOM     28  C   UNL     1      33.350 -13.426 -22.845  0.00  0.00    +0.176 C 
ATOM     29  C   UNL     1      32.792 -12.055 -24.422  0.00  0.00    +0.429 C 
ENDBRANCH  20  23
ENDBRANCH   1  20
TORSDOF 5
ENDMDL
MODEL 6
REMARK VINA RESULT:     -11.0      2.993      5.325
REMARK  Name = 11740318
REMARK  5 active torsions:
REMARK  status: ('A' for Active; 'I' for Inactive)
REMARK    1  A    between atoms: N_1  and  C_20
REMARK    2  A    between atoms: C_2  and  O_8
REMARK    3  A    between atoms: O_8  and  C_9
REMARK    4  A    between atoms: C_14  and  N_15
REMARK    5  A    between atoms: C_20  and  C_23
REMARK                            x       y       z     vdW  Elec       q    Type
REMARK                         _______ _______ _______ _____ _____    ______ ____
ROOT
ATOM      1  N   UNL     1      34.734 -20.761 -18.379  0.00  0.00    +0.392 N 
ATOM      2  C   UNL     1      34.130 -19.361 -20.330  0.00  0.00    +0.145 C 
ATOM      3  C   UNL     1      35.173 -20.288 -19.698  0.00  0.00    -0.032 C 
ATOM      4  C   UNL     1      32.768 -20.043 -20.419  0.00  0.00    +0.039 C 
ATOM      5  C   UNL     1      32.360 -20.597 -19.061  0.00  0.00    -0.019 C 
ATOM      6  C   UNL     1      33.458 -21.485 -18.471  0.00  0.00    -0.077 C 
ATOM      7  H   UNL     1      34.589 -19.944 -17.786  0.00  0.00    -0.079 HD
ENDROOT
BRANCH   2   8
ATOM      8  O   UNL     1      34.542 -18.999 -21.644  0.00  0.00    -0.481 OA
BRANCH   8   9
ATOM      9  C   UNL     1      34.245 -17.726 -22.054  0.00  0.00    +0.138 C 
ATOM     10  C   UNL     1      34.237 -16.689 -21.128  0.00  0.00    +0.038 C 
ATOM     11  C   UNL     1      33.956 -17.483 -23.392  0.00  0.00    +0.038 C 
ATOM     12  C   UNL     1      33.935 -15.391 -21.545  0.00  0.00    +0.018 C 
ATOM     13  C   UNL     1      33.654 -16.187 -23.809  0.00  0.00    +0.018 C 
ATOM     14  C   UNL     1      33.644 -15.141 -22.886  0.00  0.00    +0.057 C 
BRANCH  14  15
ATOM     15  N   UNL     1      33.346 -13.856 -23.300  0.00  0.00    -0.246 N 
ATOM     16  N   UNL     1      32.649 -12.190 -24.607  0.00  0.00    -0.224 NA
ATOM     17  C   UNL     1      33.512 -12.703 -22.576  0.00  0.00    +0.092 C 
ATOM     18  C   UNL     1      32.823 -13.489 -24.516  0.00  0.00    +0.172 C 
ATOM     19  C   UNL     1      33.076 -11.694 -23.401  0.00  0.00    +0.117 C 
ENDBRANCH  14  15
ENDBRANCH   8   9
ENDBRANCH   2   8
BRANCH   1  20
ATOM     20  C   UNL     1      35.760 -21.606 -17.771  0.00  0.00    -0.050 C 
BRANCH  20  23
ATOM     21  O   UNL     1      36.748 -22.604 -13.037  0.00  0.00    -0.435 OA
ATOM     22  O   UNL     1      34.463 -23.211 -12.568  0.00  0.00    -0.435 OA
ATOM     23  C   UNL     1      35.376 -22.043 -16.382  0.00  0.00    -0.040 C 
ATOM     24  C   UNL     1      36.349 -22.087 -15.389  0.00  0.00    +0.034 C 
ATOM     25  C   UNL     1      34.046 -22.393 -16.120  0.00  0.00    -0.003 C 
ATOM     26  C   UNL     1      35.948 -22.493 -14.133  0.00  0.00    +0.176 C 
ATOM     27  C   UNL     1      33.667 -22.800 -14.839  0.00  0.00    +0.040 C 
ATOM     28  C   UNL     1      34.644 -22.840 -13.865  0.00  0.00    +0.176 C 
ATOM     29  C   UNL     1      35.800 -23.058 -12.049  0.00  0.00    +0.429 C 
ENDBRANCH  20  23
ENDBRANCH   1  20
TORSDOF 5
ENDMDL
MODEL 7
REMARK VINA RESULT:     -10.8      3.182      5.954
REMARK  Name = 11740318
REMARK  5 active torsions:
REMARK  status: ('A' for Active; 'I' for Inactive)
REMARK    1  A    between atoms: N_1  and  C_20
REMARK    2  A    between atoms: C_2  and  O_8
REMARK    3  A    between atoms: O_8  and  C_9
REMARK    4  A    between atoms: C_14  and  N_15
REMARK    5  A    between atoms: C_20  and  C_23
REMARK                            x       y       z     vdW  Elec       q    Type
REMARK                         _______ _______ _______ _____ _____    ______ ____
ROOT
ATOM      1  N   UNL     1      34.024 -20.917 -18.360  0.00  0.00    +0.392 N 
ATOM      2  C   UNL     1      34.091 -19.298 -20.232  0.00  0.00    +0.145 C 
ATOM      3  C   UNL     1      34.804 -20.446 -19.512  0.00  0.00    -0.032 C 
ATOM      4  C   UNL     1      32.682 -19.703 -20.654  0.00  0.00    +0.039 C 
ATOM      5  C   UNL     1      31.909 -20.262 -19.467  0.00  0.00    -0.019 C 
ATOM      6  C   UNL     1      32.692 -21.379 -18.774  0.00  0.00    -0.077 C 
ATOM      7  H   UNL     1      33.899 -20.130 -17.723  0.00  0.00    -0.079 HD
ENDROOT
BRANCH   2   8
ATOM      8  O   UNL     1      34.824 -18.930 -21.395  0.00  0.00    -0.481 OA
BRANCH   8   9
ATOM      9  C   UNL     1      34.402 -17.811 -22.061  0.00  0.00    +0.138 C 
ATOM     10  C   UNL     1      33.922 -17.922 -23.361  0.00  0.00    +0.038 C 
ATOM     11  C   UNL     1      34.458 -16.572 -21.431  0.00  0.00    +0.038 C 
ATOM     12  C   UNL     1      33.492 -16.781 -24.040  0.00  0.00    +0.018 C 
ATOM     13  C   UNL     1      34.029 -15.432 -22.109  0.00  0.00    +0.018 C 
ATOM     14  C   UNL     1      33.545 -15.536 -23.414  0.00  0.00    +0.057 C 
BRANCH  14  15
ATOM     15  N   UNL     1      33.119 -14.405 -24.086  0.00  0.00    -0.246 N 
ATOM     16  N   UNL     1      32.647 -12.263 -24.482  0.00  0.00    -0.224 NA
ATOM     17  C   UNL     1      32.629 -14.350 -25.365  0.00  0.00    +0.092 C 
ATOM     18  C   UNL     1      33.108 -13.121 -23.600  0.00  0.00    +0.172 C 
ATOM     19  C   UNL     1      32.346 -13.023 -25.585  0.00  0.00    +0.117 C 
ENDBRANCH  14  15
ENDBRANCH   8   9
ENDBRANCH   2   8
BRANCH   1  20
ATOM     20  C   UNL     1      34.740 -21.981 -17.657  0.00  0.00    -0.050 C 
BRANCH  20  23
ATOM     21  O   UNL     1      30.781 -23.500 -15.128  0.00  0.00    -0.435 OA
ATOM     22  O   UNL     1      31.987 -23.544 -13.043  0.00  0.00    -0.435 OA
ATOM     23  C   UNL     1      34.031 -22.396 -16.396  0.00  0.00    -0.040 C 
ATOM     24  C   UNL     1      32.687 -22.751 -16.457  0.00  0.00    +0.034 C 
ATOM     25  C   UNL     1      34.740 -22.418 -15.189  0.00  0.00    -0.003 C 
ATOM     26  C   UNL     1      32.081 -23.124 -15.275  0.00  0.00    +0.176 C 
ATOM     27  C   UNL     1      34.102 -22.801 -14.008  0.00  0.00    +0.040 C 
ATOM     28  C   UNL     1      32.769 -23.149 -14.084  0.00  0.00    +0.176 C 
ATOM     29  C   UNL     1      30.729 -23.766 -13.712  0.00  0.00    +0.429 C 
ENDBRANCH  20  23
ENDBRANCH   1  20
TORSDOF 5
ENDMDL
MODEL 8
REMARK VINA RESULT:     -10.7      2.947      5.309
REMARK  Name = 11740318
REMARK  5 active torsions:
REMARK  status: ('A' for Active; 'I' for Inactive)
REMARK    1  A    between atoms: N_1  and  C_20
REMARK    2  A    between atoms: C_2  and  O_8
REMARK    3  A    between atoms: O_8  and  C_9
REMARK    4  A    between atoms: C_14  and  N_15
REMARK    5  A    between atoms: C_20  and  C_23
REMARK                            x       y       z     vdW  Elec       q    Type
REMARK                         _______ _______ _______ _____ _____    ______ ____
ROOT
ATOM      1  N   UNL     1      33.254 -23.437 -14.161  0.00  0.00    +0.392 N 
ATOM      2  C   UNL     1      33.475 -23.262 -16.621  0.00  0.00    +0.145 C 
ATOM      3  C   UNL     1      32.518 -23.352 -15.428  0.00  0.00    -0.032 C 
ATOM      4  C   UNL     1      34.438 -22.089 -16.467  0.00  0.00    +0.039 C 
ATOM      5  C   UNL     1      35.138 -22.147 -15.115  0.00  0.00    -0.019 C 
ATOM      6  C   UNL     1      34.127 -22.271 -13.973  0.00  0.00    -0.077 C 
ATOM      7  H   UNL     1      33.844 -24.268 -14.197  0.00  0.00    -0.079 HD
ENDROOT
BRANCH   2   8
ATOM      8  O   UNL     1      32.732 -23.084 -17.822  0.00  0.00    -0.481 OA
BRANCH   8   9
ATOM      9  C   UNL     1      33.047 -21.991 -18.584  0.00  0.00    +0.138 C 
ATOM     10  C   UNL     1      32.038 -21.135 -19.011  0.00  0.00    +0.038 C 
ATOM     11  C   UNL     1      34.374 -21.746 -18.923  0.00  0.00    +0.038 C 
ATOM     12  C   UNL     1      32.359 -20.020 -19.789  0.00  0.00    +0.018 C 
ATOM     13  C   UNL     1      34.695 -20.633 -19.699  0.00  0.00    +0.018 C 
ATOM     14  C   UNL     1      33.687 -19.770 -20.132  0.00  0.00    +0.057 C 
BRANCH  14  15
ATOM     15  N   UNL     1      34.006 -18.665 -20.901  0.00  0.00    -0.246 N 
ATOM     16  N   UNL     1      34.212 -17.355 -22.692  0.00  0.00    -0.224 NA
ATOM     17  C   UNL     1      34.578 -17.499 -20.460  0.00  0.00    +0.092 C 
ATOM     18  C   UNL     1      33.807 -18.525 -22.252  0.00  0.00    +0.172 C 
ATOM     19  C   UNL     1      34.694 -16.711 -21.580  0.00  0.00    +0.117 C 
ENDBRANCH  14  15
ENDBRANCH   8   9
ENDBRANCH   2   8
BRANCH   1  20
ATOM     20  C   UNL     1      32.326 -23.569 -13.038  0.00  0.00    -0.050 C 
BRANCH  20  23
ATOM     21  O   UNL     1      28.094 -21.712 -14.776  0.00  0.00    -0.435 OA
ATOM     22  O   UNL     1      27.017 -23.868 -14.782  0.00  0.00    -0.435 OA
ATOM     23  C   UNL     1      30.898 -23.686 -13.501  0.00  0.00    -0.040 C 
ATOM     24  C   UNL     1      30.224 -22.545 -13.920  0.00  0.00    +0.034 C 
ATOM     25  C   UNL     1      30.282 -24.943 -13.500  0.00  0.00    -0.003 C 
ATOM     26  C   UNL     1      28.918 -22.703 -14.335  0.00  0.00    +0.176 C 
ATOM     27  C   UNL     1      28.959 -25.075 -13.926  0.00  0.00    +0.040 C 
ATOM     28  C   UNL     1      28.302 -23.933 -14.338  0.00  0.00    +0.176 C 
ATOM     29  C   UNL     1      26.893 -22.458 -15.059  0.00  0.00    +0.429 C 
ENDBRANCH  20  23
ENDBRANCH   1  20
TORSDOF 5
ENDMDL
MODEL 9
REMARK VINA RESULT:     -10.6      8.899     15.215
REMARK  Name = 11740318
REMARK  5 active torsions:
REMARK  status: ('A' for Active; 'I' for Inactive)
REMARK    1  A    between atoms: N_1  and  C_20
REMARK    2  A    between atoms: C_2  and  O_8
REMARK    3  A    between atoms: O_8  and  C_9
REMARK    4  A    between atoms: C_14  and  N_15
REMARK    5  A    between atoms: C_20  and  C_23
REMARK                            x       y       z     vdW  Elec       q    Type
REMARK                         _______ _______ _______ _____ _____    ______ ____
ROOT
ATOM      1  N   UNL     1      32.904  -8.679 -23.522  0.00  0.00    +0.392 N 
ATOM      2  C   UNL     1      33.370 -11.033 -24.131  0.00  0.00    +0.145 C 
ATOM      3  C   UNL     1      32.304  -9.948 -23.952  0.00  0.00    -0.032 C 
ATOM      4  C   UNL     1      34.455 -10.584 -25.105  0.00  0.00    +0.039 C 
ATOM      5  C   UNL     1      35.015  -9.230 -24.691  0.00  0.00    -0.019 C 
ATOM      6  C   UNL     1      33.897  -8.204 -24.496  0.00  0.00    -0.077 C 
ATOM      7  H   UNL     1      33.385  -8.844 -22.638  0.00  0.00    -0.079 HD
ENDROOT
BRANCH   2   8
ATOM      8  O   UNL     1      32.768 -12.219 -24.640  0.00  0.00    -0.481 OA
BRANCH   8   9
ATOM      9  C   UNL     1      33.070 -13.388 -23.994  0.00  0.00    +0.138 C 
ATOM     10  C   UNL     1      32.952 -14.598 -24.670  0.00  0.00    +0.038 C 
ATOM     11  C   UNL     1      33.493 -13.356 -22.670  0.00  0.00    +0.038 C 
ATOM     12  C   UNL     1      33.260 -15.790 -24.012  0.00  0.00    +0.018 C 
ATOM     13  C   UNL     1      33.800 -14.546 -22.012  0.00  0.00    +0.018 C 
ATOM     14  C   UNL     1      33.684 -15.764 -22.684  0.00  0.00    +0.057 C 
BRANCH  14  15
ATOM     15  N   UNL     1      33.990 -16.945 -22.032  0.00  0.00    -0.246 N 
ATOM     16  N   UNL     1      34.658 -18.328 -20.417  0.00  0.00    -0.224 NA
ATOM     17  C   UNL     1      33.872 -18.213 -22.540  0.00  0.00    +0.092 C 
ATOM     18  C   UNL     1      34.467 -17.072 -20.751  0.00  0.00    +0.172 C 
ATOM     19  C   UNL     1      34.288 -19.045 -21.527  0.00  0.00    +0.117 C 
ENDBRANCH  14  15
ENDBRANCH   8   9
ENDBRANCH   2   8
BRANCH   1  20
ATOM     20  C   UNL     1      31.869  -7.668 -23.311  0.00  0.00    -0.050 C 
BRANCH  20  23
ATOM     21  O   UNL     1      31.636  -4.862 -19.255  0.00  0.00    -0.435 OA
ATOM     22  O   UNL     1      30.886  -6.699 -17.887  0.00  0.00    -0.435 OA
ATOM     23  C   UNL     1      31.595  -7.443 -21.848  0.00  0.00    -0.040 C 
ATOM     24  C   UNL     1      31.779  -6.175 -21.308  0.00  0.00    +0.034 C 
ATOM     25  C   UNL     1      31.160  -8.517 -21.062  0.00  0.00    -0.003 C 
ATOM     26  C   UNL     1      31.515  -6.018 -19.963  0.00  0.00    +0.176 C 
ATOM     27  C   UNL     1      30.899  -8.331 -19.703  0.00  0.00    +0.040 C 
ATOM     28  C   UNL     1      31.087  -7.067 -19.182  0.00  0.00    +0.176 C 
ATOM     29  C   UNL     1      31.235  -5.301 -17.941  0.00  0.00    +0.429 C 
ENDBRANCH  20  23
ENDBRANCH   1  20
TORSDOF 5
ENDMDL
