MODEL 1
REMARK VINA RESULT:     -11.8      0.000      0.000
REMARK  Name = 3168
REMARK  6 active torsions:
REMARK  status: ('A' for Active; 'I' for Inactive)
REMARK    1  A    between atoms: N_1  and  C_19
REMARK    2  A    between atoms: C_5  and  N_9
REMARK    3  A    between atoms: C_19  and  C_20
REMARK    4  A    between atoms: C_20  and  C_21
REMARK    5  A    between atoms: C_21  and  C_23
REMARK    6  A    between atoms: C_23  and  C_25
REMARK                            x       y       z     vdW  Elec       q    Type
REMARK                         _______ _______ _______ _____ _____    ______ ____
ROOT
ATOM      1  N   UNL     1      33.242 -15.998 -23.542  0.00  0.00    +0.390 N 
ATOM      2  C   UNL     1      34.318 -15.281 -22.846  0.00  0.00    -0.071 C 
ATOM      3  C   UNL     1      33.779 -13.981 -22.229  0.00  0.00    +0.021 C 
ATOM      4  C   UNL     1      32.719 -15.198 -24.662  0.00  0.00    -0.049 C 
ATOM      5  C   UNL     1      32.906 -13.208 -23.177  0.00  0.00    +0.037 C 
ATOM      6  C   UNL     1      32.434 -13.766 -24.302  0.00  0.00    -0.036 C 
ATOM      7  H   UNL     1      32.486 -16.149 -22.875  0.00  0.00    -0.079 HD
ENDROOT
BRANCH   5   9
ATOM      8  O   UNL     1      33.854 -10.706 -24.516  0.00  0.00    -0.246 OA
ATOM      9  N   UNL     1      32.629 -11.911 -22.853  0.00  0.00    -0.263 N 
ATOM     10  N   UNL     1      32.570  -9.633 -22.851  0.00  0.00    -0.305 N 
ATOM     11  C   UNL     1      31.814 -11.483 -21.788  0.00  0.00    +0.083 A 
ATOM     12  C   UNL     1      33.118 -10.751 -23.539  0.00  0.00    +0.332 A 
ATOM     13  C   UNL     1      31.785 -10.090 -21.796  0.00  0.00    +0.076 A 
ATOM     14  C   UNL     1      31.117 -12.206 -20.841  0.00  0.00    +0.019 C 
ATOM     15  C   UNL     1      31.070  -9.357 -20.874  0.00  0.00    +0.019 C 
ATOM     16  C   UNL     1      30.383 -11.484 -19.892  0.00  0.00    +0.002 C 
ATOM     17  C   UNL     1      30.360 -10.074 -19.909  0.00  0.00    +0.002 C 
ATOM     18  H   UNL     1      32.722  -8.687 -23.084  0.00  0.00    +0.170 HD
ENDBRANCH   5   9
BRANCH   1  19
ATOM     19  C   UNL     1      33.699 -17.306 -24.008  0.00  0.00    -0.076 C 
BRANCH  19  20
ATOM     20  C   UNL     1      33.269 -18.397 -23.027  0.00  0.00    -0.015 C 
BRANCH  20  21
ATOM     21  C   UNL     1      34.458 -19.018 -22.289  0.00  0.00    +0.067 C 
BRANCH  21  23
ATOM     22  O   UNL     1      34.763 -17.704 -20.287  0.00  0.00    -0.291 OA
ATOM     23  C   UNL     1      34.431 -18.777 -20.787  0.00  0.00    +0.173 C 
BRANCH  23  25
ATOM     24  F   UNL     1      32.684 -22.894 -17.444  0.00  0.00    -0.204 F 
ATOM     25  C   UNL     1      33.965 -19.877 -19.895  0.00  0.00    +0.035 C 
ATOM     26  C   UNL     1      32.611 -20.087 -19.757  0.00  0.00    +0.005 C 
ATOM     27  C   UNL     1      34.905 -20.642 -19.242  0.00  0.00    +0.005 C 
ATOM     28  C   UNL     1      32.175 -21.115 -18.921  0.00  0.00    +0.030 C 
ATOM     29  C   UNL     1      34.469 -21.670 -18.406  0.00  0.00    +0.030 C 
ATOM     30  C   UNL     1      33.103 -21.907 -18.246  0.00  0.00    +0.140 C 
ENDBRANCH  23  25
ENDBRANCH  21  23
ENDBRANCH  20  21
ENDBRANCH  19  20
ENDBRANCH   1  19
TORSDOF 6
ENDMDL
MODEL 2
REMARK VINA RESULT:     -11.7      1.311      2.253
REMARK  Name = 3168
REMARK  6 active torsions:
REMARK  status: ('A' for Active; 'I' for Inactive)
REMARK    1  A    between atoms: N_1  and  C_19
REMARK    2  A    between atoms: C_5  and  N_9
REMARK    3  A    between atoms: C_19  and  C_20
REMARK    4  A    between atoms: C_20  and  C_21
REMARK    5  A    between atoms: C_21  and  C_23
REMARK    6  A    between atoms: C_23  and  C_25
REMARK                            x       y       z     vdW  Elec       q    Type
REMARK                         _______ _______ _______ _____ _____    ______ ____
ROOT
ATOM      1  N   UNL     1      33.216 -15.873 -23.490  0.00  0.00    +0.390 N 
ATOM      2  C   UNL     1      34.235 -15.176 -22.697  0.00  0.00    -0.071 C 
ATOM      3  C   UNL     1      33.636 -13.919 -22.046  0.00  0.00    +0.021 C 
ATOM      4  C   UNL     1      32.742 -15.024 -24.596  0.00  0.00    -0.049 C 
ATOM      5  C   UNL     1      32.804 -13.112 -23.003  0.00  0.00    +0.037 C 
ATOM      6  C   UNL     1      32.408 -13.618 -24.181  0.00  0.00    -0.036 C 
ATOM      7  H   UNL     1      32.425 -16.071 -22.877  0.00  0.00    -0.079 HD
ENDROOT
BRANCH   5   9
ATOM      8  O   UNL     1      30.847 -12.213 -20.925  0.00  0.00    -0.246 OA
ATOM      9  N   UNL     1      32.483 -11.839 -22.629  0.00  0.00    -0.263 N 
ATOM     10  N   UNL     1      31.534 -10.052 -21.580  0.00  0.00    -0.305 N 
ATOM     11  C   UNL     1      33.031 -10.659 -23.167  0.00  0.00    +0.083 A 
ATOM     12  C   UNL     1      31.531 -11.474 -21.621  0.00  0.00    +0.332 A 
ATOM     13  C   UNL     1      32.444  -9.573 -22.520  0.00  0.00    +0.076 A 
ATOM     14  C   UNL     1      33.978 -10.474 -24.154  0.00  0.00    +0.019 C 
ATOM     15  C   UNL     1      32.767  -8.267 -22.818  0.00  0.00    +0.019 C 
ATOM     16  C   UNL     1      34.322  -9.157 -24.476  0.00  0.00    +0.002 C 
ATOM     17  C   UNL     1      33.723  -8.065 -23.815  0.00  0.00    +0.002 C 
ATOM     18  H   UNL     1      30.981  -9.495 -20.984  0.00  0.00    +0.170 HD
ENDBRANCH   5   9
BRANCH   1  19
ATOM     19  C   UNL     1      33.724 -17.147 -23.996  0.00  0.00    -0.076 C 
BRANCH  19  20
ATOM     20  C   UNL     1      33.269 -18.294 -23.092  0.00  0.00    -0.015 C 
BRANCH  20  21
ATOM     21  C   UNL     1      34.429 -18.908 -22.303  0.00  0.00    +0.067 C 
BRANCH  21  23
ATOM     22  O   UNL     1      34.554 -17.594 -20.282  0.00  0.00    -0.291 OA
ATOM     23  C   UNL     1      34.324 -18.684 -20.801  0.00  0.00    +0.173 C 
BRANCH  23  25
ATOM     24  F   UNL     1      32.763 -22.952 -17.558  0.00  0.00    -0.204 F 
ATOM     25  C   UNL     1      33.908 -19.825 -19.936  0.00  0.00    +0.035 C 
ATOM     26  C   UNL     1      32.563 -20.067 -19.765  0.00  0.00    +0.005 C 
ATOM     27  C   UNL     1      34.882 -20.592 -19.340  0.00  0.00    +0.005 C 
ATOM     28  C   UNL     1      32.173 -21.134 -18.954  0.00  0.00    +0.030 C 
ATOM     29  C   UNL     1      34.493 -21.658 -18.528  0.00  0.00    +0.030 C 
ATOM     30  C   UNL     1      33.137 -21.929 -18.336  0.00  0.00    +0.140 C 
ENDBRANCH  23  25
ENDBRANCH  21  23
ENDBRANCH  20  21
ENDBRANCH  19  20
ENDBRANCH   1  19
TORSDOF 6
ENDMDL
MODEL 3
REMARK VINA RESULT:     -11.3      3.223      5.781
REMARK  Name = 3168
REMARK  6 active torsions:
REMARK  status: ('A' for Active; 'I' for Inactive)
REMARK    1  A    between atoms: N_1  and  C_19
REMARK    2  A    between atoms: C_5  and  N_9
REMARK    3  A    between atoms: C_19  and  C_20
REMARK    4  A    between atoms: C_20  and  C_21
REMARK    5  A    between atoms: C_21  and  C_23
REMARK    6  A    between atoms: C_23  and  C_25
REMARK                            x       y       z     vdW  Elec       q    Type
REMARK                         _______ _______ _______ _____ _____    ______ ____
ROOT
ATOM      1  N   UNL     1      34.879 -19.914 -19.276  0.00  0.00    +0.390 N 
ATOM      2  C   UNL     1      35.988 -19.509 -20.148  0.00  0.00    -0.071 C 
ATOM      3  C   UNL     1      35.671 -18.165 -20.823  0.00  0.00    +0.021 C 
ATOM      4  C   UNL     1      33.649 -20.127 -20.057  0.00  0.00    -0.049 C 
ATOM      5  C   UNL     1      34.275 -18.110 -21.376  0.00  0.00    +0.037 C 
ATOM      6  C   UNL     1      33.353 -19.022 -21.034  0.00  0.00    -0.036 C 
ATOM      7  H   UNL     1      34.710 -19.157 -18.614  0.00  0.00    -0.079 HD
ENDROOT
BRANCH   5   9
ATOM      8  O   UNL     1      33.963 -18.253 -24.348  0.00  0.00    -0.246 OA
ATOM      9  N   UNL     1      33.991 -17.102 -22.252  0.00  0.00    -0.263 N 
ATOM     10  N   UNL     1      33.560 -15.935 -24.162  0.00  0.00    -0.305 N 
ATOM     11  C   UNL     1      33.782 -15.751 -21.916  0.00  0.00    +0.083 A 
ATOM     12  C   UNL     1      33.855 -17.238 -23.673  0.00  0.00    +0.332 A 
ATOM     13  C   UNL     1      33.519 -15.047 -23.089  0.00  0.00    +0.076 A 
ATOM     14  C   UNL     1      33.804 -15.114 -20.692  0.00  0.00    +0.019 C 
ATOM     15  C   UNL     1      33.270 -13.692 -23.102  0.00  0.00    +0.019 C 
ATOM     16  C   UNL     1      33.555 -13.737 -20.678  0.00  0.00    +0.002 C 
ATOM     17  C   UNL     1      33.290 -13.034 -21.871  0.00  0.00    +0.002 C 
ATOM     18  H   UNL     1      33.409 -15.698 -25.106  0.00  0.00    +0.170 HD
ENDBRANCH   5   9
BRANCH   1  19
ATOM     19  C   UNL     1      35.221 -21.113 -18.513  0.00  0.00    -0.076 C 
BRANCH  19  20
ATOM     20  C   UNL     1      34.042 -22.087 -18.502  0.00  0.00    -0.015 C 
BRANCH  20  21
ATOM     21  C   UNL     1      33.569 -22.411 -17.082  0.00  0.00    +0.067 C 
BRANCH  21  23
ATOM     22  O   UNL     1      31.339 -21.797 -17.771  0.00  0.00    -0.291 OA
ATOM     23  C   UNL     1      32.066 -22.264 -16.897  0.00  0.00    +0.173 C 
BRANCH  23  25
ATOM     24  F   UNL     1      29.776 -23.971 -12.100  0.00  0.00    -0.204 F 
ATOM     25  C   UNL     1      31.455 -22.721 -15.616  0.00  0.00    +0.035 C 
ATOM     26  C   UNL     1      30.083 -22.708 -15.497  0.00  0.00    +0.005 C 
ATOM     27  C   UNL     1      32.284 -23.138 -14.600  0.00  0.00    +0.005 C 
ATOM     28  C   UNL     1      29.511 -23.134 -14.298  0.00  0.00    +0.030 C 
ATOM     29  C   UNL     1      31.712 -23.564 -13.401  0.00  0.00    +0.030 C 
ATOM     30  C   UNL     1      30.325 -23.562 -13.250  0.00  0.00    +0.140 C 
ENDBRANCH  23  25
ENDBRANCH  21  23
ENDBRANCH  20  21
ENDBRANCH  19  20
ENDBRANCH   1  19
TORSDOF 6
ENDMDL
MODEL 4
REMARK VINA RESULT:     -11.1      1.022      1.540
REMARK  Name = 3168
REMARK  6 active torsions:
REMARK  status: ('A' for Active; 'I' for Inactive)
REMARK    1  A    between atoms: N_1  and  C_19
REMARK    2  A    between atoms: C_5  and  N_9
REMARK    3  A    between atoms: C_19  and  C_20
REMARK    4  A    between atoms: C_20  and  C_21
REMARK    5  A    between atoms: C_21  and  C_23
REMARK    6  A    between atoms: C_23  and  C_25
REMARK                            x       y       z     vdW  Elec       q    Type
REMARK                         _______ _______ _______ _____ _____    ______ ____
ROOT
ATOM      1  N   UNL     1      32.844 -14.987 -23.669  0.00  0.00    +0.390 N 
ATOM      2  C   UNL     1      33.906 -14.448 -22.811  0.00  0.00    -0.071 C 
ATOM      3  C   UNL     1      33.568 -13.011 -22.384  0.00  0.00    +0.021 C 
ATOM      4  C   UNL     1      32.727 -14.206 -24.912  0.00  0.00    -0.049 C 
ATOM      5  C   UNL     1      33.079 -12.167 -23.527  0.00  0.00    +0.037 C 
ATOM      6  C   UNL     1      32.709 -12.718 -24.693  0.00  0.00    -0.036 C 
ATOM      7  H   UNL     1      31.964 -14.912 -23.160  0.00  0.00    -0.079 HD
ENDROOT
BRANCH   5   9
ATOM      8  O   UNL     1      34.704 -10.046 -24.876  0.00  0.00    -0.246 OA
ATOM      9  N   UNL     1      33.045 -10.815 -23.334  0.00  0.00    -0.263 N 
ATOM     10  N   UNL     1      33.473  -8.582 -23.492  0.00  0.00    -0.305 N 
ATOM     11  C   UNL     1      32.209 -10.132 -22.431  0.00  0.00    +0.083 A 
ATOM     12  C   UNL     1      33.855  -9.849 -24.017  0.00  0.00    +0.332 A 
ATOM     13  C   UNL     1      32.479  -8.769 -22.535  0.00  0.00    +0.076 A 
ATOM     14  C   UNL     1      31.258 -10.606 -21.550  0.00  0.00    +0.019 C 
ATOM     15  C   UNL     1      31.823  -7.822 -21.779  0.00  0.00    +0.019 C 
ATOM     16  C   UNL     1      30.578  -9.664 -20.770  0.00  0.00    +0.002 C 
ATOM     17  C   UNL     1      30.858  -8.287 -20.883  0.00  0.00    +0.002 C 
ATOM     18  H   UNL     1      33.852  -7.714 -23.762  0.00  0.00    +0.170 HD
ENDBRANCH   5   9
BRANCH   1  19
ATOM     19  C   UNL     1      33.074 -16.400 -23.965  0.00  0.00    -0.076 C 
BRANCH  19  20
ATOM     20  C   UNL     1      34.173 -16.957 -23.059  0.00  0.00    -0.015 C 
BRANCH  20  21
ATOM     21  C   UNL     1      33.821 -18.338 -22.499  0.00  0.00    +0.067 C 
BRANCH  21  23
ATOM     22  O   UNL     1      35.790 -18.285 -21.105  0.00  0.00    -0.291 OA
ATOM     23  C   UNL     1      34.663 -18.735 -21.295  0.00  0.00    +0.173 C 
BRANCH  23  25
ATOM     24  F   UNL     1      32.511 -22.313 -17.588  0.00  0.00    -0.204 F 
ATOM     25  C   UNL     1      34.087 -19.689 -20.304  0.00  0.00    +0.035 C 
ATOM     26  C   UNL     1      34.947 -20.450 -19.544  0.00  0.00    +0.005 C 
ATOM     27  C   UNL     1      32.719 -19.775 -20.186  0.00  0.00    +0.005 C 
ATOM     28  C   UNL     1      34.410 -21.345 -18.618  0.00  0.00    +0.030 C 
ATOM     29  C   UNL     1      32.180 -20.670 -19.261  0.00  0.00    +0.030 C 
ATOM     30  C   UNL     1      33.027 -21.454 -18.476  0.00  0.00    +0.140 C 
ENDBRANCH  23  25
ENDBRANCH  21  23
ENDBRANCH  20  21
ENDBRANCH  19  20
ENDBRANCH   1  19
TORSDOF 6
ENDMDL
MODEL 5
REMARK VINA RESULT:     -10.9      5.356     11.079
REMARK  Name = 3168
REMARK  6 active torsions:
REMARK  status: ('A' for Active; 'I' for Inactive)
REMARK    1  A    between atoms: N_1  and  C_19
REMARK    2  A    between atoms: C_5  and  N_9
REMARK    3  A    between atoms: C_19  and  C_20
REMARK    4  A    between atoms: C_20  and  C_21
REMARK    5  A    between atoms: C_21  and  C_23
REMARK    6  A    between atoms: C_23  and  C_25
REMARK                            x       y       z     vdW  Elec       q    Type
REMARK                         _______ _______ _______ _____ _____    ______ ____
ROOT
ATOM      1  N   UNL     1      34.678 -20.937 -18.305  0.00  0.00    +0.390 N 
ATOM      2  C   UNL     1      33.823 -22.078 -18.652  0.00  0.00    -0.071 C 
ATOM      3  C   UNL     1      33.046 -22.558 -17.416  0.00  0.00    +0.021 C 
ATOM      4  C   UNL     1      35.690 -21.324 -17.308  0.00  0.00    -0.049 C 
ATOM      5  C   UNL     1      33.913 -22.663 -16.192  0.00  0.00    +0.037 C 
ATOM      6  C   UNL     1      35.133 -22.109 -16.152  0.00  0.00    -0.036 C 
ATOM      7  H   UNL     1      34.084 -20.216 -17.894  0.00  0.00    -0.079 HD
ENDROOT
BRANCH   5   9
ATOM      8  O   UNL     1      35.294 -24.674 -14.459  0.00  0.00    -0.246 OA
ATOM      9  N   UNL     1      33.411 -23.362 -15.132  0.00  0.00    -0.263 N 
ATOM     10  N   UNL     1      33.208 -24.780 -13.359  0.00  0.00    -0.305 N 
ATOM     11  C   UNL     1      32.099 -23.268 -14.629  0.00  0.00    +0.083 A 
ATOM     12  C   UNL     1      34.129 -24.316 -14.339  0.00  0.00    +0.332 A 
ATOM     13  C   UNL     1      31.986 -24.138 -13.546  0.00  0.00    +0.076 A 
ATOM     14  C   UNL     1      31.030 -22.498 -15.040  0.00  0.00    +0.019 C 
ATOM     15  C   UNL     1      30.819 -24.283 -12.829  0.00  0.00    +0.019 C 
ATOM     16  C   UNL     1      29.833 -22.627 -14.328  0.00  0.00    +0.002 C 
ATOM     17  C   UNL     1      29.728 -23.510 -13.234  0.00  0.00    +0.002 C 
ATOM     18  H   UNL     1      33.403 -25.446 -12.660  0.00  0.00    +0.170 HD
ENDBRANCH   5   9
BRANCH   1  19
ATOM     19  C   UNL     1      35.312 -20.374 -19.495  0.00  0.00    -0.076 C 
BRANCH  19  20
ATOM     20  C   UNL     1      34.314 -19.506 -20.265  0.00  0.00    -0.015 C 
BRANCH  20  21
ATOM     21  C   UNL     1      35.009 -18.505 -21.192  0.00  0.00    +0.067 C 
BRANCH  21  23
ATOM     22  O   UNL     1      33.891 -19.149 -23.232  0.00  0.00    -0.291 OA
ATOM     23  C   UNL     1      34.243 -18.243 -22.481  0.00  0.00    +0.173 C 
BRANCH  23  25
ATOM     24  F   UNL     1      32.937 -12.975 -23.795  0.00  0.00    -0.204 F 
ATOM     25  C   UNL     1      33.893 -16.836 -22.830  0.00  0.00    +0.035 C 
ATOM     26  C   UNL     1      33.444 -16.565 -24.103  0.00  0.00    +0.005 C 
ATOM     27  C   UNL     1      34.034 -15.861 -21.869  0.00  0.00    +0.005 C 
ATOM     28  C   UNL     1      33.118 -15.249 -24.432  0.00  0.00    +0.030 C 
ATOM     29  C   UNL     1      33.708 -14.545 -22.197  0.00  0.00    +0.030 C 
ATOM     30  C   UNL     1      33.250 -14.239 -23.479  0.00  0.00    +0.140 C 
ENDBRANCH  23  25
ENDBRANCH  21  23
ENDBRANCH  20  21
ENDBRANCH  19  20
ENDBRANCH   1  19
TORSDOF 6
ENDMDL
MODEL 6
REMARK VINA RESULT:     -10.6      6.135     12.161
REMARK  Name = 3168
REMARK  6 active torsions:
REMARK  status: ('A' for Active; 'I' for Inactive)
REMARK    1  A    between atoms: N_1  and  C_19
REMARK    2  A    between atoms: C_5  and  N_9
REMARK    3  A    between atoms: C_19  and  C_20
REMARK    4  A    between atoms: C_20  and  C_21
REMARK    5  A    between atoms: C_21  and  C_23
REMARK    6  A    between atoms: C_23  and  C_25
REMARK                            x       y       z     vdW  Elec       q    Type
REMARK                         _______ _______ _______ _____ _____    ______ ____
ROOT
ATOM      1  N   UNL     1      33.230 -22.451 -17.481  0.00  0.00    +0.390 N 
ATOM      2  C   UNL     1      34.318 -21.740 -16.799  0.00  0.00    -0.071 C 
ATOM      3  C   UNL     1      34.901 -22.611 -15.674  0.00  0.00    +0.021 C 
ATOM      4  C   UNL     1      32.118 -22.722 -16.554  0.00  0.00    -0.049 C 
ATOM      5  C   UNL     1      33.837 -23.259 -14.834  0.00  0.00    +0.037 C 
ATOM      6  C   UNL     1      32.557 -23.295 -15.234  0.00  0.00    -0.036 C 
ATOM      7  H   UNL     1      33.598 -23.344 -17.809  0.00  0.00    -0.079 HD
ENDROOT
BRANCH   5   9
ATOM      8  O   UNL     1      32.253 -23.549 -12.312  0.00  0.00    -0.246 OA
ATOM      9  N   UNL     1      34.227 -23.795 -13.640  0.00  0.00    -0.263 N 
ATOM     10  N   UNL     1      34.237 -24.522 -11.480  0.00  0.00    -0.305 N 
ATOM     11  C   UNL     1      35.495 -24.335 -13.353  0.00  0.00    +0.083 A 
ATOM     12  C   UNL     1      33.415 -23.904 -12.464  0.00  0.00    +0.332 A 
ATOM     13  C   UNL     1      35.491 -24.776 -12.031  0.00  0.00    +0.076 A 
ATOM     14  C   UNL     1      36.619 -24.463 -14.144  0.00  0.00    +0.019 C 
ATOM     15  C   UNL     1      36.590 -25.359 -11.439  0.00  0.00    +0.019 C 
ATOM     16  C   UNL     1      37.749 -25.052 -13.566  0.00  0.00    +0.002 C 
ATOM     17  C   UNL     1      37.734 -25.495 -12.227  0.00  0.00    +0.002 C 
ATOM     18  H   UNL     1      33.964 -24.735 -10.558  0.00  0.00    +0.170 HD
ENDBRANCH   5   9
BRANCH   1  19
ATOM     19  C   UNL     1      32.761 -21.702 -18.645  0.00  0.00    -0.076 C 
BRANCH  19  20
ATOM     20  C   UNL     1      33.890 -20.835 -19.205  0.00  0.00    -0.015 C 
BRANCH  20  21
ATOM     21  C   UNL     1      33.375 -19.756 -20.162  0.00  0.00    +0.067 C 
BRANCH  21  23
ATOM     22  O   UNL     1      35.543 -18.702 -20.037  0.00  0.00    -0.291 OA
ATOM     23  C   UNL     1      34.450 -18.768 -20.593  0.00  0.00    +0.173 C 
BRANCH  23  25
ATOM     24  F   UNL     1      33.389 -15.375 -24.899  0.00  0.00    -0.204 F 
ATOM     25  C   UNL     1      34.168 -17.863 -21.744  0.00  0.00    +0.035 C 
ATOM     26  C   UNL     1      34.415 -16.516 -21.600  0.00  0.00    +0.005 C 
ATOM     27  C   UNL     1      33.669 -18.406 -22.906  0.00  0.00    +0.005 C 
ATOM     28  C   UNL     1      34.149 -15.668 -22.676  0.00  0.00    +0.030 C 
ATOM     29  C   UNL     1      33.403 -17.559 -23.982  0.00  0.00    +0.030 C 
ATOM     30  C   UNL     1      33.643 -16.189 -23.867  0.00  0.00    +0.140 C 
ENDBRANCH  23  25
ENDBRANCH  21  23
ENDBRANCH  20  21
ENDBRANCH  19  20
ENDBRANCH   1  19
TORSDOF 6
ENDMDL
MODEL 7
REMARK VINA RESULT:     -10.2      3.537      6.443
REMARK  Name = 3168
REMARK  6 active torsions:
REMARK  status: ('A' for Active; 'I' for Inactive)
REMARK    1  A    between atoms: N_1  and  C_19
REMARK    2  A    between atoms: C_5  and  N_9
REMARK    3  A    between atoms: C_19  and  C_20
REMARK    4  A    between atoms: C_20  and  C_21
REMARK    5  A    between atoms: C_21  and  C_23
REMARK    6  A    between atoms: C_23  and  C_25
REMARK                            x       y       z     vdW  Elec       q    Type
REMARK                         _______ _______ _______ _____ _____    ______ ____
ROOT
ATOM      1  N   UNL     1      34.099 -21.023 -19.429  0.00  0.00    +0.390 N 
ATOM      2  C   UNL     1      32.844 -20.262 -19.442  0.00  0.00    -0.071 C 
ATOM      3  C   UNL     1      32.754 -19.405 -20.715  0.00  0.00    +0.021 C 
ATOM      4  C   UNL     1      35.260 -20.118 -19.397  0.00  0.00    -0.049 C 
ATOM      5  C   UNL     1      34.033 -18.674 -21.012  0.00  0.00    +0.037 C 
ATOM      6  C   UNL     1      35.179 -18.994 -20.394  0.00  0.00    -0.036 C 
ATOM      7  H   UNL     1      34.142 -21.569 -20.289  0.00  0.00    -0.079 HD
ENDROOT
BRANCH   5   9
ATOM      8  O   UNL     1      34.122 -18.846 -23.998  0.00  0.00    -0.246 OA
ATOM      9  N   UNL     1      33.973 -17.661 -21.926  0.00  0.00    -0.263 N 
ATOM     10  N   UNL     1      33.926 -16.497 -23.885  0.00  0.00    -0.305 N 
ATOM     11  C   UNL     1      33.852 -16.290 -21.631  0.00  0.00    +0.083 A 
ATOM     12  C   UNL     1      34.021 -17.812 -23.351  0.00  0.00    +0.332 A 
ATOM     13  C   UNL     1      33.825 -15.587 -22.834  0.00  0.00    +0.076 A 
ATOM     14  C   UNL     1      33.768 -15.634 -20.419  0.00  0.00    +0.019 C 
ATOM     15  C   UNL     1      33.714 -14.215 -22.890  0.00  0.00    +0.019 C 
ATOM     16  C   UNL     1      33.655 -14.240 -20.449  0.00  0.00    +0.002 C 
ATOM     17  C   UNL     1      33.628 -13.538 -21.672  0.00  0.00    +0.002 C 
ATOM     18  H   UNL     1      33.931 -16.266 -24.842  0.00  0.00    +0.170 HD
ENDBRANCH   5   9
BRANCH   1  19
ATOM     19  C   UNL     1      34.138 -21.953 -18.302  0.00  0.00    -0.076 C 
BRANCH  19  20
ATOM     20  C   UNL     1      32.771 -22.010 -17.617  0.00  0.00    -0.015 C 
BRANCH  20  21
ATOM     21  C   UNL     1      32.593 -23.280 -16.780  0.00  0.00    +0.067 C 
BRANCH  21  23
ATOM     22  O   UNL     1      32.120 -22.638 -14.502  0.00  0.00    -0.291 OA
ATOM     23  C   UNL     1      32.931 -23.087 -15.309  0.00  0.00    +0.173 C 
BRANCH  23  25
ATOM     24  F   UNL     1      38.015 -24.537 -13.514  0.00  0.00    -0.204 F 
ATOM     25  C   UNL     1      34.289 -23.474 -14.831  0.00  0.00    +0.035 C 
ATOM     26  C   UNL     1      34.471 -24.735 -14.309  0.00  0.00    +0.005 C 
ATOM     27  C   UNL     1      35.311 -22.557 -14.928  0.00  0.00    +0.005 C 
ATOM     28  C   UNL     1      35.741 -25.097 -13.859  0.00  0.00    +0.030 C 
ATOM     29  C   UNL     1      36.581 -22.918 -14.479  0.00  0.00    +0.030 C 
ATOM     30  C   UNL     1      36.796 -24.189 -13.945  0.00  0.00    +0.140 C 
ENDBRANCH  23  25
ENDBRANCH  21  23
ENDBRANCH  20  21
ENDBRANCH  19  20
ENDBRANCH   1  19
TORSDOF 6
ENDMDL
MODEL 8
REMARK VINA RESULT:     -10.1      3.365      6.263
REMARK  Name = 3168
REMARK  6 active torsions:
REMARK  status: ('A' for Active; 'I' for Inactive)
REMARK    1  A    between atoms: N_1  and  C_19
REMARK    2  A    between atoms: C_5  and  N_9
REMARK    3  A    between atoms: C_19  and  C_20
REMARK    4  A    between atoms: C_20  and  C_21
REMARK    5  A    between atoms: C_21  and  C_23
REMARK    6  A    between atoms: C_23  and  C_25
REMARK                            x       y       z     vdW  Elec       q    Type
REMARK                         _______ _______ _______ _____ _____    ______ ____
ROOT
ATOM      1  N   UNL     1      34.407 -21.003 -19.336  0.00  0.00    +0.390 N 
ATOM      2  C   UNL     1      33.107 -20.320 -19.344  0.00  0.00    -0.071 C 
ATOM      3  C   UNL     1      32.945 -19.500 -20.634  0.00  0.00    +0.021 C 
ATOM      4  C   UNL     1      35.510 -20.029 -19.344  0.00  0.00    -0.049 C 
ATOM      5  C   UNL     1      34.172 -18.700 -20.969  0.00  0.00    +0.037 C 
ATOM      6  C   UNL     1      35.345 -18.935 -20.363  0.00  0.00    -0.036 C 
ATOM      7  H   UNL     1      34.469 -21.565 -20.185  0.00  0.00    -0.079 HD
ENDROOT
BRANCH   5   9
ATOM      8  O   UNL     1      34.122 -18.947 -23.951  0.00  0.00    -0.246 OA
ATOM      9  N   UNL     1      34.036 -17.713 -21.904  0.00  0.00    -0.263 N 
ATOM     10  N   UNL     1      33.858 -16.602 -23.886  0.00  0.00    -0.305 N 
ATOM     11  C   UNL     1      33.887 -16.339 -21.637  0.00  0.00    +0.083 A 
ATOM     12  C   UNL     1      34.020 -17.900 -23.325  0.00  0.00    +0.332 A 
ATOM     13  C   UNL     1      33.779 -15.669 -22.854  0.00  0.00    +0.076 A 
ATOM     14  C   UNL     1      33.840 -15.654 -20.439  0.00  0.00    +0.019 C 
ATOM     15  C   UNL     1      33.621 -14.303 -22.939  0.00  0.00    +0.019 C 
ATOM     16  C   UNL     1      33.682 -14.265 -20.498  0.00  0.00    +0.002 C 
ATOM     17  C   UNL     1      33.573 -13.597 -21.735  0.00  0.00    +0.002 C 
ATOM     18  H   UNL     1      33.809 -16.396 -24.848  0.00  0.00    +0.170 HD
ENDBRANCH   5   9
BRANCH   1  19
ATOM     19  C   UNL     1      34.519 -21.903 -18.190  0.00  0.00    -0.076 C 
BRANCH  19  20
ATOM     20  C   UNL     1      35.682 -21.474 -17.293  0.00  0.00    -0.015 C 
BRANCH  20  21
ATOM     21  C   UNL     1      35.286 -21.419 -15.814  0.00  0.00    +0.067 C 
BRANCH  21  23
ATOM     22  O   UNL     1      35.644 -23.691 -15.082  0.00  0.00    -0.291 OA
ATOM     23  C   UNL     1      34.853 -22.767 -15.255  0.00  0.00    +0.173 C 
BRANCH  23  25
ATOM     24  F   UNL     1      29.489 -23.490 -13.885  0.00  0.00    -0.204 F 
ATOM     25  C   UNL     1      33.421 -22.962 -14.889  0.00  0.00    +0.035 C 
ATOM     26  C   UNL     1      32.462 -22.797 -15.863  0.00  0.00    +0.005 C 
ATOM     27  C   UNL     1      33.110 -23.297 -13.591  0.00  0.00    +0.005 C 
ATOM     28  C   UNL     1      31.122 -22.977 -15.521  0.00  0.00    +0.030 C 
ATOM     29  C   UNL     1      31.770 -23.477 -13.248  0.00  0.00    +0.030 C 
ATOM     30  C   UNL     1      30.775 -23.317 -14.214  0.00  0.00    +0.140 C 
ENDBRANCH  23  25
ENDBRANCH  21  23
ENDBRANCH  20  21
ENDBRANCH  19  20
ENDBRANCH   1  19
TORSDOF 6
ENDMDL
MODEL 9
REMARK VINA RESULT:     -10.1      4.172      6.725
REMARK  Name = 3168
REMARK  6 active torsions:
REMARK  status: ('A' for Active; 'I' for Inactive)
REMARK    1  A    between atoms: N_1  and  C_19
REMARK    2  A    between atoms: C_5  and  N_9
REMARK    3  A    between atoms: C_19  and  C_20
REMARK    4  A    between atoms: C_20  and  C_21
REMARK    5  A    between atoms: C_21  and  C_23
REMARK    6  A    between atoms: C_23  and  C_25
REMARK                            x       y       z     vdW  Elec       q    Type
REMARK                         _______ _______ _______ _____ _____    ______ ____
ROOT
ATOM      1  N   UNL     1      35.063 -20.180 -18.842  0.00  0.00    +0.390 N 
ATOM      2  C   UNL     1      36.149 -19.823 -19.763  0.00  0.00    -0.071 C 
ATOM      3  C   UNL     1      35.819 -18.512 -20.494  0.00  0.00    +0.021 C 
ATOM      4  C   UNL     1      33.812 -20.424 -19.579  0.00  0.00    -0.049 C 
ATOM      5  C   UNL     1      34.408 -18.476 -21.010  0.00  0.00    +0.037 C 
ATOM      6  C   UNL     1      33.492 -19.367 -20.599  0.00  0.00    -0.036 C 
ATOM      7  H   UNL     1      34.915 -19.391 -18.213  0.00  0.00    -0.079 HD
ENDROOT
BRANCH   5   9
ATOM      8  O   UNL     1      34.077 -18.751 -23.971  0.00  0.00    -0.246 OA
ATOM      9  N   UNL     1      34.104 -17.511 -21.926  0.00  0.00    -0.263 N 
ATOM     10  N   UNL     1      33.643 -16.432 -23.880  0.00  0.00    -0.305 N 
ATOM     11  C   UNL     1      33.878 -16.150 -21.646  0.00  0.00    +0.083 A 
ATOM     12  C   UNL     1      33.959 -17.709 -23.339  0.00  0.00    +0.332 A 
ATOM     13  C   UNL     1      33.598 -15.500 -22.847  0.00  0.00    +0.076 A 
ATOM     14  C   UNL     1      33.901 -15.461 -20.450  0.00  0.00    +0.019 C 
ATOM     15  C   UNL     1      33.329 -14.150 -22.915  0.00  0.00    +0.019 C 
ATOM     16  C   UNL     1      33.632 -14.088 -20.494  0.00  0.00    +0.002 C 
ATOM     17  C   UNL     1      33.349 -13.440 -21.714  0.00  0.00    +0.002 C 
ATOM     18  H   UNL     1      33.482 -16.239 -24.833  0.00  0.00    +0.170 HD
ENDBRANCH   5   9
BRANCH   1  19
ATOM     19  C   UNL     1      35.422 -21.342 -18.031  0.00  0.00    -0.076 C 
BRANCH  19  20
ATOM     20  C   UNL     1      36.093 -20.892 -16.732  0.00  0.00    -0.015 C 
BRANCH  20  21
ATOM     21  C   UNL     1      36.507 -22.075 -15.853  0.00  0.00    +0.067 C 
BRANCH  21  23
ATOM     22  O   UNL     1      34.229 -22.195 -15.063  0.00  0.00    -0.291 OA
ATOM     23  C   UNL     1      35.393 -22.570 -14.941  0.00  0.00    +0.173 C 
BRANCH  23  25
ATOM     24  F   UNL     1      36.646 -26.268 -10.950  0.00  0.00    -0.204 F 
ATOM     25  C   UNL     1      35.728 -23.559 -13.876  0.00  0.00    +0.035 C 
ATOM     26  C   UNL     1      34.887 -23.671 -12.792  0.00  0.00    +0.005 C 
ATOM     27  C   UNL     1      36.865 -24.322 -14.015  0.00  0.00    +0.005 C 
ATOM     28  C   UNL     1      35.200 -24.594 -11.794  0.00  0.00    +0.030 C 
ATOM     29  C   UNL     1      37.179 -25.245 -13.018  0.00  0.00    +0.030 C 
ATOM     30  C   UNL     1      36.345 -25.381 -11.907  0.00  0.00    +0.140 C 
ENDBRANCH  23  25
ENDBRANCH  21  23
ENDBRANCH  20  21
ENDBRANCH  19  20
ENDBRANCH   1  19
TORSDOF 6
ENDMDL
