MODEL 1
REMARK VINA RESULT:     -12.2      0.000      0.000
REMARK  Name = 118161062
REMARK  4 active torsions:
REMARK  status: ('A' for Active; 'I' for Inactive)
REMARK    1  A    between atoms: N_1  and  C_26
REMARK    2  A    between atoms: C_7  and  C_15
REMARK    3  A    between atoms: C_21  and  N_28
REMARK    4  A    between atoms: N_27  and  C_35
REMARK                            x       y       z     vdW  Elec       q    Type
REMARK                         _______ _______ _______ _____ _____    ______ ____
ROOT
ATOM      1  N   UNL     1      35.252 -22.787 -15.704  0.00  0.00    -0.286 N 
ATOM      2  N   UNL     1      33.812 -23.636 -12.403  0.00  0.00    -0.260 N 
ATOM      3  N   UNL     1      33.052 -23.184 -15.026  0.00  0.00    -0.384 NA
ATOM      4  N   UNL     1      35.964 -23.293 -12.873  0.00  0.00    -0.224 NA
ATOM      5  C   UNL     1      34.334 -23.096 -14.729  0.00  0.00    +0.216 C 
ATOM      6  C   UNL     1      34.746 -23.334 -13.358  0.00  0.00    +0.180 C 
ATOM      7  C   UNL     1      32.130 -23.501 -14.029  0.00  0.00    +0.162 C 
ATOM      8  C   UNL     1      32.477 -23.719 -12.741  0.00  0.00    +0.159 C 
ATOM      9  C   UNL     1      34.480 -23.799 -11.222  0.00  0.00    +0.088 C 
ATOM     10  C   UNL     1      35.805 -23.583 -11.538  0.00  0.00    +0.117 C 
ATOM     11  H   UNL     1      36.154 -23.160 -15.585  0.00  0.00    +0.155 HD
ENDROOT
BRANCH   7  15
ATOM     12  N   UNL     1      29.941 -24.484 -13.795  0.00  0.00    -0.386 NA
ATOM     13  N   UNL     1      28.900 -22.785 -15.769  0.00  0.00    -0.257 NA
ATOM     14  N   UNL     1      27.776 -25.464 -13.559  0.00  0.00    -0.335 N 
ATOM     15  C   UNL     1      30.705 -23.570 -14.425  0.00  0.00    +0.178 C 
ATOM     16  C   UNL     1      30.194 -22.735 -15.394  0.00  0.00    +0.128 C 
ATOM     17  C   UNL     1      28.647 -24.534 -14.169  0.00  0.00    +0.179 C 
ATOM     18  C   UNL     1      28.136 -23.699 -15.139  0.00  0.00    +0.199 C 
ATOM     19  H   UNL     1      28.115 -26.072 -12.863  0.00  0.00    +0.144 HD
ATOM     20  H   UNL     1      26.830 -25.503 -13.829  0.00  0.00    +0.144 HD
ENDBRANCH   7  15
BRANCH   1  26
ATOM     21  C   UNL     1      34.658 -20.439 -19.136  0.00  0.00    +0.048 C 
ATOM     22  C   UNL     1      33.642 -21.279 -18.682  0.00  0.00    +0.016 C 
ATOM     23  C   UNL     1      35.872 -20.379 -18.451  0.00  0.00    +0.016 C 
ATOM     24  C   UNL     1      33.838 -22.058 -17.542  0.00  0.00    +0.016 C 
ATOM     25  C   UNL     1      36.068 -21.158 -17.311  0.00  0.00    +0.016 C 
ATOM     26  C   UNL     1      35.052 -21.998 -16.856  0.00  0.00    +0.050 C 
BRANCH  21  28
ATOM     27  N   UNL     1      34.012 -17.861 -22.451  0.00  0.00    +0.394 N 
ATOM     28  N   UNL     1      34.461 -19.658 -20.280  0.00  0.00    -0.312 N 
ATOM     29  C   UNL     1      35.381 -18.188 -22.032  0.00  0.00    -0.055 C 
ATOM     30  C   UNL     1      33.140 -19.026 -22.261  0.00  0.00    -0.055 C 
ATOM     31  C   UNL     1      35.419 -18.578 -20.553  0.00  0.00    +0.068 C 
ATOM     32  C   UNL     1      33.102 -19.446 -20.790  0.00  0.00    +0.068 C 
ATOM     33  H   UNL     1      33.665 -17.086 -21.886  0.00  0.00    -0.079 HD
BRANCH  27  35
ATOM     34  O   UNL     1      32.693 -16.014 -24.683  0.00  0.00    -0.358 OA
ATOM     35  C   UNL     1      34.015 -17.481 -23.874  0.00  0.00    +0.002 C 
ATOM     36  C   UNL     1      32.574 -17.428 -24.382  0.00  0.00    +0.124 C 
ATOM     37  C   UNL     1      33.961 -15.956 -23.981  0.00  0.00    +0.124 C 
ENDBRANCH  27  35
ENDBRANCH  21  28
ENDBRANCH   1  26
TORSDOF 4
ENDMDL
MODEL 2
REMARK VINA RESULT:     -10.5      7.752     14.530
REMARK  Name = 118161062
REMARK  4 active torsions:
REMARK  status: ('A' for Active; 'I' for Inactive)
REMARK    1  A    between atoms: N_1  and  C_26
REMARK    2  A    between atoms: C_7  and  C_15
REMARK    3  A    between atoms: C_21  and  N_28
REMARK    4  A    between atoms: N_27  and  C_35
REMARK                            x       y       z     vdW  Elec       q    Type
REMARK                         _______ _______ _______ _____ _____    ______ ____
ROOT
ATOM      1  N   UNL     1      32.639  -9.262 -24.779  0.00  0.00    -0.286 N 
ATOM      2  N   UNL     1      30.477  -6.319 -24.178  0.00  0.00    -0.260 N 
ATOM      3  N   UNL     1      31.779  -8.343 -22.811  0.00  0.00    -0.384 NA
ATOM      4  N   UNL     1      31.214  -7.054 -26.150  0.00  0.00    -0.224 NA
ATOM      5  C   UNL     1      31.893  -8.311 -24.124  0.00  0.00    +0.216 C 
ATOM      6  C   UNL     1      31.218  -7.253 -24.853  0.00  0.00    +0.180 C 
ATOM      7  C   UNL     1      31.022  -7.372 -22.157  0.00  0.00    +0.162 C 
ATOM      8  C   UNL     1      30.373  -6.379 -22.804  0.00  0.00    +0.159 C 
ATOM      9  C   UNL     1      29.961  -5.463 -25.110  0.00  0.00    +0.088 C 
ATOM     10  C   UNL     1      30.429  -5.937 -26.317  0.00  0.00    +0.117 C 
ATOM     11  H   UNL     1      33.067  -8.976 -25.618  0.00  0.00    +0.155 HD
ENDROOT
BRANCH   7  15
ATOM     12  N   UNL     1      30.849  -8.714 -20.162  0.00  0.00    -0.386 NA
ATOM     13  N   UNL     1      30.813  -6.420 -18.548  0.00  0.00    -0.257 NA
ATOM     14  N   UNL     1      30.676 -10.050 -18.190  0.00  0.00    -0.335 N 
ATOM     15  C   UNL     1      30.923  -7.474 -20.683  0.00  0.00    +0.178 C 
ATOM     16  C   UNL     1      30.905  -6.347 -19.891  0.00  0.00    +0.128 C 
ATOM     17  C   UNL     1      30.758  -8.788 -18.819  0.00  0.00    +0.179 C 
ATOM     18  C   UNL     1      30.740  -7.661 -18.026  0.00  0.00    +0.199 C 
ATOM     19  H   UNL     1      30.687 -10.872 -18.733  0.00  0.00    +0.144 HD
ATOM     20  H   UNL     1      30.610 -10.108 -17.210  0.00  0.00    +0.144 HD
ENDBRANCH   7  15
BRANCH   1  26
ATOM     21  C   UNL     1      33.307 -13.244 -23.623  0.00  0.00    +0.048 C 
ATOM     22  C   UNL     1      33.454 -12.214 -22.694  0.00  0.00    +0.016 C 
ATOM     23  C   UNL     1      32.939 -12.951 -24.937  0.00  0.00    +0.016 C 
ATOM     24  C   UNL     1      33.231 -10.892 -23.077  0.00  0.00    +0.016 C 
ATOM     25  C   UNL     1      32.716 -11.629 -25.320  0.00  0.00    +0.016 C 
ATOM     26  C   UNL     1      32.862 -10.599 -24.391  0.00  0.00    +0.050 C 
BRANCH  21  28
ATOM     27  N   UNL     1      33.726 -17.304 -22.444  0.00  0.00    +0.394 N 
ATOM     28  N   UNL     1      33.532 -14.571 -23.239  0.00  0.00    -0.312 N 
ATOM     29  C   UNL     1      33.874 -16.932 -23.857  0.00  0.00    -0.055 C 
ATOM     30  C   UNL     1      34.271 -16.245 -21.589  0.00  0.00    -0.055 C 
ATOM     31  C   UNL     1      33.118 -15.637 -24.160  0.00  0.00    +0.068 C 
ATOM     32  C   UNL     1      33.530 -14.925 -21.815  0.00  0.00    +0.068 C 
ATOM     33  H   UNL     1      32.736 -17.431 -22.233  0.00  0.00    -0.079 HD
BRANCH  27  35
ATOM     34  O   UNL     1      35.153 -19.122 -20.255  0.00  0.00    -0.358 OA
ATOM     35  C   UNL     1      34.456 -18.558 -22.192  0.00  0.00    +0.002 C 
ATOM     36  C   UNL     1      35.667 -18.264 -21.306  0.00  0.00    +0.124 C 
ATOM     37  C   UNL     1      33.880 -19.226 -20.942  0.00  0.00    +0.124 C 
ENDBRANCH  27  35
ENDBRANCH  21  28
ENDBRANCH   1  26
TORSDOF 4
ENDMDL
MODEL 3
REMARK VINA RESULT:      -9.9      8.733     14.820
REMARK  Name = 118161062
REMARK  4 active torsions:
REMARK  status: ('A' for Active; 'I' for Inactive)
REMARK    1  A    between atoms: N_1  and  C_26
REMARK    2  A    between atoms: C_7  and  C_15
REMARK    3  A    between atoms: C_21  and  N_28
REMARK    4  A    between atoms: N_27  and  C_35
REMARK                            x       y       z     vdW  Elec       q    Type
REMARK                         _______ _______ _______ _____ _____    ______ ____
ROOT
ATOM      1  N   UNL     1      30.770  -9.431 -20.237  0.00  0.00    -0.286 N 
ATOM      2  N   UNL     1      31.353  -5.786 -19.967  0.00  0.00    -0.260 N 
ATOM      3  N   UNL     1      31.472  -7.850 -21.808  0.00  0.00    -0.384 NA
ATOM      4  N   UNL     1      30.671  -7.153 -18.343  0.00  0.00    -0.224 NA
ATOM      5  C   UNL     1      31.092  -8.138 -20.578  0.00  0.00    +0.216 C 
ATOM      6  C   UNL     1      31.024  -7.065 -19.604  0.00  0.00    +0.180 C 
ATOM      7  C   UNL     1      31.793  -6.535 -22.143  0.00  0.00    +0.162 C 
ATOM      8  C   UNL     1      31.749  -5.513 -21.260  0.00  0.00    +0.159 C 
ATOM      9  C   UNL     1      31.203  -5.000 -18.859  0.00  0.00    +0.088 C 
ATOM     10  C   UNL     1      30.781  -5.866 -17.871  0.00  0.00    +0.117 C 
ATOM     11  H   UNL     1      30.099  -9.538 -19.526  0.00  0.00    +0.155 HD
ENDROOT
BRANCH   7  15
ATOM     12  N   UNL     1      31.346  -6.585 -24.511  0.00  0.00    -0.386 NA
ATOM     13  N   UNL     1      33.880  -5.522 -25.074  0.00  0.00    -0.257 NA
ATOM     14  N   UNL     1      30.897  -6.638 -26.856  0.00  0.00    -0.335 N 
ATOM     15  C   UNL     1      32.225  -6.281 -23.537  0.00  0.00    +0.178 C 
ATOM     16  C   UNL     1      33.469  -5.758 -23.812  0.00  0.00    +0.128 C 
ATOM     17  C   UNL     1      31.756  -6.348 -25.773  0.00  0.00    +0.179 C 
ATOM     18  C   UNL     1      33.001  -5.826 -26.050  0.00  0.00    +0.199 C 
ATOM     19  H   UNL     1      30.001  -7.012 -26.687  0.00  0.00    +0.144 HD
ATOM     20  H   UNL     1      31.193  -6.467 -27.779  0.00  0.00    +0.144 HD
ENDBRANCH   7  15
BRANCH   1  26
ATOM     21  C   UNL     1      32.323 -12.976 -21.869  0.00  0.00    +0.048 C 
ATOM     22  C   UNL     1      31.636 -13.009 -20.656  0.00  0.00    +0.016 C 
ATOM     23  C   UNL     1      32.495 -11.765 -22.540  0.00  0.00    +0.016 C 
ATOM     24  C   UNL     1      31.119 -11.833 -20.114  0.00  0.00    +0.016 C 
ATOM     25  C   UNL     1      31.978 -10.588 -21.998  0.00  0.00    +0.016 C 
ATOM     26  C   UNL     1      31.291 -10.621 -20.785  0.00  0.00    +0.050 C 
BRANCH  21  28
ATOM     27  N   UNL     1      34.118 -16.428 -23.575  0.00  0.00    +0.394 N 
ATOM     28  N   UNL     1      32.842 -14.157 -22.412  0.00  0.00    -0.312 N 
ATOM     29  C   UNL     1      34.099 -16.256 -22.117  0.00  0.00    -0.055 C 
ATOM     30  C   UNL     1      32.881 -15.895 -24.157  0.00  0.00    -0.055 C 
ATOM     31  C   UNL     1      33.994 -14.776 -21.745  0.00  0.00    +0.068 C 
ATOM     32  C   UNL     1      32.734 -14.402 -23.854  0.00  0.00    +0.068 C 
ATOM     33  H   UNL     1      34.916 -15.923 -23.962  0.00  0.00    -0.079 HD
BRANCH  27  35
ATOM     34  O   UNL     1      33.307 -19.385 -22.721  0.00  0.00    -0.358 OA
ATOM     35  C   UNL     1      34.230 -17.861 -23.896  0.00  0.00    +0.002 C 
ATOM     36  C   UNL     1      34.546 -18.638 -22.618  0.00  0.00    +0.124 C 
ATOM     37  C   UNL     1      32.847 -18.505 -23.779  0.00  0.00    +0.124 C 
ENDBRANCH  27  35
ENDBRANCH  21  28
ENDBRANCH   1  26
TORSDOF 4
ENDMDL
MODEL 4
REMARK VINA RESULT:      -9.5      1.562      2.314
REMARK  Name = 118161062
REMARK  4 active torsions:
REMARK  status: ('A' for Active; 'I' for Inactive)
REMARK    1  A    between atoms: N_1  and  C_26
REMARK    2  A    between atoms: C_7  and  C_15
REMARK    3  A    between atoms: C_21  and  N_28
REMARK    4  A    between atoms: N_27  and  C_35
REMARK                            x       y       z     vdW  Elec       q    Type
REMARK                         _______ _______ _______ _____ _____    ______ ____
ROOT
ATOM      1  N   UNL     1      33.614 -22.837 -16.590  0.00  0.00    -0.286 N 
ATOM      2  N   UNL     1      31.862 -23.665 -13.437  0.00  0.00    -0.260 N 
ATOM      3  N   UNL     1      31.348 -22.815 -16.021  0.00  0.00    -0.384 NA
ATOM      4  N   UNL     1      34.060 -23.749 -13.806  0.00  0.00    -0.224 NA
ATOM      5  C   UNL     1      32.604 -23.033 -15.679  0.00  0.00    +0.216 C 
ATOM      6  C   UNL     1      32.886 -23.481 -14.329  0.00  0.00    +0.180 C 
ATOM      7  C   UNL     1      30.331 -23.019 -15.089  0.00  0.00    +0.162 C 
ATOM      8  C   UNL     1      30.559 -23.427 -13.821  0.00  0.00    +0.159 C 
ATOM      9  C   UNL     1      32.421 -24.077 -12.260  0.00  0.00    +0.088 C 
ATOM     10  C   UNL     1      33.776 -24.122 -12.513  0.00  0.00    +0.117 C 
ATOM     11  H   UNL     1      34.411 -23.405 -16.484  0.00  0.00    +0.155 HD
ENDROOT
BRANCH   7  15
ATOM     12  N   UNL     1      28.078 -22.323 -14.591  0.00  0.00    -0.386 NA
ATOM     13  N   UNL     1      27.315 -22.665 -17.268  0.00  0.00    -0.257 NA
ATOM     14  N   UNL     1      25.847 -21.635 -14.089  0.00  0.00    -0.335 N 
ATOM     15  C   UNL     1      28.945 -22.742 -15.532  0.00  0.00    +0.178 C 
ATOM     16  C   UNL     1      28.571 -22.910 -16.847  0.00  0.00    +0.128 C 
ATOM     17  C   UNL     1      26.821 -22.078 -15.011  0.00  0.00    +0.179 C 
ATOM     18  C   UNL     1      26.446 -22.245 -16.327  0.00  0.00    +0.199 C 
ATOM     19  H   UNL     1      26.087 -21.506 -13.143  0.00  0.00    +0.144 HD
ATOM     20  H   UNL     1      24.928 -21.454 -14.392  0.00  0.00    +0.144 HD
ENDBRANCH   7  15
BRANCH   1  26
ATOM     21  C   UNL     1      33.703 -20.097 -19.773  0.00  0.00    +0.048 C 
ATOM     22  C   UNL     1      34.895 -20.549 -19.208  0.00  0.00    +0.016 C 
ATOM     23  C   UNL     1      32.480 -20.554 -19.279  0.00  0.00    +0.016 C 
ATOM     24  C   UNL     1      34.867 -21.460 -18.153  0.00  0.00    +0.016 C 
ATOM     25  C   UNL     1      32.452 -21.465 -18.224  0.00  0.00    +0.016 C 
ATOM     26  C   UNL     1      33.644 -21.918 -17.660  0.00  0.00    +0.050 C 
BRANCH  21  28
ATOM     27  N   UNL     1      34.016 -17.436 -23.070  0.00  0.00    +0.394 N 
ATOM     28  N   UNL     1      33.732 -19.183 -20.832  0.00  0.00    -0.312 N 
ATOM     29  C   UNL     1      33.105 -18.586 -23.139  0.00  0.00    -0.055 C 
ATOM     30  C   UNL     1      34.039 -16.900 -21.705  0.00  0.00    -0.055 C 
ATOM     31  C   UNL     1      33.562 -19.700 -22.196  0.00  0.00    +0.068 C 
ATOM     32  C   UNL     1      34.527 -17.956 -20.711  0.00  0.00    +0.068 C 
ATOM     33  H   UNL     1      34.955 -17.737 -23.329  0.00  0.00    -0.079 HD
BRANCH  27  35
ATOM     34  O   UNL     1      33.558 -14.315 -23.497  0.00  0.00    -0.358 OA
ATOM     35  C   UNL     1      33.551 -16.390 -23.997  0.00  0.00    +0.002 C 
ATOM     36  C   UNL     1      32.648 -15.416 -23.241  0.00  0.00    +0.124 C 
ATOM     37  C   UNL     1      34.560 -15.240 -23.993  0.00  0.00    +0.124 C 
ENDBRANCH  27  35
ENDBRANCH  21  28
ENDBRANCH   1  26
TORSDOF 4
ENDMDL
