MODEL 1
REMARK VINA RESULT:     -11.8      0.000      0.000
REMARK  Name = 58212050
REMARK  2 active torsions:
REMARK  status: ('A' for Active; 'I' for Inactive)
REMARK    1  A    between atoms: C_2  and  C_13
REMARK    2  A    between atoms: C_10  and  C_26
REMARK                            x       y       z     vdW  Elec       q    Type
REMARK                         _______ _______ _______ _____ _____    ______ ____
ROOT
ATOM      1  N   UNL     1      36.196 -22.527 -16.100  0.00  0.00    +0.389 N 
ATOM      2  C   UNL     1      33.759 -22.837 -16.406  0.00  0.00    +0.023 C 
ATOM      3  C   UNL     1      34.920 -22.688 -15.393  0.00  0.00    -0.068 C 
ATOM      4  C   UNL     1      33.837 -21.830 -17.547  0.00  0.00    -0.026 C 
ATOM      5  C   UNL     1      35.020 -21.096 -17.758  0.00  0.00    -0.047 C 
ATOM      6  C   UNL     1      36.200 -21.247 -16.825  0.00  0.00    -0.050 C 
ATOM      7  C   UNL     1      32.775 -21.680 -18.454  0.00  0.00    -0.004 C 
ATOM      8  C   UNL     1      35.093 -20.180 -18.818  0.00  0.00    -0.005 C 
ATOM      9  C   UNL     1      37.318 -22.583 -15.162  0.00  0.00    -0.100 C 
ATOM     10  C   UNL     1      34.018 -20.021 -19.691  0.00  0.00    +0.019 C 
ATOM     11  C   UNL     1      32.863 -20.776 -19.513  0.00  0.00    +0.001 C 
ATOM     12  H   UNL     1      36.303 -23.291 -16.767  0.00  0.00    -0.079 HD
ENDROOT
BRANCH   2  13
ATOM     13  C   UNL     1      32.433 -22.831 -15.654  0.00  0.00    -0.020 C 
ATOM     14  C   UNL     1      31.238 -22.648 -16.350  0.00  0.00    -0.004 C 
ATOM     15  C   UNL     1      32.416 -23.006 -14.274  0.00  0.00    -0.004 C 
ATOM     16  C   UNL     1      30.009 -22.638 -15.672  0.00  0.00    -0.000 C 
ATOM     17  C   UNL     1      29.991 -22.816 -14.268  0.00  0.00    -0.000 C 
ATOM     18  C   UNL     1      31.203 -22.999 -13.584  0.00  0.00    -0.000 C 
ATOM     19  C   UNL     1      28.796 -22.455 -16.357  0.00  0.00    -0.000 C 
ATOM     20  C   UNL     1      28.761 -22.806 -13.590  0.00  0.00    -0.000 C 
ATOM     21  C   UNL     1      27.583 -22.448 -15.667  0.00  0.00    -0.000 C 
ATOM     22  C   UNL     1      27.566 -22.623 -14.286  0.00  0.00    -0.000 C 
ENDBRANCH   2  13
BRANCH  10  26
ATOM     23  N   UNL     1      34.561 -17.850 -20.456  0.00  0.00    -0.147 NA
ATOM     24  N   UNL     1      34.675 -16.904 -21.426  0.00  0.00    -0.133 NA
ATOM     25  N   UNL     1      34.449 -16.233 -23.703  0.00  0.00    -0.341 N 
ATOM     26  C   UNL     1      34.107 -19.079 -20.785  0.00  0.00    +0.103 C 
ATOM     27  C   UNL     1      33.748 -19.427 -22.071  0.00  0.00    +0.024 C 
ATOM     28  C   UNL     1      33.863 -18.464 -23.058  0.00  0.00    +0.037 C 
ATOM     29  C   UNL     1      34.331 -17.217 -22.693  0.00  0.00    +0.147 C 
ATOM     30  H   UNL     1      34.778 -15.334 -23.477  0.00  0.00    +0.144 HD
ATOM     31  H   UNL     1      34.200 -16.448 -24.631  0.00  0.00    +0.144 HD
ENDBRANCH  10  26
TORSDOF 2
ENDMDL
MODEL 2
REMARK VINA RESULT:     -11.3      7.970     13.692
REMARK  Name = 58212050
REMARK  2 active torsions:
REMARK  status: ('A' for Active; 'I' for Inactive)
REMARK    1  A    between atoms: C_2  and  C_13
REMARK    2  A    between atoms: C_10  and  C_26
REMARK                            x       y       z     vdW  Elec       q    Type
REMARK                         _______ _______ _______ _____ _____    ______ ____
ROOT
ATOM      1  N   UNL     1      30.314 -10.112 -19.707  0.00  0.00    +0.389 N 
ATOM      2  C   UNL     1      31.287  -9.438 -21.881  0.00  0.00    +0.023 C 
ATOM      3  C   UNL     1      30.976  -9.016 -20.424  0.00  0.00    -0.068 C 
ATOM      4  C   UNL     1      31.884 -10.836 -21.977  0.00  0.00    -0.026 C 
ATOM      5  C   UNL     1      31.834 -11.700 -20.866  0.00  0.00    -0.047 C 
ATOM      6  C   UNL     1      31.249 -11.237 -19.551  0.00  0.00    -0.050 C 
ATOM      7  C   UNL     1      32.410 -11.317 -23.188  0.00  0.00    -0.004 C 
ATOM      8  C   UNL     1      32.372 -12.992 -20.964  0.00  0.00    -0.005 C 
ATOM      9  C   UNL     1      29.840  -9.662 -18.398  0.00  0.00    -0.100 C 
ATOM     10  C   UNL     1      32.918 -13.443 -22.164  0.00  0.00    +0.019 C 
ATOM     11  C   UNL     1      32.931 -12.608 -23.277  0.00  0.00    +0.001 C 
ATOM     12  H   UNL     1      29.505 -10.420 -20.247  0.00  0.00    -0.079 HD
ENDROOT
BRANCH   2  13
ATOM     13  C   UNL     1      32.123  -8.352 -22.549  0.00  0.00    -0.020 C 
ATOM     14  C   UNL     1      31.800  -7.916 -23.834  0.00  0.00    -0.004 C 
ATOM     15  C   UNL     1      33.207  -7.797 -21.877  0.00  0.00    -0.004 C 
ATOM     16  C   UNL     1      32.560  -6.918 -24.464  0.00  0.00    -0.000 C 
ATOM     17  C   UNL     1      33.663  -6.354 -23.781  0.00  0.00    -0.000 C 
ATOM     18  C   UNL     1      33.974  -6.805 -22.488  0.00  0.00    -0.000 C 
ATOM     19  C   UNL     1      32.249  -6.468 -25.758  0.00  0.00    -0.000 C 
ATOM     20  C   UNL     1      34.424  -5.356 -24.412  0.00  0.00    -0.000 C 
ATOM     21  C   UNL     1      33.016  -5.475 -26.370  0.00  0.00    -0.000 C 
ATOM     22  C   UNL     1      34.101  -4.921 -25.698  0.00  0.00    -0.000 C 
ENDBRANCH   2  13
BRANCH  10  26
ATOM     23  N   UNL     1      33.867 -15.321 -21.085  0.00  0.00    -0.147 NA
ATOM     24  N   UNL     1      34.393 -16.576 -21.082  0.00  0.00    -0.133 NA
ATOM     25  N   UNL     1      35.045 -18.552 -22.246  0.00  0.00    -0.341 N 
ATOM     26  C   UNL     1      33.464 -14.780 -22.254  0.00  0.00    +0.103 C 
ATOM     27  C   UNL     1      33.560 -15.443 -23.461  0.00  0.00    +0.024 C 
ATOM     28  C   UNL     1      34.095 -16.719 -23.458  0.00  0.00    +0.037 C 
ATOM     29  C   UNL     1      34.498 -17.247 -22.249  0.00  0.00    +0.147 C 
ATOM     30  H   UNL     1      35.343 -18.959 -21.400  0.00  0.00    +0.144 HD
ATOM     31  H   UNL     1      35.128 -19.052 -23.090  0.00  0.00    +0.144 HD
ENDBRANCH  10  26
TORSDOF 2
ENDMDL
MODEL 3
REMARK VINA RESULT:     -10.7     11.207     15.541
REMARK  Name = 58212050
REMARK  2 active torsions:
REMARK  status: ('A' for Active; 'I' for Inactive)
REMARK    1  A    between atoms: C_2  and  C_13
REMARK    2  A    between atoms: C_10  and  C_26
REMARK                            x       y       z     vdW  Elec       q    Type
REMARK                         _______ _______ _______ _____ _____    ______ ____
ROOT
ATOM      1  N   UNL     1      30.364  -3.973 -21.189  0.00  0.00    +0.389 N 
ATOM      2  C   UNL     1      31.601  -6.055 -20.677  0.00  0.00    +0.023 C 
ATOM      3  C   UNL     1      30.236  -5.327 -20.638  0.00  0.00    -0.068 C 
ATOM      4  C   UNL     1      32.331  -5.875 -22.002  0.00  0.00    -0.026 C 
ATOM      5  C   UNL     1      31.899  -4.893 -22.914  0.00  0.00    -0.047 C 
ATOM      6  C   UNL     1      30.677  -4.052 -22.625  0.00  0.00    -0.050 C 
ATOM      7  C   UNL     1      33.488  -6.614 -22.298  0.00  0.00    -0.004 C 
ATOM      8  C   UNL     1      32.582  -4.720 -24.127  0.00  0.00    -0.005 C 
ATOM      9  C   UNL     1      29.133  -3.210 -20.979  0.00  0.00    -0.100 C 
ATOM     10  C   UNL     1      33.711  -5.484 -24.419  0.00  0.00    +0.019 C 
ATOM     11  C   UNL     1      34.167  -6.426 -23.502  0.00  0.00    +0.001 C 
ATOM     12  H   UNL     1      31.122  -3.491 -20.706  0.00  0.00    -0.079 HD
ENDROOT
BRANCH   2  13
ATOM     13  C   UNL     1      31.406  -7.509 -20.261  0.00  0.00    -0.020 C 
ATOM     14  C   UNL     1      31.580  -8.530 -21.196  0.00  0.00    -0.004 C 
ATOM     15  C   UNL     1      31.055  -7.816 -18.950  0.00  0.00    -0.004 C 
ATOM     16  C   UNL     1      31.404  -9.874 -20.829  0.00  0.00    -0.000 C 
ATOM     17  C   UNL     1      31.045 -10.186 -19.497  0.00  0.00    -0.000 C 
ATOM     18  C   UNL     1      30.875  -9.146 -18.569  0.00  0.00    -0.000 C 
ATOM     19  C   UNL     1      31.574 -10.914 -21.758  0.00  0.00    -0.000 C 
ATOM     20  C   UNL     1      30.868 -11.531 -19.130  0.00  0.00    -0.000 C 
ATOM     21  C   UNL     1      31.394 -12.244 -21.376  0.00  0.00    -0.000 C 
ATOM     22  C   UNL     1      31.042 -12.552 -20.065  0.00  0.00    -0.000 C 
ENDBRANCH   2  13
BRANCH  10  26
ATOM     23  N   UNL     1      34.203  -6.247 -26.602  0.00  0.00    -0.147 NA
ATOM     24  N   UNL     1      34.825  -6.143 -27.808  0.00  0.00    -0.133 NA
ATOM     25  N   UNL     1      36.280  -4.979 -29.295  0.00  0.00    -0.341 N 
ATOM     26  C   UNL     1      34.411  -5.293 -25.670  0.00  0.00    +0.103 C 
ATOM     27  C   UNL     1      35.232  -4.203 -25.881  0.00  0.00    +0.024 C 
ATOM     28  C   UNL     1      35.864  -4.097 -27.108  0.00  0.00    +0.037 C 
ATOM     29  C   UNL     1      35.634  -5.087 -28.041  0.00  0.00    +0.147 C 
ATOM     30  H   UNL     1      36.138  -5.668 -29.983  0.00  0.00    +0.144 HD
ATOM     31  H   UNL     1      36.873  -4.215 -29.478  0.00  0.00    +0.144 HD
ENDBRANCH  10  26
TORSDOF 2
ENDMDL
MODEL 4
REMARK VINA RESULT:     -10.4      8.429     13.066
REMARK  Name = 58212050
REMARK  2 active torsions:
REMARK  status: ('A' for Active; 'I' for Inactive)
REMARK    1  A    between atoms: C_2  and  C_13
REMARK    2  A    between atoms: C_10  and  C_26
REMARK                            x       y       z     vdW  Elec       q    Type
REMARK                         _______ _______ _______ _____ _____    ______ ____
ROOT
ATOM      1  N   UNL     1      30.936 -10.025 -20.371  0.00  0.00    +0.389 N 
ATOM      2  C   UNL     1      32.576 -11.289 -21.729  0.00  0.00    +0.023 C 
ATOM      3  C   UNL     1      31.238 -11.338 -20.953  0.00  0.00    -0.068 C 
ATOM      4  C   UNL     1      32.701 -10.054 -22.614  0.00  0.00    -0.026 C 
ATOM      5  C   UNL     1      31.807  -8.979 -22.451  0.00  0.00    -0.047 C 
ATOM      6  C   UNL     1      30.679  -9.055 -21.448  0.00  0.00    -0.050 C 
ATOM      7  C   UNL     1      33.752  -9.929 -23.539  0.00  0.00    -0.004 C 
ATOM      8  C   UNL     1      31.934  -7.839 -23.259  0.00  0.00    -0.005 C 
ATOM      9  C   UNL     1      29.782 -10.108 -19.476  0.00  0.00    -0.100 C 
ATOM     10  C   UNL     1      32.964  -7.744 -24.192  0.00  0.00    +0.019 C 
ATOM     11  C   UNL     1      33.876  -8.786 -24.327  0.00  0.00    +0.001 C 
ATOM     12  H   UNL     1      31.739  -9.714 -19.824  0.00  0.00    -0.079 HD
ENDROOT
BRANCH   2  13
ATOM     13  C   UNL     1      32.780 -12.609 -22.463  0.00  0.00    -0.020 C 
ATOM     14  C   UNL     1      33.365 -13.690 -21.803  0.00  0.00    -0.004 C 
ATOM     15  C   UNL     1      32.382 -12.735 -23.790  0.00  0.00    -0.004 C 
ATOM     16  C   UNL     1      33.561 -14.912 -22.464  0.00  0.00    -0.000 C 
ATOM     17  C   UNL     1      33.157 -15.041 -23.815  0.00  0.00    -0.000 C 
ATOM     18  C   UNL     1      32.569 -13.943 -24.463  0.00  0.00    -0.000 C 
ATOM     19  C   UNL     1      34.149 -16.010 -21.815  0.00  0.00    -0.000 C 
ATOM     20  C   UNL     1      33.354 -16.264 -24.477  0.00  0.00    -0.000 C 
ATOM     21  C   UNL     1      34.337 -17.218 -22.488  0.00  0.00    -0.000 C 
ATOM     22  C   UNL     1      33.940 -17.345 -23.816  0.00  0.00    -0.000 C 
ENDBRANCH   2  13
BRANCH  10  26
ATOM     23  N   UNL     1      32.228  -6.481 -26.052  0.00  0.00    -0.147 NA
ATOM     24  N   UNL     1      32.279  -5.400 -26.875  0.00  0.00    -0.133 NA
ATOM     25  N   UNL     1      33.244  -3.307 -27.490  0.00  0.00    -0.341 N 
ATOM     26  C   UNL     1      33.089  -6.560 -25.015  0.00  0.00    +0.103 C 
ATOM     27  C   UNL     1      34.030  -5.587 -24.745  0.00  0.00    +0.024 C 
ATOM     28  C   UNL     1      34.082  -4.487 -25.582  0.00  0.00    +0.037 C 
ATOM     29  C   UNL     1      33.190  -4.433 -26.634  0.00  0.00    +0.147 C 
ATOM     30  H   UNL     1      32.621  -3.238 -28.250  0.00  0.00    +0.144 HD
ATOM     31  H   UNL     1      33.903  -2.596 -27.326  0.00  0.00    +0.144 HD
ENDBRANCH  10  26
TORSDOF 2
ENDMDL
MODEL 5
REMARK VINA RESULT:     -10.3     15.489     19.686
REMARK  Name = 58212050
REMARK  2 active torsions:
REMARK  status: ('A' for Active; 'I' for Inactive)
REMARK    1  A    between atoms: C_2  and  C_13
REMARK    2  A    between atoms: C_10  and  C_26
REMARK                            x       y       z     vdW  Elec       q    Type
REMARK                         _______ _______ _______ _____ _____    ______ ____
ROOT
ATOM      1  N   UNL     1      32.239  -3.348 -27.471  0.00  0.00    +0.389 N 
ATOM      2  C   UNL     1      34.242  -4.736 -27.031  0.00  0.00    +0.023 C 
ATOM      3  C   UNL     1      33.688  -3.448 -27.685  0.00  0.00    -0.068 C 
ATOM      4  C   UNL     1      33.697  -4.968 -25.627  0.00  0.00    -0.026 C 
ATOM      5  C   UNL     1      32.588  -4.228 -25.172  0.00  0.00    -0.047 C 
ATOM      6  C   UNL     1      31.965  -3.157 -26.037  0.00  0.00    -0.050 C 
ATOM      7  C   UNL     1      34.227  -5.973 -24.801  0.00  0.00    -0.004 C 
ATOM      8  C   UNL     1      32.081  -4.454 -23.884  0.00  0.00    -0.005 C 
ATOM      9  C   UNL     1      31.676  -2.244 -28.247  0.00  0.00    -0.100 C 
ATOM     10  C   UNL     1      32.638  -5.435 -23.066  0.00  0.00    +0.019 C 
ATOM     11  C   UNL     1      33.706  -6.199 -23.527  0.00  0.00    +0.001 C 
ATOM     12  H   UNL     1      31.799  -4.213 -27.784  0.00  0.00    -0.079 HD
ENDROOT
BRANCH   2  13
ATOM     13  C   UNL     1      35.763  -4.730 -27.120  0.00  0.00    -0.020 C 
ATOM     14  C   UNL     1      36.416  -5.627 -27.965  0.00  0.00    -0.004 C 
ATOM     15  C   UNL     1      36.500  -3.830 -26.356  0.00  0.00    -0.004 C 
ATOM     16  C   UNL     1      37.817  -5.634 -28.058  0.00  0.00    -0.000 C 
ATOM     17  C   UNL     1      38.566  -4.719 -27.281  0.00  0.00    -0.000 C 
ATOM     18  C   UNL     1      37.893  -3.823 -26.435  0.00  0.00    -0.000 C 
ATOM     19  C   UNL     1      38.490  -6.531 -28.904  0.00  0.00    -0.000 C 
ATOM     20  C   UNL     1      39.968  -4.727 -27.372  0.00  0.00    -0.000 C 
ATOM     21  C   UNL     1      39.884  -6.525 -28.983  0.00  0.00    -0.000 C 
ATOM     22  C   UNL     1      40.621  -5.625 -28.219  0.00  0.00    -0.000 C 
ENDBRANCH   2  13
BRANCH  10  26
ATOM     23  N   UNL     1      32.639  -6.706 -21.071  0.00  0.00    -0.147 NA
ATOM     24  N   UNL     1      32.192  -6.990 -19.819  0.00  0.00    -0.133 NA
ATOM     25  N   UNL     1      30.755  -6.518 -17.975  0.00  0.00    -0.341 N 
ATOM     26  C   UNL     1      32.102  -5.664 -21.741  0.00  0.00    +0.103 C 
ATOM     27  C   UNL     1      31.110  -4.863 -21.213  0.00  0.00    +0.024 C 
ATOM     28  C   UNL     1      30.655  -5.152 -19.939  0.00  0.00    +0.037 C 
ATOM     29  C   UNL     1      31.222  -6.223 -19.278  0.00  0.00    +0.147 C 
ATOM     30  H   UNL     1      31.138  -7.275 -17.475  0.00  0.00    +0.144 HD
ATOM     31  H   UNL     1      30.048  -5.967 -17.569  0.00  0.00    +0.144 HD
ENDBRANCH  10  26
TORSDOF 2
ENDMDL
MODEL 6
REMARK VINA RESULT:     -10.1     12.560     18.492
REMARK  Name = 58212050
REMARK  2 active torsions:
REMARK  status: ('A' for Active; 'I' for Inactive)
REMARK    1  A    between atoms: C_2  and  C_13
REMARK    2  A    between atoms: C_10  and  C_26
REMARK                            x       y       z     vdW  Elec       q    Type
REMARK                         _______ _______ _______ _____ _____    ______ ____
ROOT
ATOM      1  N   UNL     1      30.499  -4.699 -26.424  0.00  0.00    +0.389 N 
ATOM      2  C   UNL     1      32.763  -5.693 -26.531  0.00  0.00    +0.023 C 
ATOM      3  C   UNL     1      31.892  -4.443 -26.805  0.00  0.00    -0.068 C 
ATOM      4  C   UNL     1      32.484  -6.322 -25.172  0.00  0.00    -0.026 C 
ATOM      5  C   UNL     1      31.340  -5.944 -24.444  0.00  0.00    -0.047 C 
ATOM      6  C   UNL     1      30.410  -4.872 -24.965  0.00  0.00    -0.050 C 
ATOM      7  C   UNL     1      33.306  -7.342 -24.663  0.00  0.00    -0.004 C 
ATOM      8  C   UNL     1      31.079  -6.535 -23.198  0.00  0.00    -0.005 C 
ATOM      9  C   UNL     1      29.634  -3.602 -26.858  0.00  0.00    -0.100 C 
ATOM     10  C   UNL     1      31.922  -7.524 -22.694  0.00  0.00    +0.019 C 
ATOM     11  C   UNL     1      33.030  -7.932 -23.430  0.00  0.00    +0.001 C 
ATOM     12  H   UNL     1      30.182  -5.552 -26.883  0.00  0.00    -0.079 HD
ENDROOT
BRANCH   2  13
ATOM     13  C   UNL     1      34.228  -5.347 -26.774  0.00  0.00    -0.020 C 
ATOM     14  C   UNL     1      34.985  -6.108 -27.664  0.00  0.00    -0.004 C 
ATOM     15  C   UNL     1      34.808  -4.274 -26.106  0.00  0.00    -0.004 C 
ATOM     16  C   UNL     1      36.336  -5.803 -27.898  0.00  0.00    -0.000 C 
ATOM     17  C   UNL     1      36.926  -4.712 -27.218  0.00  0.00    -0.000 C 
ATOM     18  C   UNL     1      36.149  -3.957 -26.325  0.00  0.00    -0.000 C 
ATOM     19  C   UNL     1      37.113  -6.559 -28.791  0.00  0.00    -0.000 C 
ATOM     20  C   UNL     1      38.277  -4.407 -27.451  0.00  0.00    -0.000 C 
ATOM     21  C   UNL     1      38.454  -6.242 -29.011  0.00  0.00    -0.000 C 
ATOM     22  C   UNL     1      39.035  -5.168 -28.343  0.00  0.00    -0.000 C 
ENDBRANCH   2  13
BRANCH  10  26
ATOM     23  N   UNL     1      32.105  -7.459 -20.337  0.00  0.00    -0.147 NA
ATOM     24  N   UNL     1      31.882  -7.962 -19.093  0.00  0.00    -0.133 NA
ATOM     25  N   UNL     1      30.970  -9.644 -17.671  0.00  0.00    -0.341 N 
ATOM     26  C   UNL     1      31.640  -8.131 -21.412  0.00  0.00    +0.103 C 
ATOM     27  C   UNL     1      30.941  -9.317 -21.310  0.00  0.00    +0.024 C 
ATOM     28  C   UNL     1      30.714  -9.829 -20.045  0.00  0.00    +0.037 C 
ATOM     29  C   UNL     1      31.201  -9.121 -18.965  0.00  0.00    +0.147 C 
ATOM     30  H   UNL     1      31.304  -9.164 -16.879  0.00  0.00    +0.144 HD
ATOM     31  H   UNL     1      30.476 -10.489 -17.563  0.00  0.00    +0.144 HD
ENDBRANCH  10  26
TORSDOF 2
ENDMDL
MODEL 7
REMARK VINA RESULT:      -9.9     12.510     16.734
REMARK  Name = 58212050
REMARK  2 active torsions:
REMARK  status: ('A' for Active; 'I' for Inactive)
REMARK    1  A    between atoms: C_2  and  C_13
REMARK    2  A    between atoms: C_10  and  C_26
REMARK                            x       y       z     vdW  Elec       q    Type
REMARK                         _______ _______ _______ _____ _____    ______ ____
ROOT
ATOM      1  N   UNL     1      30.675  -2.867 -22.467  0.00  0.00    +0.389 N 
ATOM      2  C   UNL     1      31.626  -5.079 -21.890  0.00  0.00    +0.023 C 
ATOM      3  C   UNL     1      30.352  -4.202 -21.951  0.00  0.00    -0.068 C 
ATOM      4  C   UNL     1      32.479  -4.971 -23.148  0.00  0.00    -0.026 C 
ATOM      5  C   UNL     1      32.236  -3.940 -24.076  0.00  0.00    -0.047 C 
ATOM      6  C   UNL     1      31.096  -2.970 -23.873  0.00  0.00    -0.050 C 
ATOM      7  C   UNL     1      33.567  -5.834 -23.361  0.00  0.00    -0.004 C 
ATOM      8  C   UNL     1      33.032  -3.837 -25.226  0.00  0.00    -0.005 C 
ATOM      9  C   UNL     1      29.524  -1.972 -22.345  0.00  0.00    -0.100 C 
ATOM     10  C   UNL     1      34.089  -4.720 -25.437  0.00  0.00    +0.019 C 
ATOM     11  C   UNL     1      34.361  -5.714 -24.502  0.00  0.00    +0.001 C 
ATOM     12  H   UNL     1      31.439  -2.476 -21.916  0.00  0.00    -0.079 HD
ENDROOT
BRANCH   2  13
ATOM     13  C   UNL     1      31.237  -6.504 -21.516  0.00  0.00    -0.020 C 
ATOM     14  C   UNL     1      31.534  -6.997 -20.245  0.00  0.00    -0.004 C 
ATOM     15  C   UNL     1      30.587  -7.313 -22.442  0.00  0.00    -0.004 C 
ATOM     16  C   UNL     1      31.184  -8.308 -19.885  0.00  0.00    -0.000 C 
ATOM     17  C   UNL     1      30.523  -9.131 -20.828  0.00  0.00    -0.000 C 
ATOM     18  C   UNL     1      30.231  -8.619 -22.102  0.00  0.00    -0.000 C 
ATOM     19  C   UNL     1      31.476  -8.821 -18.611  0.00  0.00    -0.000 C 
ATOM     20  C   UNL     1      30.172 -10.443 -20.468  0.00  0.00    -0.000 C 
ATOM     21  C   UNL     1      31.121 -10.127 -18.270  0.00  0.00    -0.000 C 
ATOM     22  C   UNL     1      30.470 -10.936 -19.197  0.00  0.00    -0.000 C 
ENDBRANCH   2  13
BRANCH  10  26
ATOM     23  N   UNL     1      35.578  -3.434 -26.750  0.00  0.00    -0.147 NA
ATOM     24  N   UNL     1      36.371  -3.239 -27.837  0.00  0.00    -0.133 NA
ATOM     25  N   UNL     1      37.293  -4.015 -29.895  0.00  0.00    -0.341 N 
ATOM     26  C   UNL     1      34.908  -4.600 -26.624  0.00  0.00    +0.103 C 
ATOM     27  C   UNL     1      34.989  -5.616 -27.555  0.00  0.00    +0.024 C 
ATOM     28  C   UNL     1      35.796  -5.418 -28.661  0.00  0.00    +0.037 C 
ATOM     29  C   UNL     1      36.468  -4.217 -28.763  0.00  0.00    +0.147 C 
ATOM     30  H   UNL     1      37.787  -3.170 -29.999  0.00  0.00    +0.144 HD
ATOM     31  H   UNL     1      37.372  -4.719 -30.578  0.00  0.00    +0.144 HD
ENDBRANCH  10  26
TORSDOF 2
ENDMDL
MODEL 8
REMARK VINA RESULT:      -9.8      2.353      5.717
REMARK  Name = 58212050
REMARK  2 active torsions:
REMARK  status: ('A' for Active; 'I' for Inactive)
REMARK    1  A    between atoms: C_2  and  C_13
REMARK    2  A    between atoms: C_10  and  C_26
REMARK                            x       y       z     vdW  Elec       q    Type
REMARK                         _______ _______ _______ _____ _____    ______ ____
ROOT
ATOM      1  N   UNL     1      31.467 -23.150 -15.124  0.00  0.00    +0.389 N 
ATOM      2  C   UNL     1      33.918 -23.201 -14.775  0.00  0.00    +0.023 C 
ATOM      3  C   UNL     1      32.590 -23.992 -14.695  0.00  0.00    -0.068 C 
ATOM      4  C   UNL     1      34.057 -22.407 -16.068  0.00  0.00    -0.026 C 
ATOM      5  C   UNL     1      32.936 -22.215 -16.898  0.00  0.00    -0.047 C 
ATOM      6  C   UNL     1      31.603 -22.839 -16.556  0.00  0.00    -0.050 C 
ATOM      7  C   UNL     1      35.269 -21.786 -16.409  0.00  0.00    -0.004 C 
ATOM      8  C   UNL     1      33.065 -21.471 -18.081  0.00  0.00    -0.005 C 
ATOM      9  C   UNL     1      30.191 -23.817 -14.868  0.00  0.00    -0.100 C 
ATOM     10  C   UNL     1      34.283 -20.886 -18.420  0.00  0.00    +0.019 C 
ATOM     11  C   UNL     1      35.383 -21.038 -17.581  0.00  0.00    +0.001 C 
ATOM     12  H   UNL     1      31.483 -22.281 -14.589  0.00  0.00    -0.079 HD
ENDROOT
BRANCH   2  13
ATOM     13  C   UNL     1      35.081 -24.144 -14.490  0.00  0.00    -0.020 C 
ATOM     14  C   UNL     1      36.372 -23.636 -14.350  0.00  0.00    -0.004 C 
ATOM     15  C   UNL     1      34.854 -25.512 -14.370  0.00  0.00    -0.004 C 
ATOM     16  C   UNL     1      37.455 -24.491 -14.089  0.00  0.00    -0.000 C 
ATOM     17  C   UNL     1      37.224 -25.882 -13.968  0.00  0.00    -0.000 C 
ATOM     18  C   UNL     1      35.918 -26.376 -14.111  0.00  0.00    -0.000 C 
ATOM     19  C   UNL     1      38.761 -23.995 -13.946  0.00  0.00    -0.000 C 
ATOM     20  C   UNL     1      38.307 -26.737 -13.707  0.00  0.00    -0.000 C 
ATOM     21  C   UNL     1      39.826 -24.860 -13.687  0.00  0.00    -0.000 C 
ATOM     22  C   UNL     1      39.599 -26.228 -13.568  0.00  0.00    -0.000 C 
ENDBRANCH   2  13
BRANCH  10  26
ATOM     23  N   UNL     1      35.609 -19.545 -19.848  0.00  0.00    -0.147 NA
ATOM     24  N   UNL     1      35.805 -18.804 -20.971  0.00  0.00    -0.133 NA
ATOM     25  N   UNL     1      34.993 -17.887 -23.017  0.00  0.00    -0.341 N 
ATOM     26  C   UNL     1      34.403 -20.116 -19.639  0.00  0.00    +0.103 C 
ATOM     27  C   UNL     1      33.347 -19.984 -20.518  0.00  0.00    +0.024 C 
ATOM     28  C   UNL     1      33.547 -19.230 -21.661  0.00  0.00    +0.037 C 
ATOM     29  C   UNL     1      34.789 -18.658 -21.849  0.00  0.00    +0.147 C 
ATOM     30  H   UNL     1      35.868 -17.465 -23.181  0.00  0.00    +0.144 HD
ATOM     31  H   UNL     1      34.261 -17.771 -23.664  0.00  0.00    +0.144 HD
ENDBRANCH  10  26
TORSDOF 2
ENDMDL
MODEL 9
REMARK VINA RESULT:      -9.7      9.569     15.926
REMARK  Name = 58212050
REMARK  2 active torsions:
REMARK  status: ('A' for Active; 'I' for Inactive)
REMARK    1  A    between atoms: C_2  and  C_13
REMARK    2  A    between atoms: C_10  and  C_26
REMARK                            x       y       z     vdW  Elec       q    Type
REMARK                         _______ _______ _______ _____ _____    ______ ____
ROOT
ATOM      1  N   UNL     1      30.780  -7.309 -21.479  0.00  0.00    +0.389 N 
ATOM      2  C   UNL     1      31.784  -7.232 -23.741  0.00  0.00    +0.023 C 
ATOM      3  C   UNL     1      31.586  -6.494 -22.395  0.00  0.00    -0.068 C 
ATOM      4  C   UNL     1      32.148  -8.701 -23.562  0.00  0.00    -0.026 C 
ATOM      5  C   UNL     1      31.994  -9.315 -22.305  0.00  0.00    -0.047 C 
ATOM      6  C   UNL     1      31.529  -8.520 -21.106  0.00  0.00    -0.050 C 
ATOM      7  C   UNL     1      32.556  -9.484 -24.655  0.00  0.00    -0.004 C 
ATOM      8  C   UNL     1      32.317 -10.671 -22.147  0.00  0.00    -0.005 C 
ATOM      9  C   UNL     1      30.422  -6.545 -20.284  0.00  0.00    -0.100 C 
ATOM     10  C   UNL     1      32.750 -11.427 -23.236  0.00  0.00    +0.019 C 
ATOM     11  C   UNL     1      32.862 -10.835 -24.490  0.00  0.00    +0.001 C 
ATOM     12  H   UNL     1      29.917  -7.581 -21.952  0.00  0.00    -0.079 HD
ENDROOT
BRANCH   2  13
ATOM     13  C   UNL     1      32.761  -6.445 -24.606  0.00  0.00    -0.020 C 
ATOM     14  C   UNL     1      32.521  -6.299 -25.973  0.00  0.00    -0.004 C 
ATOM     15  C   UNL     1      33.892  -5.873 -24.033  0.00  0.00    -0.004 C 
ATOM     16  C   UNL     1      33.411  -5.578 -26.784  0.00  0.00    -0.000 C 
ATOM     17  C   UNL     1      34.562  -4.996 -26.200  0.00  0.00    -0.000 C 
ATOM     18  C   UNL     1      34.788  -5.153 -24.824  0.00  0.00    -0.000 C 
ATOM     19  C   UNL     1      33.185  -5.421 -28.161  0.00  0.00    -0.000 C 
ATOM     20  C   UNL     1      35.454  -4.275 -27.012  0.00  0.00    -0.000 C 
ATOM     21  C   UNL     1      34.081  -4.702 -28.952  0.00  0.00    -0.000 C 
ATOM     22  C   UNL     1      35.213  -4.130 -28.379  0.00  0.00    -0.000 C 
ENDBRANCH   2  13
BRANCH  10  26
ATOM     23  N   UNL     1      32.939 -13.592 -24.167  0.00  0.00    -0.147 NA
ATOM     24  N   UNL     1      33.224 -14.920 -24.091  0.00  0.00    -0.133 NA
ATOM     25  N   UNL     1      33.931 -16.819 -22.833  0.00  0.00    -0.341 N 
ATOM     26  C   UNL     1      33.074 -12.826 -23.063  0.00  0.00    +0.103 C 
ATOM     27  C   UNL     1      33.491 -13.328 -21.847  0.00  0.00    +0.024 C 
ATOM     28  C   UNL     1      33.781 -14.678 -21.769  0.00  0.00    +0.037 C 
ATOM     29  C   UNL     1      33.635 -15.437 -22.913  0.00  0.00    +0.147 C 
ATOM     30  H   UNL     1      33.837 -17.389 -23.630  0.00  0.00    +0.144 HD
ATOM     31  H   UNL     1      34.230 -17.209 -21.981  0.00  0.00    +0.144 HD
ENDBRANCH  10  26
TORSDOF 2
ENDMDL
