MODEL 1
REMARK VINA RESULT:     -12.2      0.000      0.000
REMARK  Name = 9889200
REMARK  5 active torsions:
REMARK  status: ('A' for Active; 'I' for Inactive)
REMARK    1  A    between atoms: C_1  and  C_21
REMARK    2  A    between atoms: C_4  and  O_7
REMARK    3  A    between atoms: O_7  and  C_8
REMARK    4  A    between atoms: C_8  and  C_12
REMARK    5  A    between atoms: C_21  and  C_26
REMARK                            x       y       z     vdW  Elec       q    Type
REMARK                         _______ _______ _______ _____ _____    ______ ____
ROOT
ATOM      1  C   UNL     1      34.455 -19.707 -20.004  0.00  0.00    -0.021 C 
ATOM      2  C   UNL     1      33.084 -19.958 -19.952  0.00  0.00    -0.001 C 
ATOM      3  C   UNL     1      35.341 -20.524 -19.302  0.00  0.00    -0.001 C 
ATOM      4  C   UNL     1      33.489 -21.831 -18.500  0.00  0.00    +0.139 C 
ATOM      5  C   UNL     1      32.598 -21.025 -19.195  0.00  0.00    +0.037 C 
ATOM      6  C   UNL     1      34.856 -21.591 -18.547  0.00  0.00    +0.037 C 
ENDROOT
BRANCH   4   7
ATOM      7  O   UNL     1      33.011 -22.884 -17.756  0.00  0.00    -0.466 OA
BRANCH   7   8
ATOM      8  C   UNL     1      32.240 -22.571 -16.617  0.00  0.00    +0.279 C 
BRANCH   8  12
ATOM      9  O   UNL     1      32.145 -24.189 -12.065  0.00  0.00    -0.274 OA
ATOM     10  N   UNL     1      32.168 -23.402 -14.270  0.00  0.00    -0.232 N 
ATOM     11  N   UNL     1      34.235 -23.187 -15.425  0.00  0.00    -0.391 NA
ATOM     12  C   UNL     1      32.943 -23.080 -15.381  0.00  0.00    +0.210 C 
ATOM     13  C   UNL     1      34.224 -24.010 -13.119  0.00  0.00    +0.151 C 
ATOM     14  C   UNL     1      34.903 -23.657 -14.288  0.00  0.00    +0.123 C 
ATOM     15  C   UNL     1      32.752 -23.882 -13.087  0.00  0.00    +0.241 C 
ATOM     16  C   UNL     1      30.713 -23.252 -14.300  0.00  0.00    +0.122 C 
ATOM     17  C   UNL     1      34.922 -24.477 -12.000  0.00  0.00    -0.010 C 
ATOM     18  C   UNL     1      36.297 -23.777 -14.322  0.00  0.00    +0.028 C 
ATOM     19  C   UNL     1      36.310 -24.592 -12.048  0.00  0.00    -0.004 C 
ATOM     20  C   UNL     1      36.997 -24.242 -13.209  0.00  0.00    +0.002 C 
ENDBRANCH   8  12
ENDBRANCH   7   8
ENDBRANCH   4   7
BRANCH   1  21
ATOM     21  C   UNL     1      34.973 -18.566 -20.812  0.00  0.00    +0.047 C 
BRANCH  21  26
ATOM     22  S   UNL     1      33.886 -18.076 -23.302  0.00  0.00    -0.048 S 
ATOM     23  O   UNL     1      34.079 -15.756 -20.224  0.00  0.00    -0.274 OA
ATOM     24  O   UNL     1      34.062 -15.950 -24.839  0.00  0.00    -0.263 OA
ATOM     25  N   UNL     1      34.074 -15.647 -22.535  0.00  0.00    -0.246 N 
ATOM     26  C   UNL     1      33.854 -17.793 -21.506  0.00  0.00    +0.137 C 
ATOM     27  C   UNL     1      34.015 -16.300 -21.321  0.00  0.00    +0.239 C 
ATOM     28  C   UNL     1      34.021 -16.375 -23.694  0.00  0.00    +0.279 C 
ATOM     29  H   UNL     1      34.153 -14.666 -22.566  0.00  0.00    +0.158 HD
ENDBRANCH  21  26
ENDBRANCH   1  21
TORSDOF 5
ENDMDL
MODEL 2
REMARK VINA RESULT:     -12.2      1.085      3.170
REMARK  Name = 9889200
REMARK  5 active torsions:
REMARK  status: ('A' for Active; 'I' for Inactive)
REMARK    1  A    between atoms: C_1  and  C_21
REMARK    2  A    between atoms: C_4  and  O_7
REMARK    3  A    between atoms: O_7  and  C_8
REMARK    4  A    between atoms: C_8  and  C_12
REMARK    5  A    between atoms: C_21  and  C_26
REMARK                            x       y       z     vdW  Elec       q    Type
REMARK                         _______ _______ _______ _____ _____    ______ ____
ROOT
ATOM      1  C   UNL     1      34.678 -19.541 -20.234  0.00  0.00    -0.021 C 
ATOM      2  C   UNL     1      35.644 -20.235 -19.506  0.00  0.00    -0.001 C 
ATOM      3  C   UNL     1      33.326 -19.829 -20.051  0.00  0.00    -0.001 C 
ATOM      4  C   UNL     1      33.910 -21.500 -18.423  0.00  0.00    +0.139 C 
ATOM      5  C   UNL     1      35.258 -21.220 -18.596  0.00  0.00    +0.037 C 
ATOM      6  C   UNL     1      32.940 -20.813 -19.141  0.00  0.00    +0.037 C 
ENDROOT
BRANCH   4   7
ATOM      7  O   UNL     1      33.530 -22.469 -17.525  0.00  0.00    -0.466 OA
BRANCH   7   8
ATOM      8  C   UNL     1      33.995 -22.339 -16.199  0.00  0.00    +0.279 C 
BRANCH   8  12
ATOM      9  O   UNL     1      32.829 -24.238 -11.912  0.00  0.00    -0.274 OA
ATOM     10  N   UNL     1      33.417 -23.316 -13.982  0.00  0.00    -0.232 N 
ATOM     11  N   UNL     1      31.768 -23.078 -15.679  0.00  0.00    -0.391 NA
ATOM     12  C   UNL     1      32.985 -22.942 -15.253  0.00  0.00    +0.210 C 
ATOM     13  C   UNL     1      31.142 -24.045 -13.518  0.00  0.00    +0.151 C 
ATOM     14  C   UNL     1      30.818 -23.636 -14.814  0.00  0.00    +0.123 C 
ATOM     15  C   UNL     1      32.534 -23.882 -13.049  0.00  0.00    +0.241 C 
ATOM     16  C   UNL     1      34.810 -23.129 -13.578  0.00  0.00    +0.122 C 
ATOM     17  C   UNL     1      30.169 -24.599 -12.678  0.00  0.00    -0.010 C 
ATOM     18  C   UNL     1      29.501 -23.789 -15.261  0.00  0.00    +0.028 C 
ATOM     19  C   UNL     1      28.861 -24.744 -13.137  0.00  0.00    -0.004 C 
ATOM     20  C   UNL     1      28.527 -24.340 -14.428  0.00  0.00    +0.002 C 
ENDBRANCH   8  12
ENDBRANCH   7   8
ENDBRANCH   4   7
BRANCH   1  21
ATOM     21  C   UNL     1      35.091 -18.489 -21.207  0.00  0.00    +0.047 C 
BRANCH  21  26
ATOM     22  S   UNL     1      33.828 -17.868 -23.582  0.00  0.00    -0.048 S 
ATOM     23  O   UNL     1      34.112 -15.778 -20.351  0.00  0.00    -0.274 OA
ATOM     24  O   UNL     1      33.811 -15.627 -24.958  0.00  0.00    -0.263 OA
ATOM     25  N   UNL     1      33.956 -15.497 -22.641  0.00  0.00    -0.246 N 
ATOM     26  C   UNL     1      33.897 -17.722 -21.771  0.00  0.00    +0.137 C 
ATOM     27  C   UNL     1      34.003 -16.242 -21.481  0.00  0.00    +0.239 C 
ATOM     28  C   UNL     1      33.861 -16.138 -23.848  0.00  0.00    +0.279 C 
ATOM     29  H   UNL     1      33.989 -14.514 -22.601  0.00  0.00    +0.158 HD
ENDBRANCH  21  26
ENDBRANCH   1  21
TORSDOF 5
ENDMDL
MODEL 3
REMARK VINA RESULT:     -11.9      1.383      1.960
REMARK  Name = 9889200
REMARK  5 active torsions:
REMARK  status: ('A' for Active; 'I' for Inactive)
REMARK    1  A    between atoms: C_1  and  C_21
REMARK    2  A    between atoms: C_4  and  O_7
REMARK    3  A    between atoms: O_7  and  C_8
REMARK    4  A    between atoms: C_8  and  C_12
REMARK    5  A    between atoms: C_21  and  C_26
REMARK                            x       y       z     vdW  Elec       q    Type
REMARK                         _______ _______ _______ _____ _____    ______ ____
ROOT
ATOM      1  C   UNL     1      33.310 -19.996 -20.072  0.00  0.00    -0.021 C 
ATOM      2  C   UNL     1      34.661 -20.203 -19.794  0.00  0.00    -0.001 C 
ATOM      3  C   UNL     1      32.335 -20.631 -19.304  0.00  0.00    -0.001 C 
ATOM      4  C   UNL     1      34.058 -21.675 -17.992  0.00  0.00    +0.139 C 
ATOM      5  C   UNL     1      35.037 -21.048 -18.749  0.00  0.00    +0.037 C 
ATOM      6  C   UNL     1      32.710 -21.475 -18.259  0.00  0.00    +0.037 C 
ENDROOT
BRANCH   4   7
ATOM      7  O   UNL     1      34.429 -22.506 -16.961  0.00  0.00    -0.466 OA
BRANCH   7   8
ATOM      8  C   UNL     1      33.444 -22.823 -16.002  0.00  0.00    +0.279 C 
BRANCH   8  12
ATOM      9  O   UNL     1      33.289 -24.304 -11.405  0.00  0.00    -0.274 OA
ATOM     10  N   UNL     1      33.342 -23.579 -13.630  0.00  0.00    -0.232 N 
ATOM     11  N   UNL     1      35.351 -23.771 -14.887  0.00  0.00    -0.391 NA
ATOM     12  C   UNL     1      34.104 -23.427 -14.786  0.00  0.00    +0.210 C 
ATOM     13  C   UNL     1      35.309 -24.531 -12.559  0.00  0.00    +0.151 C 
ATOM     14  C   UNL     1      35.980 -24.332 -13.768  0.00  0.00    +0.123 C 
ATOM     15  C   UNL     1      33.888 -24.134 -12.462  0.00  0.00    +0.241 C 
ATOM     16  C   UNL     1      31.939 -23.165 -13.597  0.00  0.00    +0.122 C 
ATOM     17  C   UNL     1      35.966 -25.095 -11.461  0.00  0.00    -0.010 C 
ATOM     18  C   UNL     1      37.324 -24.707 -13.864  0.00  0.00    +0.028 C 
ATOM     19  C   UNL     1      37.305 -25.465 -11.571  0.00  0.00    -0.004 C 
ATOM     20  C   UNL     1      37.984 -25.271 -12.772  0.00  0.00    +0.002 C 
ENDBRANCH   8  12
ENDBRANCH   7   8
ENDBRANCH   4   7
BRANCH   1  21
ATOM     21  C   UNL     1      32.909 -19.094 -21.190  0.00  0.00    +0.047 C 
BRANCH  21  26
ATOM     22  S   UNL     1      34.379 -16.768 -20.968  0.00  0.00    -0.048 S 
ATOM     23  O   UNL     1      33.598 -18.872 -24.108  0.00  0.00    -0.274 OA
ATOM     24  O   UNL     1      34.392 -14.620 -22.485  0.00  0.00    -0.263 OA
ATOM     25  N   UNL     1      33.986 -16.676 -23.490  0.00  0.00    -0.246 N 
ATOM     26  C   UNL     1      34.102 -18.362 -21.799  0.00  0.00    +0.137 C 
ATOM     27  C   UNL     1      33.863 -18.030 -23.255  0.00  0.00    +0.239 C 
ATOM     28  C   UNL     1      34.256 -15.834 -22.443  0.00  0.00    +0.279 C 
ATOM     29  H   UNL     1      33.881 -16.319 -24.401  0.00  0.00    +0.158 HD
ENDBRANCH  21  26
ENDBRANCH   1  21
TORSDOF 5
ENDMDL
MODEL 4
REMARK VINA RESULT:     -11.5      2.867     10.307
REMARK  Name = 9889200
REMARK  5 active torsions:
REMARK  status: ('A' for Active; 'I' for Inactive)
REMARK    1  A    between atoms: C_1  and  C_21
REMARK    2  A    between atoms: C_4  and  O_7
REMARK    3  A    between atoms: O_7  and  C_8
REMARK    4  A    between atoms: C_8  and  C_12
REMARK    5  A    between atoms: C_21  and  C_26
REMARK                            x       y       z     vdW  Elec       q    Type
REMARK                         _______ _______ _______ _____ _____    ______ ____
ROOT
ATOM      1  C   UNL     1      33.145 -22.355 -17.219  0.00  0.00    -0.021 C 
ATOM      2  C   UNL     1      31.961 -21.817 -17.722  0.00  0.00    -0.001 C 
ATOM      3  C   UNL     1      34.370 -21.987 -17.774  0.00  0.00    -0.001 C 
ATOM      4  C   UNL     1      33.227 -20.550 -19.327  0.00  0.00    +0.139 C 
ATOM      5  C   UNL     1      32.002 -20.910 -18.782  0.00  0.00    +0.037 C 
ATOM      6  C   UNL     1      34.412 -21.080 -18.833  0.00  0.00    +0.037 C 
ENDROOT
BRANCH   4   7
ATOM      7  O   UNL     1      33.267 -19.656 -20.370  0.00  0.00    -0.466 OA
BRANCH   7   8
ATOM      8  C   UNL     1      34.489 -18.987 -20.599  0.00  0.00    +0.279 C 
BRANCH   8  12
ATOM      9  O   UNL     1      33.845 -16.564 -24.730  0.00  0.00    -0.274 OA
ATOM     10  N   UNL     1      34.161 -17.758 -22.741  0.00  0.00    -0.232 N 
ATOM     11  N   UNL     1      34.070 -16.620 -20.655  0.00  0.00    -0.391 NA
ATOM     12  C   UNL     1      34.224 -17.704 -21.351  0.00  0.00    +0.210 C 
ATOM     13  C   UNL     1      33.740 -15.361 -22.729  0.00  0.00    +0.151 C 
ATOM     14  C   UNL     1      33.824 -15.421 -21.336  0.00  0.00    +0.123 C 
ATOM     15  C   UNL     1      33.917 -16.606 -23.505  0.00  0.00    +0.241 C 
ATOM     16  C   UNL     1      34.345 -19.022 -23.452  0.00  0.00    +0.122 C 
ATOM     17  C   UNL     1      33.492 -14.147 -23.379  0.00  0.00    -0.010 C 
ATOM     18  C   UNL     1      33.657 -14.245 -20.597  0.00  0.00    +0.028 C 
ATOM     19  C   UNL     1      33.327 -12.983 -22.630  0.00  0.00    -0.004 C 
ATOM     20  C   UNL     1      33.409 -13.032 -21.240  0.00  0.00    +0.002 C 
ENDBRANCH   8  12
ENDBRANCH   7   8
ENDBRANCH   4   7
BRANCH   1  21
ATOM     21  C   UNL     1      33.101 -23.325 -16.088  0.00  0.00    +0.047 C 
BRANCH  21  26
ATOM     22  S   UNL     1      34.466 -23.368 -13.688  0.00  0.00    -0.048 S 
ATOM     23  O   UNL     1      30.783 -22.449 -14.384  0.00  0.00    -0.274 OA
ATOM     24  O   UNL     1      33.730 -24.282 -11.335  0.00  0.00    -0.263 OA
ATOM     25  N   UNL     1      32.099 -23.383 -12.727  0.00  0.00    -0.246 N 
ATOM     26  C   UNL     1      33.169 -22.632 -14.729  0.00  0.00    +0.137 C 
ATOM     27  C   UNL     1      31.879 -22.799 -13.957  0.00  0.00    +0.239 C 
ATOM     28  C   UNL     1      33.371 -23.756 -12.379  0.00  0.00    +0.279 C 
ATOM     29  H   UNL     1      31.350 -23.530 -12.106  0.00  0.00    +0.158 HD
ENDBRANCH  21  26
ENDBRANCH   1  21
TORSDOF 5
ENDMDL
MODEL 5
REMARK VINA RESULT:     -11.1      4.391     11.539
REMARK  Name = 9889200
REMARK  5 active torsions:
REMARK  status: ('A' for Active; 'I' for Inactive)
REMARK    1  A    between atoms: C_1  and  C_21
REMARK    2  A    between atoms: C_4  and  O_7
REMARK    3  A    between atoms: O_7  and  C_8
REMARK    4  A    between atoms: C_8  and  C_12
REMARK    5  A    between atoms: C_21  and  C_26
REMARK                            x       y       z     vdW  Elec       q    Type
REMARK                         _______ _______ _______ _____ _____    ______ ____
ROOT
ATOM      1  C   UNL     1      34.116 -18.339 -21.576  0.00  0.00    -0.021 C 
ATOM      2  C   UNL     1      34.002 -18.019 -22.928  0.00  0.00    -0.001 C 
ATOM      3  C   UNL     1      34.255 -17.326 -20.628  0.00  0.00    -0.001 C 
ATOM      4  C   UNL     1      34.167 -15.683 -22.382  0.00  0.00    +0.139 C 
ATOM      5  C   UNL     1      34.028 -16.684 -23.334  0.00  0.00    +0.037 C 
ATOM      6  C   UNL     1      34.280 -15.992 -21.032  0.00  0.00    +0.037 C 
ENDROOT
BRANCH   4   7
ATOM      7  O   UNL     1      34.191 -14.368 -22.781  0.00  0.00    -0.466 OA
BRANCH   7   8
ATOM      8  C   UNL     1      33.056 -13.880 -23.463  0.00  0.00    +0.279 C 
BRANCH   8  12
ATOM      9  O   UNL     1      32.541  -9.076 -23.396  0.00  0.00    -0.274 OA
ATOM     10  N   UNL     1      32.803 -11.401 -23.448  0.00  0.00    -0.232 N 
ATOM     11  N   UNL     1      31.985 -12.722 -21.648  0.00  0.00    -0.391 NA
ATOM     12  C   UNL     1      32.579 -12.612 -22.796  0.00  0.00    +0.210 C 
ATOM     13  C   UNL     1      31.707 -10.290 -21.581  0.00  0.00    +0.151 C 
ATOM     14  C   UNL     1      31.536 -11.556 -21.015  0.00  0.00    +0.123 C 
ATOM     15  C   UNL     1      32.386 -10.183 -22.890  0.00  0.00    +0.241 C 
ATOM     16  C   UNL     1      33.481 -11.362 -24.743  0.00  0.00    +0.122 C 
ATOM     17  C   UNL     1      31.246  -9.145 -20.923  0.00  0.00    -0.010 C 
ATOM     18  C   UNL     1      30.894 -11.662 -19.777  0.00  0.00    +0.028 C 
ATOM     19  C   UNL     1      30.608  -9.265 -19.690  0.00  0.00    -0.004 C 
ATOM     20  C   UNL     1      30.432 -10.523 -19.117  0.00  0.00    +0.002 C 
ENDBRANCH   8  12
ENDBRANCH   7   8
ENDBRANCH   4   7
BRANCH   1  21
ATOM     21  C   UNL     1      34.090 -19.766 -21.144  0.00  0.00    +0.047 C 
BRANCH  21  26
ATOM     22  S   UNL     1      34.563 -21.192 -18.827  0.00  0.00    -0.048 S 
ATOM     23  O   UNL     1      31.235 -19.800 -20.199  0.00  0.00    -0.274 OA
ATOM     24  O   UNL     1      33.219 -23.184 -17.758  0.00  0.00    -0.263 OA
ATOM     25  N   UNL     1      32.039 -21.568 -18.942  0.00  0.00    -0.246 N 
ATOM     26  C   UNL     1      33.599 -19.926 -19.706  0.00  0.00    +0.137 C 
ATOM     27  C   UNL     1      32.162 -20.397 -19.661  0.00  0.00    +0.239 C 
ATOM     28  C   UNL     1      33.160 -22.153 -18.414  0.00  0.00    +0.279 C 
ATOM     29  H   UNL     1      31.154 -21.977 -18.808  0.00  0.00    +0.158 HD
ENDBRANCH  21  26
ENDBRANCH   1  21
TORSDOF 5
ENDMDL
MODEL 6
REMARK VINA RESULT:     -10.9      2.745     10.330
REMARK  Name = 9889200
REMARK  5 active torsions:
REMARK  status: ('A' for Active; 'I' for Inactive)
REMARK    1  A    between atoms: C_1  and  C_21
REMARK    2  A    between atoms: C_4  and  O_7
REMARK    3  A    between atoms: O_7  and  C_8
REMARK    4  A    between atoms: C_8  and  C_12
REMARK    5  A    between atoms: C_21  and  C_26
REMARK                            x       y       z     vdW  Elec       q    Type
REMARK                         _______ _______ _______ _____ _____    ______ ____
ROOT
ATOM      1  C   UNL     1      33.608 -22.156 -17.403  0.00  0.00    -0.021 C 
ATOM      2  C   UNL     1      34.792 -21.644 -17.933  0.00  0.00    -0.001 C 
ATOM      3  C   UNL     1      32.380 -21.781 -17.949  0.00  0.00    -0.001 C 
ATOM      4  C   UNL     1      33.522 -20.389 -19.543  0.00  0.00    +0.139 C 
ATOM      5  C   UNL     1      34.749 -20.756 -19.008  0.00  0.00    +0.037 C 
ATOM      6  C   UNL     1      32.337 -20.894 -19.024  0.00  0.00    +0.037 C 
ENDROOT
BRANCH   4   7
ATOM      7  O   UNL     1      33.480 -19.516 -20.604  0.00  0.00    -0.466 OA
BRANCH   7   8
ATOM      8  C   UNL     1      34.613 -18.702 -20.815  0.00  0.00    +0.279 C 
BRANCH   8  12
ATOM      9  O   UNL     1      33.226 -16.465 -24.867  0.00  0.00    -0.274 OA
ATOM     10  N   UNL     1      33.900 -17.569 -22.916  0.00  0.00    -0.232 N 
ATOM     11  N   UNL     1      34.153 -16.343 -20.894  0.00  0.00    -0.391 NA
ATOM     12  C   UNL     1      34.202 -17.455 -21.561  0.00  0.00    +0.210 C 
ATOM     13  C   UNL     1      33.449 -15.178 -22.929  0.00  0.00    +0.151 C 
ATOM     14  C   UNL     1      33.774 -15.177 -21.571  0.00  0.00    +0.123 C 
ATOM     15  C   UNL     1      33.510 -16.454 -23.673  0.00  0.00    +0.241 C 
ATOM     16  C   UNL     1      33.979 -18.862 -23.596  0.00  0.00    +0.122 C 
ATOM     17  C   UNL     1      33.074 -13.995 -23.576  0.00  0.00    -0.010 C 
ATOM     18  C   UNL     1      33.718 -13.971 -20.863  0.00  0.00    +0.028 C 
ATOM     19  C   UNL     1      33.022 -12.801 -22.858  0.00  0.00    -0.004 C 
ATOM     20  C   UNL     1      33.344 -12.789 -21.502  0.00  0.00    +0.002 C 
ENDBRANCH   8  12
ENDBRANCH   7   8
ENDBRANCH   4   7
BRANCH   1  21
ATOM     21  C   UNL     1      33.654 -23.104 -16.253  0.00  0.00    +0.047 C 
BRANCH  21  26
ATOM     22  S   UNL     1      35.997 -22.453 -14.945  0.00  0.00    -0.048 S 
ATOM     23  O   UNL     1      32.565 -23.421 -13.469  0.00  0.00    -0.274 OA
ATOM     24  O   UNL     1      37.141 -23.575 -12.860  0.00  0.00    -0.263 OA
ATOM     25  N   UNL     1      34.820 -23.587 -12.981  0.00  0.00    -0.246 N 
ATOM     26  C   UNL     1      34.179 -22.443 -14.980  0.00  0.00    +0.137 C 
ATOM     27  C   UNL     1      33.739 -23.197 -13.744  0.00  0.00    +0.239 C 
ATOM     28  C   UNL     1      36.087 -23.300 -13.415  0.00  0.00    +0.279 C 
ATOM     29  H   UNL     1      34.681 -24.065 -12.132  0.00  0.00    +0.158 HD
ENDBRANCH  21  26
ENDBRANCH   1  21
TORSDOF 5
ENDMDL
MODEL 7
REMARK VINA RESULT:     -10.8      1.975      3.268
REMARK  Name = 9889200
REMARK  5 active torsions:
REMARK  status: ('A' for Active; 'I' for Inactive)
REMARK    1  A    between atoms: C_1  and  C_21
REMARK    2  A    between atoms: C_4  and  O_7
REMARK    3  A    between atoms: O_7  and  C_8
REMARK    4  A    between atoms: C_8  and  C_12
REMARK    5  A    between atoms: C_21  and  C_26
REMARK                            x       y       z     vdW  Elec       q    Type
REMARK                         _______ _______ _______ _____ _____    ______ ____
ROOT
ATOM      1  C   UNL     1      34.825 -18.005 -21.325  0.00  0.00    -0.021 C 
ATOM      2  C   UNL     1      33.598 -18.658 -21.218  0.00  0.00    -0.001 C 
ATOM      3  C   UNL     1      35.936 -18.491 -20.636  0.00  0.00    -0.001 C 
ATOM      4  C   UNL     1      34.593 -20.272 -19.739  0.00  0.00    +0.139 C 
ATOM      5  C   UNL     1      33.481 -19.797 -20.420  0.00  0.00    +0.037 C 
ATOM      6  C   UNL     1      35.820 -19.630 -19.839  0.00  0.00    +0.037 C 
ENDROOT
BRANCH   4   7
ATOM      7  O   UNL     1      34.478 -21.395 -18.955  0.00  0.00    -0.466 OA
BRANCH   7   8
ATOM      8  C   UNL     1      35.351 -21.504 -17.852  0.00  0.00    +0.279 C 
BRANCH   8  12
ATOM      9  O   UNL     1      35.211 -23.059 -13.279  0.00  0.00    -0.274 OA
ATOM     10  N   UNL     1      35.302 -22.303 -15.493  0.00  0.00    -0.232 N 
ATOM     11  N   UNL     1      33.323 -22.269 -16.811  0.00  0.00    -0.391 NA
ATOM     12  C   UNL     1      34.595 -22.055 -16.667  0.00  0.00    +0.210 C 
ATOM     13  C   UNL     1      33.216 -23.064 -14.497  0.00  0.00    +0.151 C 
ATOM     14  C   UNL     1      32.606 -22.780 -15.722  0.00  0.00    +0.123 C 
ATOM     15  C   UNL     1      34.666 -22.814 -14.351  0.00  0.00    +0.241 C 
ATOM     16  C   UNL     1      36.738 -22.035 -15.411  0.00  0.00    +0.122 C 
ATOM     17  C   UNL     1      32.471 -23.574 -13.428  0.00  0.00    -0.010 C 
ATOM     18  C   UNL     1      31.234 -23.015 -15.864  0.00  0.00    +0.028 C 
ATOM     19  C   UNL     1      31.105 -23.802 -13.584  0.00  0.00    -0.004 C 
ATOM     20  C   UNL     1      30.487 -23.523 -14.801  0.00  0.00    +0.002 C 
ENDBRANCH   8  12
ENDBRANCH   7   8
ENDBRANCH   4   7
BRANCH   1  21
ATOM     21  C   UNL     1      34.950 -16.788 -22.176  0.00  0.00    +0.047 C 
BRANCH  21  26
ATOM     22  S   UNL     1      33.459 -15.198 -23.871  0.00  0.00    -0.048 S 
ATOM     23  O   UNL     1      33.767 -15.049 -20.027  0.00  0.00    -0.274 OA
ATOM     24  O   UNL     1      33.114 -12.591 -23.883  0.00  0.00    -0.263 OA
ATOM     25  N   UNL     1      33.415 -13.653 -21.838  0.00  0.00    -0.246 N 
ATOM     26  C   UNL     1      33.646 -15.996 -22.248  0.00  0.00    +0.137 C 
ATOM     27  C   UNL     1      33.622 -14.875 -21.233  0.00  0.00    +0.239 C 
ATOM     28  C   UNL     1      33.297 -13.589 -23.201  0.00  0.00    +0.279 C 
ATOM     29  H   UNL     1      33.351 -12.835 -21.294  0.00  0.00    +0.158 HD
ENDBRANCH  21  26
ENDBRANCH   1  21
TORSDOF 5
ENDMDL
MODEL 8
REMARK VINA RESULT:     -10.3      3.022     10.108
REMARK  Name = 9889200
REMARK  5 active torsions:
REMARK  status: ('A' for Active; 'I' for Inactive)
REMARK    1  A    between atoms: C_1  and  C_21
REMARK    2  A    between atoms: C_4  and  O_7
REMARK    3  A    between atoms: O_7  and  C_8
REMARK    4  A    between atoms: C_8  and  C_12
REMARK    5  A    between atoms: C_21  and  C_26
REMARK                            x       y       z     vdW  Elec       q    Type
REMARK                         _______ _______ _______ _____ _____    ______ ____
ROOT
ATOM      1  C   UNL     1      33.541 -22.441 -16.639  0.00  0.00    -0.021 C 
ATOM      2  C   UNL     1      32.331 -22.162 -17.275  0.00  0.00    -0.001 C 
ATOM      3  C   UNL     1      34.736 -21.956 -17.170  0.00  0.00    -0.001 C 
ATOM      4  C   UNL     1      33.511 -20.920 -18.961  0.00  0.00    +0.139 C 
ATOM      5  C   UNL     1      32.316 -21.398 -18.442  0.00  0.00    +0.037 C 
ATOM      6  C   UNL     1      34.721 -21.191 -18.336  0.00  0.00    +0.037 C 
ENDROOT
BRANCH   4   7
ATOM      7  O   UNL     1      33.496 -20.166 -20.111  0.00  0.00    -0.466 OA
BRANCH   7   8
ATOM      8  C   UNL     1      34.689 -19.497 -20.459  0.00  0.00    +0.279 C 
BRANCH   8  12
ATOM      9  O   UNL     1      33.735 -16.951 -24.453  0.00  0.00    -0.274 OA
ATOM     10  N   UNL     1      34.201 -18.204 -22.531  0.00  0.00    -0.232 N 
ATOM     11  N   UNL     1      34.221 -17.140 -20.405  0.00  0.00    -0.391 NA
ATOM     12  C   UNL     1      34.352 -18.196 -21.146  0.00  0.00    +0.210 C 
ATOM     13  C   UNL     1      33.734 -15.819 -22.409  0.00  0.00    +0.151 C 
ATOM     14  C   UNL     1      33.908 -15.924 -21.026  0.00  0.00    +0.123 C 
ATOM     15  C   UNL     1      33.886 -17.033 -23.238  0.00  0.00    +0.241 C 
ATOM     16  C   UNL     1      34.365 -19.439 -23.297  0.00  0.00    +0.122 C 
ATOM     17  C   UNL     1      33.422 -14.589 -22.999  0.00  0.00    -0.010 C 
ATOM     18  C   UNL     1      33.765 -14.777 -20.238  0.00  0.00    +0.028 C 
ATOM     19  C   UNL     1      33.281 -13.455 -22.200  0.00  0.00    -0.004 C 
ATOM     20  C   UNL     1      33.453 -13.549 -20.821  0.00  0.00    +0.002 C 
ENDBRANCH   8  12
ENDBRANCH   7   8
ENDBRANCH   4   7
BRANCH   1  21
ATOM     21  C   UNL     1      33.556 -23.259 -15.393  0.00  0.00    +0.047 C 
BRANCH  21  26
ATOM     22  S   UNL     1      34.975 -25.393 -14.364  0.00  0.00    -0.048 S 
ATOM     23  O   UNL     1      35.618 -21.610 -13.955  0.00  0.00    -0.274 OA
ATOM     24  O   UNL     1      35.977 -25.762 -11.961  0.00  0.00    -0.263 OA
ATOM     25  N   UNL     1      35.893 -23.595 -12.799  0.00  0.00    -0.246 N 
ATOM     26  C   UNL     1      34.968 -23.690 -15.002  0.00  0.00    +0.137 C 
ATOM     27  C   UNL     1      35.519 -22.831 -13.885  0.00  0.00    +0.239 C 
ATOM     28  C   UNL     1      35.703 -24.952 -12.835  0.00  0.00    +0.279 C 
ATOM     29  H   UNL     1      36.293 -23.169 -12.007  0.00  0.00    +0.158 HD
ENDBRANCH  21  26
ENDBRANCH   1  21
TORSDOF 5
ENDMDL
MODEL 9
REMARK VINA RESULT:     -10.3      2.040      3.343
REMARK  Name = 9889200
REMARK  5 active torsions:
REMARK  status: ('A' for Active; 'I' for Inactive)
REMARK    1  A    between atoms: C_1  and  C_21
REMARK    2  A    between atoms: C_4  and  O_7
REMARK    3  A    between atoms: O_7  and  C_8
REMARK    4  A    between atoms: C_8  and  C_12
REMARK    5  A    between atoms: C_21  and  C_26
REMARK                            x       y       z     vdW  Elec       q    Type
REMARK                         _______ _______ _______ _____ _____    ______ ____
ROOT
ATOM      1  C   UNL     1      34.543 -17.868 -22.189  0.00  0.00    -0.021 C 
ATOM      2  C   UNL     1      35.804 -17.919 -21.596  0.00  0.00    -0.001 C 
ATOM      3  C   UNL     1      33.496 -18.629 -21.670  0.00  0.00    -0.001 C 
ATOM      4  C   UNL     1      34.969 -19.485 -19.973  0.00  0.00    +0.139 C 
ATOM      5  C   UNL     1      36.018 -18.732 -20.482  0.00  0.00    +0.037 C 
ATOM      6  C   UNL     1      33.710 -19.441 -20.556  0.00  0.00    +0.037 C 
ENDROOT
BRANCH   4   7
ATOM      7  O   UNL     1      35.180 -20.284 -18.875  0.00  0.00    -0.466 OA
BRANCH   7   8
ATOM      8  C   UNL     1      34.784 -21.634 -18.974  0.00  0.00    +0.279 C 
BRANCH   8  12
ATOM      9  O   UNL     1      30.582 -22.188 -16.653  0.00  0.00    -0.274 OA
ATOM     10  N   UNL     1      32.606 -21.912 -17.796  0.00  0.00    -0.232 N 
ATOM     11  N   UNL     1      34.657 -22.420 -16.705  0.00  0.00    -0.391 NA
ATOM     12  C   UNL     1      33.994 -22.016 -17.744  0.00  0.00    +0.210 C 
ATOM     13  C   UNL     1      32.546 -22.712 -15.498  0.00  0.00    +0.151 C 
ATOM     14  C   UNL     1      33.940 -22.777 -15.556  0.00  0.00    +0.123 C 
ATOM     15  C   UNL     1      31.807 -22.249 -16.692  0.00  0.00    +0.241 C 
ATOM     16  C   UNL     1      31.933 -21.446 -19.008  0.00  0.00    +0.122 C 
ATOM     17  C   UNL     1      31.860 -23.077 -14.335  0.00  0.00    -0.010 C 
ATOM     18  C   UNL     1      34.643 -23.215 -14.428  0.00  0.00    +0.028 C 
ATOM     19  C   UNL     1      32.573 -23.511 -13.219  0.00  0.00    -0.004 C 
ATOM     20  C   UNL     1      33.964 -23.580 -13.265  0.00  0.00    +0.002 C 
ENDBRANCH   8  12
ENDBRANCH   7   8
ENDBRANCH   4   7
BRANCH   1  21
ATOM     21  C   UNL     1      34.314 -17.001 -23.381  0.00  0.00    +0.047 C 
BRANCH  21  26
ATOM     22  S   UNL     1      32.699 -15.213 -24.729  0.00  0.00    -0.048 S 
ATOM     23  O   UNL     1      33.994 -15.073 -21.096  0.00  0.00    -0.274 OA
ATOM     24  O   UNL     1      32.761 -12.584 -24.787  0.00  0.00    -0.263 OA
ATOM     25  N   UNL     1      33.408 -13.658 -22.830  0.00  0.00    -0.246 N 
ATOM     26  C   UNL     1      33.170 -16.013 -23.165  0.00  0.00    +0.137 C 
ATOM     27  C   UNL     1      33.575 -14.891 -22.234  0.00  0.00    +0.239 C 
ATOM     28  C   UNL     1      32.959 -13.591 -24.122  0.00  0.00    +0.279 C 
ATOM     29  H   UNL     1      33.609 -12.835 -22.329  0.00  0.00    +0.158 HD
ENDBRANCH  21  26
ENDBRANCH   1  21
TORSDOF 5
ENDMDL
