MODEL 1
REMARK VINA RESULT:     -11.5      0.000      0.000
REMARK  Name = 42642648
REMARK  5 active torsions:
REMARK  status: ('A' for Active; 'I' for Inactive)
REMARK    1  A    between atoms: N_1  and  C_22
REMARK    2  A    between atoms: C_4  and  N_15
REMARK    3  A    between atoms: C_25  and  O_28
REMARK    4  A    between atoms: O_28  and  C_29
REMARK    5  A    between atoms: C_29  and  C_32
REMARK                            x       y       z     vdW  Elec       q    Type
REMARK                         _______ _______ _______ _____ _____    ______ ____
ROOT
ATOM      1  N   UNL     1      32.654 -22.471 -17.431  0.00  0.00    -0.301 N 
ATOM      2  N   UNL     1      29.493 -22.753 -14.773  0.00  0.00    -0.248 NA
ATOM      3  N   UNL     1      30.417 -22.003 -16.868  0.00  0.00    -0.233 NA
ATOM      4  C   UNL     1      33.131 -24.506 -13.740  0.00  0.00    +0.048 C 
ATOM      5  C   UNL     1      31.776 -23.252 -15.309  0.00  0.00    +0.117 C 
ATOM      6  C   UNL     1      33.002 -23.845 -14.957  0.00  0.00    +0.001 C 
ATOM      7  C   UNL     1      30.670 -23.316 -14.447  0.00  0.00    +0.067 C 
ATOM      8  C   UNL     1      31.582 -22.577 -16.510  0.00  0.00    +0.115 C 
ATOM      9  C   UNL     1      32.043 -24.575 -12.878  0.00  0.00    +0.016 C 
ATOM     10  C   UNL     1      30.828 -23.983 -13.234  0.00  0.00    +0.016 C 
ATOM     11  C   UNL     1      29.431 -22.127 -15.965  0.00  0.00    +0.251 C 
ATOM     12  H   UNL     1      33.281 -23.228 -17.397  0.00  0.00    +0.153 HD
ENDROOT
BRANCH   4  15
ATOM     13  O   UNL     1      36.384 -25.435 -12.383  0.00  0.00    -0.448 OA
ATOM     14  N   UNL     1      35.253 -23.534 -11.812  0.00  0.00    -0.222 NA
ATOM     15  N   UNL     1      34.357 -25.101 -13.382  0.00  0.00    -0.269 N 
ATOM     16  C   UNL     1      36.472 -23.597 -10.990  0.00  0.00    +0.151 C 
ATOM     17  C   UNL     1      37.324 -24.656 -11.656  0.00  0.00    +0.233 C 
ATOM     18  C   UNL     1      35.288 -24.630 -12.506  0.00  0.00    +0.284 C 
ATOM     19  C   UNL     1      37.142 -22.238 -10.934  0.00  0.00    +0.030 C 
ATOM     20  H   UNL     1      34.566 -25.960 -13.817  0.00  0.00    +0.157 HD
ENDBRANCH   4  15
BRANCH   1  22
ATOM     21 CL   UNL     1      36.324 -19.767 -19.750  0.00  0.00    -0.079 Cl
ATOM     22  C   UNL     1      32.992 -21.496 -18.382  0.00  0.00    +0.050 C 
ATOM     23  C   UNL     1      34.328 -21.148 -18.580  0.00  0.00    +0.029 C 
ATOM     24  C   UNL     1      31.992 -20.875 -19.129  0.00  0.00    +0.018 C 
ATOM     25  C   UNL     1      33.663 -19.557 -20.273  0.00  0.00    +0.150 C 
ATOM     26  C   UNL     1      34.664 -20.179 -19.526  0.00  0.00    +0.093 C 
ATOM     27  C   UNL     1      32.327 -19.906 -20.075  0.00  0.00    +0.039 C 
BRANCH  25  28
ATOM     28  O   UNL     1      33.962 -18.607 -21.204  0.00  0.00    -0.468 OA
BRANCH  28  29
ATOM     29  C   UNL     1      33.614 -18.895 -22.557  0.00  0.00    +0.257 C 
BRANCH  29  32
ATOM     30  S   UNL     1      34.106 -16.171 -22.746  0.00  0.00    -0.067 S 
ATOM     31  N   UNL     1      32.518 -17.491 -24.301  0.00  0.00    -0.237 NA
ATOM     32  C   UNL     1      33.332 -17.608 -23.275  0.00  0.00    +0.132 C 
ATOM     33  C   UNL     1      33.295 -15.308 -23.986  0.00  0.00    +0.057 C 
ATOM     34  C   UNL     1      32.498 -16.171 -24.707  0.00  0.00    +0.106 C 
ENDBRANCH  29  32
ENDBRANCH  28  29
ENDBRANCH  25  28
ENDBRANCH   1  22
TORSDOF 5
ENDMDL
MODEL 2
REMARK VINA RESULT:     -11.2      5.872     10.012
REMARK  Name = 42642648
REMARK  5 active torsions:
REMARK  status: ('A' for Active; 'I' for Inactive)
REMARK    1  A    between atoms: N_1  and  C_22
REMARK    2  A    between atoms: C_4  and  N_15
REMARK    3  A    between atoms: C_25  and  O_28
REMARK    4  A    between atoms: O_28  and  C_29
REMARK    5  A    between atoms: C_29  and  C_32
REMARK                            x       y       z     vdW  Elec       q    Type
REMARK                         _______ _______ _______ _____ _____    ______ ____
ROOT
ATOM      1  N   UNL     1      33.391 -14.266 -21.848  0.00  0.00    -0.301 N 
ATOM      2  N   UNL     1      32.745 -17.023 -24.867  0.00  0.00    -0.248 NA
ATOM      3  N   UNL     1      32.520 -14.799 -23.968  0.00  0.00    -0.233 NA
ATOM      4  C   UNL     1      34.775 -18.254 -21.441  0.00  0.00    +0.048 C 
ATOM      5  C   UNL     1      33.647 -16.522 -22.703  0.00  0.00    +0.117 C 
ATOM      6  C   UNL     1      34.333 -16.940 -21.548  0.00  0.00    +0.001 C 
ATOM      7  C   UNL     1      33.399 -17.413 -23.758  0.00  0.00    +0.067 C 
ATOM      8  C   UNL     1      33.178 -15.223 -22.872  0.00  0.00    +0.115 C 
ATOM      9  C   UNL     1      34.535 -19.147 -22.480  0.00  0.00    +0.016 C 
ATOM     10  C   UNL     1      33.852 -18.724 -23.623  0.00  0.00    +0.016 C 
ATOM     11  C   UNL     1      32.341 -15.738 -24.911  0.00  0.00    +0.251 C 
ATOM     12  H   UNL     1      34.210 -14.421 -21.325  0.00  0.00    +0.153 HD
ENDROOT
BRANCH   4  15
ATOM     13  O   UNL     1      36.058 -19.923 -18.465  0.00  0.00    -0.448 OA
ATOM     14  N   UNL     1      34.316 -20.702 -19.720  0.00  0.00    -0.222 NA
ATOM     15  N   UNL     1      35.462 -18.680 -20.286  0.00  0.00    -0.269 N 
ATOM     16  C   UNL     1      34.591 -21.693 -18.667  0.00  0.00    +0.151 C 
ATOM     17  C   UNL     1      35.487 -20.965 -17.686  0.00  0.00    +0.233 C 
ATOM     18  C   UNL     1      35.224 -19.793 -19.538  0.00  0.00    +0.284 C 
ATOM     19  C   UNL     1      33.295 -22.178 -18.047  0.00  0.00    +0.030 C 
ATOM     20  H   UNL     1      36.203 -18.105 -19.985  0.00  0.00    +0.157 HD
ENDBRANCH   4  15
BRANCH   1  22
ATOM     21 CL   UNL     1      32.027  -9.418 -22.743  0.00  0.00    -0.079 Cl
ATOM     22  C   UNL     1      32.659 -13.140 -21.437  0.00  0.00    +0.050 C 
ATOM     23  C   UNL     1      32.694 -11.971 -22.195  0.00  0.00    +0.029 C 
ATOM     24  C   UNL     1      31.898 -13.193 -20.270  0.00  0.00    +0.018 C 
ATOM     25  C   UNL     1      31.204 -10.905 -20.618  0.00  0.00    +0.150 C 
ATOM     26  C   UNL     1      31.966 -10.853 -21.787  0.00  0.00    +0.093 C 
ATOM     27  C   UNL     1      31.171 -12.075 -19.861  0.00  0.00    +0.039 C 
BRANCH  25  28
ATOM     28  O   UNL     1      30.484  -9.828 -20.195  0.00  0.00    -0.468 OA
BRANCH  28  29
ATOM     29  C   UNL     1      30.926  -9.184 -19.001  0.00  0.00    +0.257 C 
BRANCH  29  32
ATOM     30  S   UNL     1      30.754  -7.097 -20.823  0.00  0.00    -0.067 S 
ATOM     31  N   UNL     1      31.143  -6.807 -18.284  0.00  0.00    -0.237 NA
ATOM     32  C   UNL     1      30.961  -7.701 -19.230  0.00  0.00    +0.132 C 
ATOM     33  C   UNL     1      30.918  -5.503 -20.213  0.00  0.00    +0.057 C 
ATOM     34  C   UNL     1      31.118  -5.547 -18.849  0.00  0.00    +0.106 C 
ENDBRANCH  29  32
ENDBRANCH  28  29
ENDBRANCH  25  28
ENDBRANCH   1  22
TORSDOF 5
ENDMDL
MODEL 3
REMARK VINA RESULT:     -10.5      2.249      3.147
REMARK  Name = 42642648
REMARK  5 active torsions:
REMARK  status: ('A' for Active; 'I' for Inactive)
REMARK    1  A    between atoms: N_1  and  C_22
REMARK    2  A    between atoms: C_4  and  N_15
REMARK    3  A    between atoms: C_25  and  O_28
REMARK    4  A    between atoms: O_28  and  C_29
REMARK    5  A    between atoms: C_29  and  C_32
REMARK                            x       y       z     vdW  Elec       q    Type
REMARK                         _______ _______ _______ _____ _____    ______ ____
ROOT
ATOM      1  N   UNL     1      34.403 -20.815 -19.334  0.00  0.00    -0.301 N 
ATOM      2  N   UNL     1      31.269 -22.139 -16.976  0.00  0.00    -0.248 NA
ATOM      3  N   UNL     1      32.092 -21.065 -18.970  0.00  0.00    -0.233 NA
ATOM      4  C   UNL     1      35.169 -22.751 -15.639  0.00  0.00    +0.048 C 
ATOM      5  C   UNL     1      33.632 -21.905 -17.309  0.00  0.00    +0.117 C 
ATOM      6  C   UNL     1      34.947 -22.114 -16.854  0.00  0.00    +0.001 C 
ATOM      7  C   UNL     1      32.530 -22.333 -16.551  0.00  0.00    +0.067 C 
ATOM      8  C   UNL     1      33.342 -21.274 -18.515  0.00  0.00    +0.115 C 
ATOM      9  C   UNL     1      34.086 -23.179 -14.879  0.00  0.00    +0.016 C 
ATOM     10  C   UNL     1      32.783 -22.967 -15.337  0.00  0.00    +0.016 C 
ATOM     11  C   UNL     1      31.118 -21.515 -18.162  0.00  0.00    +0.251 C 
ATOM     12  H   UNL     1      35.226 -21.348 -19.252  0.00  0.00    +0.153 HD
ENDROOT
BRANCH   4  15
ATOM     13  O   UNL     1      38.258 -23.856 -14.049  0.00  0.00    -0.448 OA
ATOM     14  N   UNL     1      36.224 -24.845 -13.723  0.00  0.00    -0.222 NA
ATOM     15  N   UNL     1      36.484 -22.963 -15.178  0.00  0.00    -0.269 N 
ATOM     16  C   UNL     1      37.230 -25.628 -12.988  0.00  0.00    +0.151 C 
ATOM     17  C   UNL     1      38.454 -24.738 -12.953  0.00  0.00    +0.233 C 
ATOM     18  C   UNL     1      36.920 -23.920 -14.312  0.00  0.00    +0.284 C 
ATOM     19  C   UNL     1      36.712 -25.989 -11.609  0.00  0.00    +0.030 C 
ATOM     20  H   UNL     1      37.170 -22.345 -15.522  0.00  0.00    +0.157 HD
ENDBRANCH   4  15
BRANCH   1  22
ATOM     21 CL   UNL     1      32.763 -18.619 -23.652  0.00  0.00    -0.079 Cl
ATOM     22  C   UNL     1      34.507 -19.747 -20.239  0.00  0.00    +0.050 C 
ATOM     23  C   UNL     1      33.687 -19.706 -21.366  0.00  0.00    +0.029 C 
ATOM     24  C   UNL     1      35.430 -18.727 -20.011  0.00  0.00    +0.018 C 
ATOM     25  C   UNL     1      34.713 -17.624 -22.037  0.00  0.00    +0.150 C 
ATOM     26  C   UNL     1      33.789 -18.644 -22.265  0.00  0.00    +0.093 C 
ATOM     27  C   UNL     1      35.533 -17.666 -20.909  0.00  0.00    +0.039 C 
BRANCH  25  28
ATOM     28  O   UNL     1      34.835 -16.574 -22.898  0.00  0.00    -0.468 OA
BRANCH  28  29
ATOM     29  C   UNL     1      34.259 -15.334 -22.492  0.00  0.00    +0.257 C 
BRANCH  29  32
ATOM     30  S   UNL     1      32.952 -13.125 -23.547  0.00  0.00    -0.067 S 
ATOM     31  N   UNL     1      33.194 -15.402 -24.745  0.00  0.00    -0.237 NA
ATOM     32  C   UNL     1      33.492 -14.751 -23.643  0.00  0.00    +0.132 C 
ATOM     33  C   UNL     1      32.259 -13.289 -25.106  0.00  0.00    +0.057 C 
ATOM     34  C   UNL     1      32.486 -14.563 -25.583  0.00  0.00    +0.106 C 
ENDBRANCH  29  32
ENDBRANCH  28  29
ENDBRANCH  25  28
ENDBRANCH   1  22
TORSDOF 5
ENDMDL
MODEL 4
REMARK VINA RESULT:     -10.4      5.938     10.619
REMARK  Name = 42642648
REMARK  5 active torsions:
REMARK  status: ('A' for Active; 'I' for Inactive)
REMARK    1  A    between atoms: N_1  and  C_22
REMARK    2  A    between atoms: C_4  and  N_15
REMARK    3  A    between atoms: C_25  and  O_28
REMARK    4  A    between atoms: O_28  and  C_29
REMARK    5  A    between atoms: C_29  and  C_32
REMARK                            x       y       z     vdW  Elec       q    Type
REMARK                         _______ _______ _______ _____ _____    ______ ____
ROOT
ATOM      1  N   UNL     1      33.524 -13.691 -23.006  0.00  0.00    -0.301 N 
ATOM      2  N   UNL     1      31.984 -16.881 -25.147  0.00  0.00    -0.248 NA
ATOM      3  N   UNL     1      32.168 -14.513 -24.745  0.00  0.00    -0.233 NA
ATOM      4  C   UNL     1      34.587 -17.668 -21.987  0.00  0.00    +0.048 C 
ATOM      5  C   UNL     1      33.377 -16.085 -23.365  0.00  0.00    +0.117 C 
ATOM      6  C   UNL     1      34.256 -16.354 -22.300  0.00  0.00    +0.001 C 
ATOM      7  C   UNL     1      32.824 -17.128 -24.126  0.00  0.00    +0.067 C 
ATOM      8  C   UNL     1      33.006 -14.795 -23.729  0.00  0.00    +0.115 C 
ATOM      9  C   UNL     1      34.045 -18.709 -22.733  0.00  0.00    +0.016 C 
ATOM     10  C   UNL     1      33.173 -18.434 -23.790  0.00  0.00    +0.016 C 
ATOM     11  C   UNL     1      31.701 -15.588 -25.401  0.00  0.00    +0.251 C 
ATOM     12  H   UNL     1      34.419 -13.849 -22.629  0.00  0.00    +0.153 HD
ENDROOT
BRANCH   4  15
ATOM     13  O   UNL     1      36.453 -19.012 -19.159  0.00  0.00    -0.448 OA
ATOM     14  N   UNL     1      34.694 -20.076 -20.155  0.00  0.00    -0.222 NA
ATOM     15  N   UNL     1      35.466 -17.945 -20.921  0.00  0.00    -0.269 N 
ATOM     16  C   UNL     1      35.235 -20.971 -19.120  0.00  0.00    +0.151 C 
ATOM     17  C   UNL     1      36.135 -20.086 -18.285  0.00  0.00    +0.233 C 
ATOM     18  C   UNL     1      35.481 -19.044 -20.118  0.00  0.00    +0.284 C 
ATOM     19  C   UNL     1      34.108 -21.599 -18.324  0.00  0.00    +0.030 C 
ATOM     20  H   UNL     1      36.150 -17.261 -20.734  0.00  0.00    +0.157 HD
ENDBRANCH   4  15
BRANCH   1  22
ATOM     21 CL   UNL     1      30.506 -10.788 -20.070  0.00  0.00    -0.079 Cl
ATOM     22  C   UNL     1      33.007 -12.416 -22.726  0.00  0.00    +0.050 C 
ATOM     23  C   UNL     1      32.118 -12.242 -21.666  0.00  0.00    +0.029 C 
ATOM     24  C   UNL     1      33.383 -11.324 -23.507  0.00  0.00    +0.018 C 
ATOM     25  C   UNL     1      31.981  -9.882 -22.169  0.00  0.00    +0.150 C 
ATOM     26  C   UNL     1      31.605 -10.975 -21.386  0.00  0.00    +0.093 C 
ATOM     27  C   UNL     1      32.870 -10.057 -23.228  0.00  0.00    +0.039 C 
BRANCH  25  28
ATOM     28  O   UNL     1      31.496  -8.633 -21.919  0.00  0.00    -0.468 OA
BRANCH  28  29
ATOM     29  C   UNL     1      32.430  -7.654 -21.468  0.00  0.00    +0.257 C 
BRANCH  29  32
ATOM     30  S   UNL     1      30.491  -5.725 -21.000  0.00  0.00    -0.067 S 
ATOM     31  N   UNL     1      32.068  -6.695 -19.197  0.00  0.00    -0.237 NA
ATOM     32  C   UNL     1      31.757  -6.756 -20.472  0.00  0.00    +0.132 C 
ATOM     33  C   UNL     1      30.333  -5.140 -19.397  0.00  0.00    +0.057 C 
ATOM     34  C   UNL     1      31.251  -5.767 -18.581  0.00  0.00    +0.106 C 
ENDBRANCH  29  32
ENDBRANCH  28  29
ENDBRANCH  25  28
ENDBRANCH   1  22
TORSDOF 5
ENDMDL
MODEL 5
REMARK VINA RESULT:     -10.3      8.294     16.530
REMARK  Name = 42642648
REMARK  5 active torsions:
REMARK  status: ('A' for Active; 'I' for Inactive)
REMARK    1  A    between atoms: N_1  and  C_22
REMARK    2  A    between atoms: C_4  and  N_15
REMARK    3  A    between atoms: C_25  and  O_28
REMARK    4  A    between atoms: O_28  and  C_29
REMARK    5  A    between atoms: C_29  and  C_32
REMARK                            x       y       z     vdW  Elec       q    Type
REMARK                         _______ _______ _______ _____ _____    ______ ____
ROOT
ATOM      1  N   UNL     1      33.210  -9.536 -23.258  0.00  0.00    -0.301 N 
ATOM      2  N   UNL     1      30.555  -6.623 -21.995  0.00  0.00    -0.248 NA
ATOM      3  N   UNL     1      31.341  -8.901 -21.978  0.00  0.00    -0.233 NA
ATOM      4  C   UNL     1      33.585  -5.547 -24.648  0.00  0.00    +0.048 C 
ATOM      5  C   UNL     1      32.464  -7.229 -23.313  0.00  0.00    +0.117 C 
ATOM      6  C   UNL     1      33.485  -6.862 -24.208  0.00  0.00    +0.001 C 
ATOM      7  C   UNL     1      31.535  -6.284 -22.851  0.00  0.00    +0.067 C 
ATOM      8  C   UNL     1      32.309  -8.527 -22.835  0.00  0.00    +0.115 C 
ATOM      9  C   UNL     1      32.670  -4.602 -24.198  0.00  0.00    +0.016 C 
ATOM     10  C   UNL     1      31.657  -4.974 -23.309  0.00  0.00    +0.016 C 
ATOM     11  C   UNL     1      30.511  -7.913 -21.605  0.00  0.00    +0.251 C 
ATOM     12  H   UNL     1      34.112  -9.201 -23.467  0.00  0.00    +0.153 HD
ENDROOT
BRANCH   4  15
ATOM     13  O   UNL     1      35.718  -4.757 -27.495  0.00  0.00    -0.448 OA
ATOM     14  N   UNL     1      33.560  -5.483 -27.674  0.00  0.00    -0.222 NA
ATOM     15  N   UNL     1      34.605  -5.173 -25.545  0.00  0.00    -0.269 N 
ATOM     16  C   UNL     1      34.050  -5.187 -29.030  0.00  0.00    +0.151 C 
ATOM     17  C   UNL     1      35.550  -5.063 -28.873  0.00  0.00    +0.233 C 
ATOM     18  C   UNL     1      34.554  -5.158 -26.906  0.00  0.00    +0.284 C 
ATOM     19  C   UNL     1      33.638  -6.285 -29.991  0.00  0.00    +0.030 C 
ATOM     20  H   UNL     1      35.457  -4.889 -25.139  0.00  0.00    +0.157 HD
ENDBRANCH   4  15
BRANCH   1  22
ATOM     21 CL   UNL     1      32.787 -14.160 -21.112  0.00  0.00    -0.079 Cl
ATOM     22  C   UNL     1      33.065 -10.922 -23.435  0.00  0.00    +0.050 C 
ATOM     23  C   UNL     1      33.004 -11.764 -22.326  0.00  0.00    +0.029 C 
ATOM     24  C   UNL     1      32.981 -11.454 -24.721  0.00  0.00    +0.018 C 
ATOM     25  C   UNL     1      32.775 -13.674 -23.789  0.00  0.00    +0.150 C 
ATOM     26  C   UNL     1      32.858 -13.140 -22.502  0.00  0.00    +0.093 C 
ATOM     27  C   UNL     1      32.836 -12.830 -24.898  0.00  0.00    +0.039 C 
BRANCH  25  28
ATOM     28  O   UNL     1      32.633 -15.014 -23.991  0.00  0.00    -0.468 OA
BRANCH  28  29
ATOM     29  C   UNL     1      33.820 -15.755 -24.270  0.00  0.00    +0.257 C 
BRANCH  29  32
ATOM     30  S   UNL     1      33.257 -18.395 -23.626  0.00  0.00    -0.067 S 
ATOM     31  N   UNL     1      34.568 -16.759 -22.115  0.00  0.00    -0.237 NA
ATOM     32  C   UNL     1      33.950 -16.866 -23.270  0.00  0.00    +0.132 C 
ATOM     33  C   UNL     1      33.823 -18.976 -22.116  0.00  0.00    +0.057 C 
ATOM     34  C   UNL     1      34.494 -17.969 -21.454  0.00  0.00    +0.106 C 
ENDBRANCH  29  32
ENDBRANCH  28  29
ENDBRANCH  25  28
ENDBRANCH   1  22
TORSDOF 5
ENDMDL
MODEL 6
REMARK VINA RESULT:     -10.2      6.087     10.966
REMARK  Name = 42642648
REMARK  5 active torsions:
REMARK  status: ('A' for Active; 'I' for Inactive)
REMARK    1  A    between atoms: N_1  and  C_22
REMARK    2  A    between atoms: C_4  and  N_15
REMARK    3  A    between atoms: C_25  and  O_28
REMARK    4  A    between atoms: O_28  and  C_29
REMARK    5  A    between atoms: C_29  and  C_32
REMARK                            x       y       z     vdW  Elec       q    Type
REMARK                         _______ _______ _______ _____ _____    ______ ____
ROOT
ATOM      1  N   UNL     1      33.438 -13.228 -23.090  0.00  0.00    -0.301 N 
ATOM      2  N   UNL     1      31.846 -16.292 -25.373  0.00  0.00    -0.248 NA
ATOM      3  N   UNL     1      32.059 -13.948 -24.855  0.00  0.00    -0.233 NA
ATOM      4  C   UNL     1      34.466 -17.262 -22.279  0.00  0.00    +0.048 C 
ATOM      5  C   UNL     1      33.262 -15.600 -23.566  0.00  0.00    +0.117 C 
ATOM      6  C   UNL     1      34.146 -15.931 -22.523  0.00  0.00    +0.001 C 
ATOM      7  C   UNL     1      32.692 -16.597 -24.373  0.00  0.00    +0.067 C 
ATOM      8  C   UNL     1      32.902 -14.289 -23.862  0.00  0.00    +0.115 C 
ATOM      9  C   UNL     1      33.907 -18.259 -23.071  0.00  0.00    +0.016 C 
ATOM     10  C   UNL     1      33.029 -17.922 -24.105  0.00  0.00    +0.016 C 
ATOM     11  C   UNL     1      31.575 -14.985 -25.559  0.00  0.00    +0.251 C 
ATOM     12  H   UNL     1      34.334 -13.414 -22.728  0.00  0.00    +0.153 HD
ENDROOT
BRANCH   4  15
ATOM     13  O   UNL     1      36.327 -18.754 -19.523  0.00  0.00    -0.448 OA
ATOM     14  N   UNL     1      34.521 -19.729 -20.525  0.00  0.00    -0.222 NA
ATOM     15  N   UNL     1      35.350 -17.600 -21.235  0.00  0.00    -0.269 N 
ATOM     16  C   UNL     1      35.047 -20.674 -19.528  0.00  0.00    +0.151 C 
ATOM     17  C   UNL     1      35.987 -19.845 -18.678  0.00  0.00    +0.233 C 
ATOM     18  C   UNL     1      35.342 -18.725 -20.467  0.00  0.00    +0.284 C 
ATOM     19  C   UNL     1      33.912 -21.291 -18.734  0.00  0.00    +0.030 C 
ATOM     20  H   UNL     1      36.059 -16.945 -21.038  0.00  0.00    +0.157 HD
ENDBRANCH   4  15
BRANCH   1  22
ATOM     21 CL   UNL     1      30.356 -10.463 -20.086  0.00  0.00    -0.079 Cl
ATOM     22  C   UNL     1      32.937 -11.963 -22.741  0.00  0.00    +0.050 C 
ATOM     23  C   UNL     1      32.005 -11.842 -21.711  0.00  0.00    +0.029 C 
ATOM     24  C   UNL     1      33.371 -10.830 -23.427  0.00  0.00    +0.018 C 
ATOM     25  C   UNL     1      31.943  -9.450 -22.050  0.00  0.00    +0.150 C 
ATOM     26  C   UNL     1      31.508 -10.585 -21.364  0.00  0.00    +0.093 C 
ATOM     27  C   UNL     1      32.874  -9.573 -23.081  0.00  0.00    +0.039 C 
BRANCH  25  28
ATOM     28  O   UNL     1      31.474  -8.210 -21.734  0.00  0.00    -0.468 OA
BRANCH  28  29
ATOM     29  C   UNL     1      32.444  -7.217 -21.404  0.00  0.00    +0.257 C 
BRANCH  29  32
ATOM     30  S   UNL     1      31.005  -5.033 -22.335  0.00  0.00    -0.067 S 
ATOM     31  N   UNL     1      33.243  -5.855 -23.333  0.00  0.00    -0.237 NA
ATOM     32  C   UNL     1      32.352  -6.095 -22.397  0.00  0.00    +0.132 C 
ATOM     33  C   UNL     1      31.654  -4.172 -23.668  0.00  0.00    +0.057 C 
ATOM     34  C   UNL     1      32.842  -4.753 -24.061  0.00  0.00    +0.106 C 
ENDBRANCH  29  32
ENDBRANCH  28  29
ENDBRANCH  25  28
ENDBRANCH   1  22
TORSDOF 5
ENDMDL
MODEL 7
REMARK VINA RESULT:      -9.9      8.374     16.624
REMARK  Name = 42642648
REMARK  5 active torsions:
REMARK  status: ('A' for Active; 'I' for Inactive)
REMARK    1  A    between atoms: N_1  and  C_22
REMARK    2  A    between atoms: C_4  and  N_15
REMARK    3  A    between atoms: C_25  and  O_28
REMARK    4  A    between atoms: O_28  and  C_29
REMARK    5  A    between atoms: C_29  and  C_32
REMARK                            x       y       z     vdW  Elec       q    Type
REMARK                         _______ _______ _______ _____ _____    ______ ____
ROOT
ATOM      1  N   UNL     1      33.233  -9.696 -23.901  0.00  0.00    -0.301 N 
ATOM      2  N   UNL     1      31.003  -6.696 -22.124  0.00  0.00    -0.248 NA
ATOM      3  N   UNL     1      31.832  -8.958 -22.160  0.00  0.00    -0.233 NA
ATOM      4  C   UNL     1      33.020  -5.848 -25.671  0.00  0.00    +0.048 C 
ATOM      5  C   UNL     1      32.428  -7.408 -23.916  0.00  0.00    +0.117 C 
ATOM      6  C   UNL     1      33.108  -7.118 -25.112  0.00  0.00    +0.001 C 
ATOM      7  C   UNL     1      31.656  -6.430 -23.268  0.00  0.00    +0.067 C 
ATOM      8  C   UNL     1      32.474  -8.658 -23.305  0.00  0.00    +0.115 C 
ATOM      9  C   UNL     1      32.258  -4.871 -25.040  0.00  0.00    +0.016 C 
ATOM     10  C   UNL     1      31.585  -5.167 -23.852  0.00  0.00    +0.016 C 
ATOM     11  C   UNL     1      31.126  -7.945 -21.632  0.00  0.00    +0.251 C 
ATOM     12  H   UNL     1      34.013  -9.376 -24.408  0.00  0.00    +0.153 HD
ENDROOT
BRANCH   4  15
ATOM     13  O   UNL     1      35.264  -4.734 -28.319  0.00  0.00    -0.448 OA
ATOM     14  N   UNL     1      35.614  -4.345 -26.095  0.00  0.00    -0.222 NA
ATOM     15  N   UNL     1      33.699  -5.551 -26.871  0.00  0.00    -0.269 N 
ATOM     16  C   UNL     1      36.776  -3.824 -26.832  0.00  0.00    +0.151 C 
ATOM     17  C   UNL     1      36.325  -3.790 -28.277  0.00  0.00    +0.233 C 
ATOM     18  C   UNL     1      34.868  -4.870 -27.020  0.00  0.00    +0.284 C 
ATOM     19  C   UNL     1      37.173  -2.462 -26.297  0.00  0.00    +0.030 C 
ATOM     20  H   UNL     1      33.276  -5.875 -27.700  0.00  0.00    +0.157 HD
ENDBRANCH   4  15
BRANCH   1  22
ATOM     21 CL   UNL     1      33.048 -14.044 -21.214  0.00  0.00    -0.079 Cl
ATOM     22  C   UNL     1      33.087 -11.093 -23.906  0.00  0.00    +0.050 C 
ATOM     23  C   UNL     1      33.132 -11.803 -22.706  0.00  0.00    +0.029 C 
ATOM     24  C   UNL     1      32.896 -11.769 -25.110  0.00  0.00    +0.018 C 
ATOM     25  C   UNL     1      32.796 -13.867 -23.917  0.00  0.00    +0.150 C 
ATOM     26  C   UNL     1      32.986 -13.190 -22.711  0.00  0.00    +0.093 C 
ATOM     27  C   UNL     1      32.750 -13.156 -25.115  0.00  0.00    +0.039 C 
BRANCH  25  28
ATOM     28  O   UNL     1      32.651 -15.222 -23.952  0.00  0.00    -0.468 OA
BRANCH  28  29
ATOM     29  C   UNL     1      33.821 -15.990 -24.228  0.00  0.00    +0.257 C 
BRANCH  29  32
ATOM     30  S   UNL     1      33.354 -18.619 -23.473  0.00  0.00    -0.067 S 
ATOM     31  N   UNL     1      34.558 -16.859 -22.011  0.00  0.00    -0.237 NA
ATOM     32  C   UNL     1      33.974 -17.047 -23.174  0.00  0.00    +0.132 C 
ATOM     33  C   UNL     1      33.907 -19.104 -21.924  0.00  0.00    +0.057 C 
ATOM     34  C   UNL     1      34.518 -18.040 -21.296  0.00  0.00    +0.106 C 
ENDBRANCH  29  32
ENDBRANCH  28  29
ENDBRANCH  25  28
ENDBRANCH   1  22
TORSDOF 5
ENDMDL
MODEL 8
REMARK VINA RESULT:      -9.6     11.940     15.527
REMARK  Name = 42642648
REMARK  5 active torsions:
REMARK  status: ('A' for Active; 'I' for Inactive)
REMARK    1  A    between atoms: N_1  and  C_22
REMARK    2  A    between atoms: C_4  and  N_15
REMARK    3  A    between atoms: C_25  and  O_28
REMARK    4  A    between atoms: O_28  and  C_29
REMARK    5  A    between atoms: C_29  and  C_32
REMARK                            x       y       z     vdW  Elec       q    Type
REMARK                         _______ _______ _______ _____ _____    ______ ____
ROOT
ATOM      1  N   UNL     1      31.458  -7.286 -22.456  0.00  0.00    -0.301 N 
ATOM      2  N   UNL     1      30.754  -7.143 -18.380  0.00  0.00    -0.248 NA
ATOM      3  N   UNL     1      31.090  -6.039 -20.495  0.00  0.00    -0.233 NA
ATOM      4  C   UNL     1      31.160 -10.869 -20.205  0.00  0.00    +0.048 C 
ATOM      5  C   UNL     1      31.126  -8.451 -20.355  0.00  0.00    +0.117 C 
ATOM      6  C   UNL     1      31.262  -9.710 -20.968  0.00  0.00    +0.001 C 
ATOM      7  C   UNL     1      30.886  -8.341 -18.976  0.00  0.00    +0.067 C 
ATOM      8  C   UNL     1      31.217  -7.255 -21.060  0.00  0.00    +0.115 C 
ATOM      9  C   UNL     1      30.923 -10.772 -18.839  0.00  0.00    +0.016 C 
ATOM     10  C   UNL     1      30.790  -9.518 -18.237  0.00  0.00    +0.016 C 
ATOM     11  C   UNL     1      30.863  -6.057 -19.171  0.00  0.00    +0.251 C 
ATOM     12  H   UNL     1      31.097  -8.085 -22.903  0.00  0.00    +0.153 HD
ENDROOT
BRANCH   4  15
ATOM     13  O   UNL     1      31.892 -13.758 -22.303  0.00  0.00    -0.448 OA
ATOM     14  N   UNL     1      32.597 -11.633 -22.758  0.00  0.00    -0.222 NA
ATOM     15  N   UNL     1      31.295 -12.133 -20.813  0.00  0.00    -0.269 N 
ATOM     16  C   UNL     1      33.167 -12.525 -23.780  0.00  0.00    +0.151 C 
ATOM     17  C   UNL     1      32.390 -13.816 -23.633  0.00  0.00    +0.233 C 
ATOM     18  C   UNL     1      31.953 -12.436 -21.967  0.00  0.00    +0.284 C 
ATOM     19  C   UNL     1      33.036 -11.902 -25.156  0.00  0.00    +0.030 C 
ATOM     20  H   UNL     1      30.863 -12.886 -20.349  0.00  0.00    +0.157 HD
ENDBRANCH   4  15
BRANCH   1  22
ATOM     21 CL   UNL     1      31.076  -3.741 -26.123  0.00  0.00    -0.079 Cl
ATOM     22  C   UNL     1      32.112  -6.397 -23.325  0.00  0.00    +0.050 C 
ATOM     23  C   UNL     1      31.369  -5.599 -24.194  0.00  0.00    +0.029 C 
ATOM     24  C   UNL     1      33.503  -6.312 -23.317  0.00  0.00    +0.018 C 
ATOM     25  C   UNL     1      33.412  -4.631 -25.049  0.00  0.00    +0.150 C 
ATOM     26  C   UNL     1      32.018  -4.715 -25.056  0.00  0.00    +0.093 C 
ATOM     27  C   UNL     1      34.153  -5.429 -24.179  0.00  0.00    +0.039 C 
BRANCH  25  28
ATOM     28  O   UNL     1      34.073  -3.777 -25.880  0.00  0.00    -0.468 OA
BRANCH  28  29
ATOM     29  C   UNL     1      35.307  -4.235 -26.430  0.00  0.00    +0.257 C 
BRANCH  29  32
ATOM     30  S   UNL     1      33.820  -4.461 -28.762  0.00  0.00    -0.067 S 
ATOM     31  N   UNL     1      35.644  -6.132 -28.012  0.00  0.00    -0.237 NA
ATOM     32  C   UNL     1      35.026  -5.021 -27.677  0.00  0.00    +0.132 C 
ATOM     33  C   UNL     1      34.141  -5.807 -29.774  0.00  0.00    +0.057 C 
ATOM     34  C   UNL     1      35.135  -6.581 -29.214  0.00  0.00    +0.106 C 
ENDBRANCH  29  32
ENDBRANCH  28  29
ENDBRANCH  25  28
ENDBRANCH   1  22
TORSDOF 5
ENDMDL
MODEL 9
REMARK VINA RESULT:      -9.4      8.950     16.611
REMARK  Name = 42642648
REMARK  5 active torsions:
REMARK  status: ('A' for Active; 'I' for Inactive)
REMARK    1  A    between atoms: N_1  and  C_22
REMARK    2  A    between atoms: C_4  and  N_15
REMARK    3  A    between atoms: C_25  and  O_28
REMARK    4  A    between atoms: O_28  and  C_29
REMARK    5  A    between atoms: C_29  and  C_32
REMARK                            x       y       z     vdW  Elec       q    Type
REMARK                         _______ _______ _______ _____ _____    ______ ____
ROOT
ATOM      1  N   UNL     1      32.169  -8.607 -22.596  0.00  0.00    -0.301 N 
ATOM      2  N   UNL     1      30.928  -5.894 -19.728  0.00  0.00    -0.248 NA
ATOM      3  N   UNL     1      31.979  -7.975 -20.338  0.00  0.00    -0.233 NA
ATOM      4  C   UNL     1      30.220  -5.018 -23.741  0.00  0.00    +0.048 C 
ATOM      5  C   UNL     1      31.102  -6.501 -22.041  0.00  0.00    +0.117 C 
ATOM      6  C   UNL     1      30.862  -6.202 -23.394  0.00  0.00    +0.001 C 
ATOM      7  C   UNL     1      30.703  -5.618 -21.024  0.00  0.00    +0.067 C 
ATOM      8  C   UNL     1      31.738  -7.668 -21.627  0.00  0.00    +0.115 C 
ATOM      9  C   UNL     1      29.820  -4.136 -22.743  0.00  0.00    +0.016 C 
ATOM     10  C   UNL     1      30.061  -4.441 -21.401  0.00  0.00    +0.016 C 
ATOM     11  C   UNL     1      31.553  -7.057 -19.455  0.00  0.00    +0.251 C 
ATOM     12  H   UNL     1      32.413  -8.202 -23.459  0.00  0.00    +0.153 HD
ENDROOT
BRANCH   4  15
ATOM     13  O   UNL     1      30.280  -4.510 -27.349  0.00  0.00    -0.448 OA
ATOM     14  N   UNL     1      31.980  -5.468 -26.163  0.00  0.00    -0.222 NA
ATOM     15  N   UNL     1      29.977  -4.713 -25.095  0.00  0.00    -0.269 N 
ATOM     16  C   UNL     1      32.338  -5.525 -27.589  0.00  0.00    +0.151 C 
ATOM     17  C   UNL     1      31.367  -4.579 -28.262  0.00  0.00    +0.233 C 
ATOM     18  C   UNL     1      30.798  -4.932 -26.159  0.00  0.00    +0.284 C 
ATOM     19  C   UNL     1      33.790  -5.130 -27.784  0.00  0.00    +0.030 C 
ATOM     20  H   UNL     1      29.110  -4.290 -25.295  0.00  0.00    +0.157 HD
ENDBRANCH   4  15
BRANCH   1  22
ATOM     21 CL   UNL     1      31.134 -13.018 -20.223  0.00  0.00    -0.079 Cl
ATOM     22  C   UNL     1      32.316 -10.003 -22.563  0.00  0.00    +0.050 C 
ATOM     23  C   UNL     1      31.727 -10.742 -21.537  0.00  0.00    +0.029 C 
ATOM     24  C   UNL     1      33.050 -10.650 -23.555  0.00  0.00    +0.018 C 
ATOM     25  C   UNL     1      32.607 -12.777 -22.498  0.00  0.00    +0.150 C 
ATOM     26  C   UNL     1      31.872 -12.129 -21.504  0.00  0.00    +0.093 C 
ATOM     27  C   UNL     1      33.196 -12.037 -23.523  0.00  0.00    +0.039 C 
BRANCH  25  28
ATOM     28  O   UNL     1      32.766 -14.131 -22.491  0.00  0.00    -0.468 OA
BRANCH  28  29
ATOM     29  C   UNL     1      33.223 -14.734 -23.700  0.00  0.00    +0.257 C 
BRANCH  29  32
ATOM     30  S   UNL     1      34.318 -16.686 -22.059  0.00  0.00    -0.067 S 
ATOM     31  N   UNL     1      33.040 -17.157 -24.256  0.00  0.00    -0.237 NA
ATOM     32  C   UNL     1      33.455 -16.197 -23.459  0.00  0.00    +0.132 C 
ATOM     33  C   UNL     1      34.128 -18.320 -22.543  0.00  0.00    +0.057 C 
ATOM     34  C   UNL     1      33.427 -18.374 -23.729  0.00  0.00    +0.106 C 
ENDBRANCH  29  32
ENDBRANCH  28  29
ENDBRANCH  25  28
ENDBRANCH   1  22
TORSDOF 5
ENDMDL
