MODEL 1
REMARK VINA RESULT:     -12.0      0.000      0.000
REMARK  Name = 6918388
REMARK  5 active torsions:
REMARK  status: ('A' for Active; 'I' for Inactive)
REMARK    1  A    between atoms: N_1  and  C_4
REMARK    2  A    between atoms: N_1  and  C_15
REMARK    3  A    between atoms: C_4  and  C_6
REMARK    4  A    between atoms: C_15  and  C_17
REMARK    5  A    between atoms: C_19  and  C_23
REMARK                            x       y       z     vdW  Elec       q    Type
REMARK                         _______ _______ _______ _____ _____    ______ ____
ROOT
ATOM      1  N   UNL     1      34.581 -16.067 -22.604  0.00  0.00    +0.389 N 
ATOM      2  H   UNL     1      35.068 -15.664 -23.403  0.00  0.00    -0.084 HD
ATOM      3  H   UNL     1      35.239 -16.278 -21.854  0.00  0.00    -0.084 HD
ENDROOT
BRANCH   1   4
ATOM      4  C   UNL     1      33.935 -17.306 -23.015  0.00  0.00    -0.037 C 
BRANCH   4   6
ATOM      5  O   UNL     1      33.262 -18.862 -21.341  0.00  0.00    -0.482 OA
ATOM      6  C   UNL     1      34.385 -18.472 -22.144  0.00  0.00    +0.145 C 
ATOM      7  C   UNL     1      35.577 -18.073 -21.276  0.00  0.00    +0.046 C 
ATOM      8  C   UNL     1      36.029 -19.279 -20.462  0.00  0.00    +0.033 C 
ATOM      9  C   UNL     1      34.846 -19.973 -19.851  0.00  0.00    +0.012 C 
ATOM     10  C   UNL     1      33.549 -19.738 -20.325  0.00  0.00    +0.134 C 
ATOM     11  C   UNL     1      35.036 -20.891 -18.810  0.00  0.00    -0.001 C 
ATOM     12  C   UNL     1      32.456 -20.381 -19.738  0.00  0.00    +0.037 C 
ATOM     13  C   UNL     1      33.945 -21.542 -18.233  0.00  0.00    -0.000 C 
ATOM     14  C   UNL     1      32.656 -21.284 -18.695  0.00  0.00    +0.003 C 
ENDBRANCH   4   6
ENDBRANCH   1   4
BRANCH   1  15
ATOM     15  C   UNL     1      33.603 -15.109 -22.107  0.00  0.00    -0.053 C 
BRANCH  15  17
ATOM     16  N   UNL     1      32.646 -13.449 -25.351  0.00  0.00    -0.243 NA
ATOM     17  C   UNL     1      33.307 -14.033 -23.118  0.00  0.00    -0.025 C 
ATOM     18  C   UNL     1      33.418 -12.701 -22.771  0.00  0.00    -0.003 C 
ATOM     19  C   UNL     1      33.138 -11.729 -23.725  0.00  0.00    +0.019 C 
ATOM     20  C   UNL     1      32.925 -14.365 -24.397  0.00  0.00    +0.092 C 
ATOM     21  C   UNL     1      32.759 -12.151 -24.990  0.00  0.00    +0.099 C 
BRANCH  19  23
ATOM     22  F   UNL     1      33.533  -6.302 -22.505  0.00  0.00    -0.204 F 
ATOM     23  C   UNL     1      33.239 -10.323 -23.410  0.00  0.00    +0.002 C 
ATOM     24  C   UNL     1      34.357  -9.593 -23.819  0.00  0.00    +0.002 C 
ATOM     25  C   UNL     1      32.222  -9.691 -22.693  0.00  0.00    +0.002 C 
ATOM     26  C   UNL     1      34.456  -8.235 -23.513  0.00  0.00    +0.030 C 
ATOM     27  C   UNL     1      32.321  -8.333 -22.387  0.00  0.00    +0.030 C 
ATOM     28  C   UNL     1      33.438  -7.606 -22.797  0.00  0.00    +0.140 C 
ENDBRANCH  19  23
ENDBRANCH  15  17
ENDBRANCH   1  15
TORSDOF 5
ENDMDL
MODEL 2
REMARK VINA RESULT:     -11.7      3.736      9.983
REMARK  Name = 6918388
REMARK  5 active torsions:
REMARK  status: ('A' for Active; 'I' for Inactive)
REMARK    1  A    between atoms: N_1  and  C_4
REMARK    2  A    between atoms: N_1  and  C_15
REMARK    3  A    between atoms: C_4  and  C_6
REMARK    4  A    between atoms: C_15  and  C_17
REMARK    5  A    between atoms: C_19  and  C_23
REMARK                            x       y       z     vdW  Elec       q    Type
REMARK                         _______ _______ _______ _____ _____    ______ ____
ROOT
ATOM      1  N   UNL     1      32.587 -13.277 -22.968  0.00  0.00    +0.389 N 
ATOM      2  H   UNL     1      31.926 -13.987 -23.282  0.00  0.00    -0.084 HD
ATOM      3  H   UNL     1      32.197 -12.747 -22.189  0.00  0.00    -0.084 HD
ENDROOT
BRANCH   1   4
ATOM      4  C   UNL     1      32.857 -12.359 -24.065  0.00  0.00    -0.037 C 
BRANCH   4   6
ATOM      5  O   UNL     1      32.372 -10.273 -23.021  0.00  0.00    -0.482 OA
ATOM      6  C   UNL     1      33.452 -11.054 -23.551  0.00  0.00    +0.145 C 
ATOM      7  C   UNL     1      34.179 -10.310 -24.670  0.00  0.00    +0.046 C 
ATOM      8  C   UNL     1      34.804  -9.041 -24.103  0.00  0.00    +0.033 C 
ATOM      9  C   UNL     1      33.821  -8.319 -23.226  0.00  0.00    +0.012 C 
ATOM     10  C   UNL     1      32.683  -8.969 -22.733  0.00  0.00    +0.134 C 
ATOM     11  C   UNL     1      34.053  -6.983 -22.870  0.00  0.00    -0.001 C 
ATOM     12  C   UNL     1      31.770  -8.280 -21.929  0.00  0.00    +0.037 C 
ATOM     13  C   UNL     1      33.147  -6.301 -22.057  0.00  0.00    -0.000 C 
ATOM     14  C   UNL     1      32.005  -6.948 -21.591  0.00  0.00    +0.003 C 
ENDBRANCH   4   6
ENDBRANCH   1   4
BRANCH   1  15
ATOM     15  C   UNL     1      33.810 -13.929 -22.520  0.00  0.00    -0.053 C 
BRANCH  15  17
ATOM     16  N   UNL     1      33.412 -17.194 -24.358  0.00  0.00    -0.243 NA
ATOM     17  C   UNL     1      33.792 -15.409 -22.797  0.00  0.00    -0.025 C 
ATOM     18  C   UNL     1      34.119 -16.309 -21.803  0.00  0.00    -0.003 C 
ATOM     19  C   UNL     1      34.094 -17.669 -22.088  0.00  0.00    +0.019 C 
ATOM     20  C   UNL     1      33.448 -15.880 -24.044  0.00  0.00    +0.092 C 
ATOM     21  C   UNL     1      33.737 -18.057 -23.370  0.00  0.00    +0.099 C 
BRANCH  19  23
ATOM     22  F   UNL     1      35.393 -21.453 -18.203  0.00  0.00    -0.204 F 
ATOM     23  C   UNL     1      34.430 -18.649 -21.081  0.00  0.00    +0.002 C 
ATOM     24  C   UNL     1      35.740 -18.746 -20.608  0.00  0.00    +0.002 C 
ATOM     25  C   UNL     1      33.447 -19.503 -20.579  0.00  0.00    +0.002 C 
ATOM     26  C   UNL     1      36.065 -19.693 -19.637  0.00  0.00    +0.030 C 
ATOM     27  C   UNL     1      33.772 -20.450 -19.607  0.00  0.00    +0.030 C 
ATOM     28  C   UNL     1      35.081 -20.545 -19.137  0.00  0.00    +0.140 C 
ENDBRANCH  19  23
ENDBRANCH  15  17
ENDBRANCH   1  15
TORSDOF 5
ENDMDL
MODEL 3
REMARK VINA RESULT:     -11.5      5.437      8.497
REMARK  Name = 6918388
REMARK  5 active torsions:
REMARK  status: ('A' for Active; 'I' for Inactive)
REMARK    1  A    between atoms: N_1  and  C_4
REMARK    2  A    between atoms: N_1  and  C_15
REMARK    3  A    between atoms: C_4  and  C_6
REMARK    4  A    between atoms: C_15  and  C_17
REMARK    5  A    between atoms: C_19  and  C_23
REMARK                            x       y       z     vdW  Elec       q    Type
REMARK                         _______ _______ _______ _____ _____    ______ ____
ROOT
ATOM      1  N   UNL     1      35.478 -21.311 -16.272  0.00  0.00    +0.389 N 
ATOM      2  H   UNL     1      35.976 -20.447 -16.060  0.00  0.00    -0.084 HD
ATOM      3  H   UNL     1      34.483 -21.208 -16.071  0.00  0.00    -0.084 HD
ENDROOT
BRANCH   1   4
ATOM      4  C   UNL     1      36.010 -22.384 -15.445  0.00  0.00    -0.037 C 
BRANCH   4   6
ATOM      5  O   UNL     1      33.647 -22.663 -15.306  0.00  0.00    -0.482 OA
ATOM      6  C   UNL     1      34.885 -23.192 -14.809  0.00  0.00    +0.145 C 
ATOM      7  C   UNL     1      34.952 -23.111 -13.285  0.00  0.00    +0.046 C 
ATOM      8  C   UNL     1      33.846 -23.973 -12.690  0.00  0.00    +0.033 C 
ATOM      9  C   UNL     1      32.548 -23.730 -13.405  0.00  0.00    +0.012 C 
ATOM     10  C   UNL     1      32.523 -23.107 -14.660  0.00  0.00    +0.134 C 
ATOM     11  C   UNL     1      31.343 -24.152 -12.828  0.00  0.00    -0.001 C 
ATOM     12  C   UNL     1      31.307 -22.875 -15.307  0.00  0.00    +0.037 C 
ATOM     13  C   UNL     1      30.130 -23.931 -13.482  0.00  0.00    -0.000 C 
ATOM     14  C   UNL     1      30.113 -23.289 -14.719  0.00  0.00    +0.003 C 
ENDBRANCH   4   6
ENDBRANCH   1   4
BRANCH   1  15
ATOM     15  C   UNL     1      35.635 -21.616 -17.688  0.00  0.00    -0.053 C 
BRANCH  15  17
ATOM     16  N   UNL     1      32.124 -21.113 -18.957  0.00  0.00    -0.243 NA
ATOM     17  C   UNL     1      34.482 -21.098 -18.506  0.00  0.00    -0.025 C 
ATOM     18  C   UNL     1      34.698 -20.177 -19.511  0.00  0.00    -0.003 C 
ATOM     19  C   UNL     1      33.614 -19.716 -20.250  0.00  0.00    +0.019 C 
ATOM     20  C   UNL     1      33.201 -21.537 -18.260  0.00  0.00    +0.092 C 
ATOM     21  C   UNL     1      32.358 -20.211 -19.936  0.00  0.00    +0.099 C 
BRANCH  19  23
ATOM     22  F   UNL     1      34.297 -15.998 -24.349  0.00  0.00    -0.204 F 
ATOM     23  C   UNL     1      33.790 -18.752 -21.310  0.00  0.00    +0.002 C 
ATOM     24  C   UNL     1      33.401 -19.068 -22.614  0.00  0.00    +0.002 C 
ATOM     25  C   UNL     1      34.352 -17.504 -21.038  0.00  0.00    +0.002 C 
ATOM     26  C   UNL     1      33.572 -18.138 -23.640  0.00  0.00    +0.030 C 
ATOM     27  C   UNL     1      34.523 -16.574 -22.064  0.00  0.00    +0.030 C 
ATOM     28  C   UNL     1      34.133 -16.891 -23.364  0.00  0.00    +0.140 C 
ENDBRANCH  19  23
ENDBRANCH  15  17
ENDBRANCH   1  15
TORSDOF 5
ENDMDL
MODEL 4
REMARK VINA RESULT:     -11.4      5.003      8.420
REMARK  Name = 6918388
REMARK  5 active torsions:
REMARK  status: ('A' for Active; 'I' for Inactive)
REMARK    1  A    between atoms: N_1  and  C_4
REMARK    2  A    between atoms: N_1  and  C_15
REMARK    3  A    between atoms: C_4  and  C_6
REMARK    4  A    between atoms: C_15  and  C_17
REMARK    5  A    between atoms: C_19  and  C_23
REMARK                            x       y       z     vdW  Elec       q    Type
REMARK                         _______ _______ _______ _____ _____    ______ ____
ROOT
ATOM      1  N   UNL     1      32.979 -22.581 -17.561  0.00  0.00    +0.389 N 
ATOM      2  H   UNL     1      33.196 -23.467 -18.016  0.00  0.00    -0.084 HD
ATOM      3  H   UNL     1      33.817 -22.183 -17.137  0.00  0.00    -0.084 HD
ENDROOT
BRANCH   1   4
ATOM      4  C   UNL     1      31.993 -22.811 -16.515  0.00  0.00    -0.037 C 
BRANCH   4   6
ATOM      5  O   UNL     1      33.888 -23.615 -15.315  0.00  0.00    -0.482 OA
ATOM      6  C   UNL     1      32.658 -22.894 -15.147  0.00  0.00    +0.145 C 
ATOM      7  C   UNL     1      31.743 -23.587 -14.139  0.00  0.00    +0.046 C 
ATOM      8  C   UNL     1      32.422 -23.602 -12.775  0.00  0.00    +0.033 C 
ATOM      9  C   UNL     1      33.857 -24.023 -12.908  0.00  0.00    +0.012 C 
ATOM     10  C   UNL     1      34.503 -23.995 -14.150  0.00  0.00    +0.134 C 
ATOM     11  C   UNL     1      34.575 -24.425 -11.774  0.00  0.00    -0.001 C 
ATOM     12  C   UNL     1      35.835 -24.403 -14.261  0.00  0.00    +0.037 C 
ATOM     13  C   UNL     1      35.909 -24.819 -11.884  0.00  0.00    -0.000 C 
ATOM     14  C   UNL     1      36.537 -24.812 -13.128  0.00  0.00    +0.003 C 
ENDBRANCH   4   6
ENDBRANCH   1   4
BRANCH   1  15
ATOM     15  C   UNL     1      32.475 -21.645 -18.557  0.00  0.00    -0.053 C 
BRANCH  15  17
ATOM     16  N   UNL     1      35.895 -20.181 -19.150  0.00  0.00    -0.243 NA
ATOM     17  C   UNL     1      33.575 -20.799 -19.141  0.00  0.00    -0.025 C 
ATOM     18  C   UNL     1      33.302 -19.902 -20.155  0.00  0.00    -0.003 C 
ATOM     19  C   UNL     1      34.338 -19.135 -20.675  0.00  0.00    +0.019 C 
ATOM     20  C   UNL     1      34.863 -20.910 -18.670  0.00  0.00    +0.092 C 
ATOM     21  C   UNL     1      35.606 -19.310 -20.143  0.00  0.00    +0.099 C 
BRANCH  19  23
ATOM     22  F   UNL     1      33.431 -15.469 -24.778  0.00  0.00    -0.204 F 
ATOM     23  C   UNL     1      34.102 -18.185 -21.737  0.00  0.00    +0.002 C 
ATOM     24  C   UNL     1      33.582 -18.616 -22.959  0.00  0.00    +0.002 C 
ATOM     25  C   UNL     1      34.395 -16.834 -21.546  0.00  0.00    +0.002 C 
ATOM     26  C   UNL     1      33.355 -17.699 -23.986  0.00  0.00    +0.030 C 
ATOM     27  C   UNL     1      34.168 -15.916 -22.573  0.00  0.00    +0.030 C 
ATOM     28  C   UNL     1      33.649 -16.349 -23.792  0.00  0.00    +0.140 C 
ENDBRANCH  19  23
ENDBRANCH  15  17
ENDBRANCH   1  15
TORSDOF 5
ENDMDL
MODEL 5
REMARK VINA RESULT:     -11.4      5.363     11.519
REMARK  Name = 6918388
REMARK  5 active torsions:
REMARK  status: ('A' for Active; 'I' for Inactive)
REMARK    1  A    between atoms: N_1  and  C_4
REMARK    2  A    between atoms: N_1  and  C_15
REMARK    3  A    between atoms: C_4  and  C_6
REMARK    4  A    between atoms: C_15  and  C_17
REMARK    5  A    between atoms: C_19  and  C_23
REMARK                            x       y       z     vdW  Elec       q    Type
REMARK                         _______ _______ _______ _____ _____    ______ ____
ROOT
ATOM      1  N   UNL     1      34.359 -19.807 -19.531  0.00  0.00    +0.389 N 
ATOM      2  H   UNL     1      33.595 -19.574 -20.164  0.00  0.00    -0.084 HD
ATOM      3  H   UNL     1      34.203 -19.391 -18.613  0.00  0.00    -0.084 HD
ENDROOT
BRANCH   1   4
ATOM      4  C   UNL     1      35.604 -19.281 -20.073  0.00  0.00    -0.037 C 
BRANCH   4   6
ATOM      5  O   UNL     1      34.632 -17.107 -20.184  0.00  0.00    -0.482 OA
ATOM      6  C   UNL     1      35.343 -18.076 -20.969  0.00  0.00    +0.145 C 
ATOM      7  C   UNL     1      34.544 -18.482 -22.207  0.00  0.00    +0.046 C 
ATOM      8  C   UNL     1      34.352 -17.262 -23.099  0.00  0.00    +0.033 C 
ATOM      9  C   UNL     1      33.930 -16.074 -22.282  0.00  0.00    +0.012 C 
ATOM     10  C   UNL     1      34.102 -16.060 -20.892  0.00  0.00    +0.134 C 
ATOM     11  C   UNL     1      33.382 -14.951 -22.914  0.00  0.00    -0.001 C 
ATOM     12  C   UNL     1      33.693 -14.953 -20.143  0.00  0.00    +0.037 C 
ATOM     13  C   UNL     1      32.986 -13.841 -22.166  0.00  0.00    -0.000 C 
ATOM     14  C   UNL     1      33.138 -13.845 -20.781  0.00  0.00    +0.003 C 
ENDBRANCH   4   6
ENDBRANCH   1   4
BRANCH   1  15
ATOM     15  C   UNL     1      34.427 -21.254 -19.379  0.00  0.00    -0.053 C 
BRANCH  15  17
ATOM     16  N   UNL     1      35.921 -21.891 -15.979  0.00  0.00    -0.243 NA
ATOM     17  C   UNL     1      34.546 -21.662 -17.935  0.00  0.00    -0.025 C 
ATOM     18  C   UNL     1      33.450 -22.159 -17.257  0.00  0.00    -0.003 C 
ATOM     19  C   UNL     1      33.589 -22.527 -15.924  0.00  0.00    +0.019 C 
ATOM     20  C   UNL     1      35.747 -21.544 -17.274  0.00  0.00    +0.092 C 
ATOM     21  C   UNL     1      34.835 -22.375 -15.336  0.00  0.00    +0.099 C 
BRANCH  19  23
ATOM     22  F   UNL     1      29.278 -24.558 -13.029  0.00  0.00    -0.204 F 
ATOM     23  C   UNL     1      32.472 -23.052 -15.175  0.00  0.00    +0.002 C 
ATOM     24  C   UNL     1      32.688 -23.690 -13.952  0.00  0.00    +0.002 C 
ATOM     25  C   UNL     1      31.174 -22.925 -15.670  0.00  0.00    +0.002 C 
ATOM     26  C   UNL     1      31.610 -24.199 -13.228  0.00  0.00    +0.030 C 
ATOM     27  C   UNL     1      30.095 -23.433 -14.946  0.00  0.00    +0.030 C 
ATOM     28  C   UNL     1      30.314 -24.070 -13.725  0.00  0.00    +0.140 C 
ENDBRANCH  19  23
ENDBRANCH  15  17
ENDBRANCH   1  15
TORSDOF 5
ENDMDL
MODEL 6
REMARK VINA RESULT:     -11.4      5.413     11.573
REMARK  Name = 6918388
REMARK  5 active torsions:
REMARK  status: ('A' for Active; 'I' for Inactive)
REMARK    1  A    between atoms: N_1  and  C_4
REMARK    2  A    between atoms: N_1  and  C_15
REMARK    3  A    between atoms: C_4  and  C_6
REMARK    4  A    between atoms: C_15  and  C_17
REMARK    5  A    between atoms: C_19  and  C_23
REMARK                            x       y       z     vdW  Elec       q    Type
REMARK                         _______ _______ _______ _____ _____    ______ ____
ROOT
ATOM      1  N   UNL     1      34.634 -19.730 -19.858  0.00  0.00    +0.389 N 
ATOM      2  H   UNL     1      34.074 -20.116 -20.616  0.00  0.00    -0.084 HD
ATOM      3  H   UNL     1      34.060 -19.144 -19.252  0.00  0.00    -0.084 HD
ENDROOT
BRANCH   1   4
ATOM      4  C   UNL     1      35.698 -18.911 -20.421  0.00  0.00    -0.037 C 
BRANCH   4   6
ATOM      5  O   UNL     1      34.769 -16.899 -21.299  0.00  0.00    -0.482 OA
ATOM      6  C   UNL     1      35.230 -18.202 -21.686  0.00  0.00    +0.145 C 
ATOM      7  C   UNL     1      34.126 -18.999 -22.379  0.00  0.00    +0.046 C 
ATOM      8  C   UNL     1      33.725 -18.285 -23.664  0.00  0.00    +0.033 C 
ATOM      9  C   UNL     1      33.556 -16.814 -23.416  0.00  0.00    +0.012 C 
ATOM     10  C   UNL     1      34.089 -16.211 -22.270  0.00  0.00    +0.134 C 
ATOM     11  C   UNL     1      32.879 -16.021 -24.352  0.00  0.00    -0.001 C 
ATOM     12  C   UNL     1      33.911 -14.843 -22.046  0.00  0.00    +0.037 C 
ATOM     13  C   UNL     1      32.714 -14.653 -24.133  0.00  0.00    -0.000 C 
ATOM     14  C   UNL     1      33.227 -14.066 -22.979  0.00  0.00    +0.003 C 
ENDBRANCH   4   6
ENDBRANCH   1   4
BRANCH   1  15
ATOM     15  C   UNL     1      35.181 -20.822 -19.064  0.00  0.00    -0.053 C 
BRANCH  15  17
ATOM     16  N   UNL     1      31.843 -22.169 -17.953  0.00  0.00    -0.243 NA
ATOM     17  C   UNL     1      34.128 -21.479 -18.212  0.00  0.00    -0.025 C 
ATOM     18  C   UNL     1      34.450 -21.975 -16.964  0.00  0.00    -0.003 C 
ATOM     19  C   UNL     1      33.457 -22.577 -16.200  0.00  0.00    +0.019 C 
ATOM     20  C   UNL     1      32.834 -21.591 -18.667  0.00  0.00    +0.092 C 
ATOM     21  C   UNL     1      32.180 -22.649 -16.735  0.00  0.00    +0.099 C 
BRANCH  19  23
ATOM     22  F   UNL     1      34.572 -24.647 -11.144  0.00  0.00    -0.204 F 
ATOM     23  C   UNL     1      33.745 -23.112 -14.890  0.00  0.00    +0.002 C 
ATOM     24  C   UNL     1      35.065 -23.372 -14.515  0.00  0.00    +0.002 C 
ATOM     25  C   UNL     1      32.706 -23.373 -13.995  0.00  0.00    +0.002 C 
ATOM     26  C   UNL     1      35.344 -23.890 -13.250  0.00  0.00    +0.030 C 
ATOM     27  C   UNL     1      32.986 -23.891 -12.730  0.00  0.00    +0.030 C 
ATOM     28  C   UNL     1      34.304 -24.150 -12.358  0.00  0.00    +0.140 C 
ENDBRANCH  19  23
ENDBRANCH  15  17
ENDBRANCH   1  15
TORSDOF 5
ENDMDL
MODEL 7
REMARK VINA RESULT:     -11.4      7.242     12.413
REMARK  Name = 6918388
REMARK  5 active torsions:
REMARK  status: ('A' for Active; 'I' for Inactive)
REMARK    1  A    between atoms: N_1  and  C_4
REMARK    2  A    between atoms: N_1  and  C_15
REMARK    3  A    between atoms: C_4  and  C_6
REMARK    4  A    between atoms: C_15  and  C_17
REMARK    5  A    between atoms: C_19  and  C_23
REMARK                            x       y       z     vdW  Elec       q    Type
REMARK                         _______ _______ _______ _____ _____    ______ ____
ROOT
ATOM      1  N   UNL     1      35.088 -21.733 -15.866  0.00  0.00    +0.389 N 
ATOM      2  H   UNL     1      34.170 -21.945 -16.257  0.00  0.00    -0.084 HD
ATOM      3  H   UNL     1      35.068 -20.842 -15.371  0.00  0.00    -0.084 HD
ENDROOT
BRANCH   1   4
ATOM      4  C   UNL     1      36.057 -21.640 -16.949  0.00  0.00    -0.037 C 
BRANCH   4   6
ATOM      5  O   UNL     1      35.937 -20.111 -18.772  0.00  0.00    -0.482 OA
ATOM      6  C   UNL     1      35.370 -21.331 -18.272  0.00  0.00    +0.145 C 
ATOM      7  C   UNL     1      33.859 -21.203 -18.084  0.00  0.00    +0.046 C 
ATOM      8  C   UNL     1      33.206 -20.948 -19.436  0.00  0.00    +0.033 C 
ATOM      9  C   UNL     1      33.965 -19.898 -20.196  0.00  0.00    +0.012 C 
ATOM     10  C   UNL     1      35.273 -19.552 -19.833  0.00  0.00    +0.134 C 
ATOM     11  C   UNL     1      33.374 -19.270 -21.300  0.00  0.00    -0.001 C 
ATOM     12  C   UNL     1      35.962 -18.563 -20.541  0.00  0.00    +0.037 C 
ATOM     13  C   UNL     1      34.069 -18.293 -22.014  0.00  0.00    -0.000 C 
ATOM     14  C   UNL     1      35.360 -17.937 -21.631  0.00  0.00    +0.003 C 
ENDBRANCH   4   6
ENDBRANCH   1   4
BRANCH   1  15
ATOM     15  C   UNL     1      35.457 -22.780 -14.923  0.00  0.00    -0.053 C 
BRANCH  15  17
ATOM     16  N   UNL     1      33.486 -24.046 -11.972  0.00  0.00    -0.243 NA
ATOM     17  C   UNL     1      34.290 -23.210 -14.075  0.00  0.00    -0.025 C 
ATOM     18  C   UNL     1      33.007 -23.171 -14.583  0.00  0.00    -0.003 C 
ATOM     19  C   UNL     1      31.948 -23.574 -13.777  0.00  0.00    +0.019 C 
ATOM     20  C   UNL     1      34.489 -23.647 -12.786  0.00  0.00    +0.092 C 
ATOM     21  C   UNL     1      32.239 -23.999 -12.490  0.00  0.00    +0.099 C 
BRANCH  19  23
ATOM     22  F   UNL     1      26.699 -23.478 -15.655  0.00  0.00    -0.204 F 
ATOM     23  C   UNL     1      30.589 -23.550 -14.264  0.00  0.00    +0.002 C 
ATOM     24  C   UNL     1      30.197 -22.589 -15.198  0.00  0.00    +0.002 C 
ATOM     25  C   UNL     1      29.662 -24.485 -13.801  0.00  0.00    +0.002 C 
ATOM     26  C   UNL     1      28.883 -22.565 -15.668  0.00  0.00    +0.030 C 
ATOM     27  C   UNL     1      28.348 -24.461 -14.270  0.00  0.00    +0.030 C 
ATOM     28  C   UNL     1      27.960 -23.501 -15.203  0.00  0.00    +0.140 C 
ENDBRANCH  19  23
ENDBRANCH  15  17
ENDBRANCH   1  15
TORSDOF 5
ENDMDL
MODEL 8
REMARK VINA RESULT:     -11.2      4.034      9.677
REMARK  Name = 6918388
REMARK  5 active torsions:
REMARK  status: ('A' for Active; 'I' for Inactive)
REMARK    1  A    between atoms: N_1  and  C_4
REMARK    2  A    between atoms: N_1  and  C_15
REMARK    3  A    between atoms: C_4  and  C_6
REMARK    4  A    between atoms: C_15  and  C_17
REMARK    5  A    between atoms: C_19  and  C_23
REMARK                            x       y       z     vdW  Elec       q    Type
REMARK                         _______ _______ _______ _____ _____    ______ ____
ROOT
ATOM      1  N   UNL     1      34.525 -16.272 -23.392  0.00  0.00    +0.389 N 
ATOM      2  H   UNL     1      34.846 -15.818 -22.538  0.00  0.00    -0.084 HD
ATOM      3  H   UNL     1      35.313 -16.475 -24.006  0.00  0.00    -0.084 HD
ENDROOT
BRANCH   1   4
ATOM      4  C   UNL     1      33.609 -15.382 -24.091  0.00  0.00    -0.037 C 
BRANCH   4   6
ATOM      5  O   UNL     1      32.582 -14.333 -22.213  0.00  0.00    -0.482 OA
ATOM      6  C   UNL     1      33.439 -14.071 -23.334  0.00  0.00    +0.145 C 
ATOM      7  C   UNL     1      32.851 -12.992 -24.242  0.00  0.00    +0.046 C 
ATOM      8  C   UNL     1      32.747 -11.686 -23.464  0.00  0.00    +0.033 C 
ATOM      9  C   UNL     1      32.164 -11.930 -22.102  0.00  0.00    +0.012 C 
ATOM     10  C   UNL     1      32.125 -13.220 -21.557  0.00  0.00    +0.134 C 
ATOM     11  C   UNL     1      31.673 -10.855 -21.349  0.00  0.00    -0.001 C 
ATOM     12  C   UNL     1      31.566 -13.434 -20.294  0.00  0.00    +0.037 C 
ATOM     13  C   UNL     1      31.128 -11.069 -20.083  0.00  0.00    -0.000 C 
ATOM     14  C   UNL     1      31.071 -12.359 -19.558  0.00  0.00    +0.003 C 
ENDBRANCH   4   6
ENDBRANCH   1   4
BRANCH   1  15
ATOM     15  C   UNL     1      33.871 -17.528 -23.047  0.00  0.00    -0.053 C 
BRANCH  15  17
ATOM     16  N   UNL     1      36.617 -18.660 -20.729  0.00  0.00    -0.243 NA
ATOM     17  C   UNL     1      34.576 -18.237 -21.922  0.00  0.00    -0.025 C 
ATOM     18  C   UNL     1      33.876 -19.081 -21.082  0.00  0.00    -0.003 C 
ATOM     19  C   UNL     1      34.553 -19.723 -20.051  0.00  0.00    +0.019 C 
ATOM     20  C   UNL     1      35.925 -18.054 -21.719  0.00  0.00    +0.092 C 
ATOM     21  C   UNL     1      35.912 -19.481 -19.918  0.00  0.00    +0.099 C 
BRANCH  19  23
ATOM     22  F   UNL     1      31.891 -23.157 -16.558  0.00  0.00    -0.204 F 
ATOM     23  C   UNL     1      33.865 -20.613 -19.147  0.00  0.00    +0.002 C 
ATOM     24  C   UNL     1      32.469 -20.668 -19.147  0.00  0.00    +0.002 C 
ATOM     25  C   UNL     1      34.590 -21.420 -18.269  0.00  0.00    +0.002 C 
ATOM     26  C   UNL     1      31.803 -21.527 -18.272  0.00  0.00    +0.030 C 
ATOM     27  C   UNL     1      33.924 -22.279 -17.395  0.00  0.00    +0.030 C 
ATOM     28  C   UNL     1      32.531 -22.332 -17.397  0.00  0.00    +0.140 C 
ENDBRANCH  19  23
ENDBRANCH  15  17
ENDBRANCH   1  15
TORSDOF 5
ENDMDL
MODEL 9
REMARK VINA RESULT:     -11.2      4.548      7.820
REMARK  Name = 6918388
REMARK  5 active torsions:
REMARK  status: ('A' for Active; 'I' for Inactive)
REMARK    1  A    between atoms: N_1  and  C_4
REMARK    2  A    between atoms: N_1  and  C_15
REMARK    3  A    between atoms: C_4  and  C_6
REMARK    4  A    between atoms: C_15  and  C_17
REMARK    5  A    between atoms: C_19  and  C_23
REMARK                            x       y       z     vdW  Elec       q    Type
REMARK                         _______ _______ _______ _____ _____    ______ ____
ROOT
ATOM      1  N   UNL     1      33.220 -22.402 -18.318  0.00  0.00    +0.389 N 
ATOM      2  H   UNL     1      32.527 -23.149 -18.338  0.00  0.00    -0.084 HD
ATOM      3  H   UNL     1      34.054 -22.676 -18.837  0.00  0.00    -0.084 HD
ENDROOT
BRANCH   1   4
ATOM      4  C   UNL     1      33.598 -22.139 -16.937  0.00  0.00    -0.037 C 
BRANCH   4   6
ATOM      5  O   UNL     1      31.505 -22.802 -16.009  0.00  0.00    -0.482 OA
ATOM      6  C   UNL     1      32.907 -23.110 -15.988  0.00  0.00    +0.145 C 
ATOM      7  C   UNL     1      33.480 -22.990 -14.576  0.00  0.00    +0.046 C 
ATOM      8  C   UNL     1      32.801 -24.012 -13.673  0.00  0.00    +0.033 C 
ATOM      9  C   UNL     1      31.315 -24.000 -13.891  0.00  0.00    +0.012 C 
ATOM     10  C   UNL     1      30.760 -23.414 -15.036  0.00  0.00    +0.134 C 
ATOM     11  C   UNL     1      30.467 -24.605 -12.954  0.00  0.00    -0.001 C 
ATOM     12  C   UNL     1      29.375 -23.398 -15.218  0.00  0.00    +0.037 C 
ATOM     13  C   UNL     1      29.084 -24.600 -13.144  0.00  0.00    -0.000 C 
ATOM     14  C   UNL     1      28.539 -23.993 -14.273  0.00  0.00    +0.003 C 
ENDBRANCH   4   6
ENDBRANCH   1   4
BRANCH   1  15
ATOM     15  C   UNL     1      32.656 -21.212 -18.941  0.00  0.00    -0.053 C 
BRANCH  15  17
ATOM     16  N   UNL     1      36.035 -19.692 -19.627  0.00  0.00    -0.243 NA
ATOM     17  C   UNL     1      33.722 -20.333 -19.539  0.00  0.00    -0.025 C 
ATOM     18  C   UNL     1      33.397 -19.401 -20.505  0.00  0.00    -0.003 C 
ATOM     19  C   UNL     1      34.402 -18.604 -21.040  0.00  0.00    +0.019 C 
ATOM     20  C   UNL     1      35.031 -20.449 -19.131  0.00  0.00    +0.092 C 
ATOM     21  C   UNL     1      35.694 -18.787 -20.572  0.00  0.00    +0.099 C 
BRANCH  19  23
ATOM     22  F   UNL     1      33.283 -14.791 -24.952  0.00  0.00    -0.204 F 
ATOM     23  C   UNL     1      34.111 -17.616 -22.052  0.00  0.00    +0.002 C 
ATOM     24  C   UNL     1      33.639 -18.015 -23.304  0.00  0.00    +0.002 C 
ATOM     25  C   UNL     1      34.303 -16.259 -21.784  0.00  0.00    +0.002 C 
ATOM     26  C   UNL     1      33.360 -17.061 -24.283  0.00  0.00    +0.030 C 
ATOM     27  C   UNL     1      34.024 -15.306 -22.763  0.00  0.00    +0.030 C 
ATOM     28  C   UNL     1      33.552 -15.707 -24.012  0.00  0.00    +0.140 C 
ENDBRANCH  19  23
ENDBRANCH  15  17
ENDBRANCH   1  15
TORSDOF 5
ENDMDL
