MODEL 1
REMARK VINA RESULT:     -12.8      0.000      0.000
REMARK  Name = 5287728
REMARK  9 active torsions:
REMARK  status: ('A' for Active; 'I' for Inactive)
REMARK    1  A    between atoms: S_1  and  N_4
REMARK    2  A    between atoms: S_1  and  N_22
REMARK    3  A    between atoms: C_5  and  N_10
REMARK    4  A    between atoms: N_10  and  C_13
REMARK    5  A    between atoms: C_13  and  C_14
REMARK    6  A    between atoms: C_15  and  O_20
REMARK    7  A    between atoms: N_22  and  C_24
REMARK    8  A    between atoms: C_27  and  O_30
REMARK    9  A    between atoms: O_30  and  C_32
REMARK                            x       y       z     vdW  Elec       q    Type
REMARK                         _______ _______ _______ _____ _____    ______ ____
ROOT
ATOM      1  S   UNL     1      35.220 -18.485 -20.517  0.00  0.00    +0.113 S 
ATOM      2  O   UNL     1      34.759 -17.186 -20.062  0.00  0.00    -0.138 OA
ATOM      3  O   UNL     1      36.642 -18.762 -20.610  0.00  0.00    -0.138 OA
ENDROOT
BRANCH   1   4
ATOM      4  N   UNL     1      34.495 -19.683 -19.527  0.00  0.00    -0.143 NA
ATOM      5  C   UNL     1      33.356 -22.107 -18.396  0.00  0.00    -0.059 C 
ATOM      6  C   UNL     1      32.480 -20.936 -18.852  0.00  0.00    -0.002 C 
ATOM      7  C   UNL     1      34.749 -21.605 -18.002  0.00  0.00    -0.002 C 
ATOM      8  C   UNL     1      33.153 -20.155 -19.978  0.00  0.00    +0.095 C 
ATOM      9  C   UNL     1      35.388 -20.814 -19.139  0.00  0.00    +0.095 C 
BRANCH   5  10
ATOM     10  N   UNL     1      32.731 -22.790 -17.266  0.00  0.00    +0.388 N 
ATOM     11  H   UNL     1      33.339 -22.713 -16.450  0.00  0.00    -0.084 HD
ATOM     12  H   UNL     1      32.588 -23.769 -17.512  0.00  0.00    -0.084 HD
BRANCH  10  13
ATOM     13  C   UNL     1      31.439 -22.194 -16.954  0.00  0.00    -0.051 C 
BRANCH  13  14
ATOM     14  C   UNL     1      30.930 -22.634 -15.608  0.00  0.00    -0.010 C 
ATOM     15  C   UNL     1      29.567 -22.634 -15.339  0.00  0.00    +0.128 C 
ATOM     16  C   UNL     1      31.846 -23.038 -14.644  0.00  0.00    -0.003 C 
ATOM     17  C   UNL     1      29.112 -23.045 -14.087  0.00  0.00    +0.036 C 
ATOM     18  C   UNL     1      31.390 -23.448 -13.391  0.00  0.00    -0.000 C 
ATOM     19  C   UNL     1      30.024 -23.451 -13.113  0.00  0.00    +0.003 C 
BRANCH  15  20
ATOM     20  O   UNL     1      28.663 -22.240 -16.280  0.00  0.00    -0.506 OA
ATOM     21  H   UNL     1      28.052 -21.556 -16.086  0.00  0.00    +0.292 HD
ENDBRANCH  15  20
ENDBRANCH  13  14
ENDBRANCH  10  13
ENDBRANCH   5  10
ENDBRANCH   1   4
BRANCH   1  22
ATOM     22  N   UNL     1      34.453 -18.812 -22.029  0.00  0.00    -0.205 N 
ATOM     23  H   UNL     1      34.354 -19.730 -22.370  0.00  0.00    +0.175 HD
BRANCH  22  24
ATOM     24  C   UNL     1      33.964 -17.677 -22.767  0.00  0.00    +0.069 C 
ATOM     25  C   UNL     1      34.269 -16.392 -22.333  0.00  0.00    +0.053 C 
ATOM     26  C   UNL     1      33.193 -17.879 -23.905  0.00  0.00    +0.016 C 
ATOM     27  C   UNL     1      33.794 -15.293 -23.049  0.00  0.00    +0.147 C 
ATOM     28  C   UNL     1      32.718 -16.780 -24.620  0.00  0.00    +0.004 C 
ATOM     29  C   UNL     1      33.019 -15.488 -24.193  0.00  0.00    +0.038 C 
BRANCH  27  30
ATOM     30  O   UNL     1      34.086 -14.031 -22.631  0.00  0.00    -0.453 OA
BRANCH  30  32
ATOM     31  F   UNL     1      30.237 -11.323 -19.803  0.00  0.00    -0.204 F 
ATOM     32  C   UNL     1      33.115 -13.348 -21.918  0.00  0.00    +0.145 C 
ATOM     33  C   UNL     1      32.609 -12.167 -22.430  0.00  0.00    +0.040 C 
ATOM     34  C   UNL     1      32.676 -13.865 -20.712  0.00  0.00    +0.040 C 
ATOM     35  C   UNL     1      31.631 -11.479 -21.711  0.00  0.00    +0.033 C 
ATOM     36  C   UNL     1      31.699 -13.177 -19.993  0.00  0.00    +0.033 C 
ATOM     37  C   UNL     1      31.177 -11.984 -20.493  0.00  0.00    +0.140 C 
ENDBRANCH  30  32
ENDBRANCH  27  30
ENDBRANCH  22  24
ENDBRANCH   1  22
TORSDOF 9
ENDMDL
MODEL 2
REMARK VINA RESULT:     -12.5      3.287     10.511
REMARK  Name = 5287728
REMARK  9 active torsions:
REMARK  status: ('A' for Active; 'I' for Inactive)
REMARK    1  A    between atoms: S_1  and  N_4
REMARK    2  A    between atoms: S_1  and  N_22
REMARK    3  A    between atoms: C_5  and  N_10
REMARK    4  A    between atoms: N_10  and  C_13
REMARK    5  A    between atoms: C_13  and  C_14
REMARK    6  A    between atoms: C_15  and  O_20
REMARK    7  A    between atoms: N_22  and  C_24
REMARK    8  A    between atoms: C_27  and  O_30
REMARK    9  A    between atoms: O_30  and  C_32
REMARK                            x       y       z     vdW  Elec       q    Type
REMARK                         _______ _______ _______ _____ _____    ______ ____
ROOT
ATOM      1  S   UNL     1      32.665 -22.552 -17.524  0.00  0.00    +0.113 S 
ATOM      2  O   UNL     1      31.435 -22.068 -16.924  0.00  0.00    -0.138 OA
ATOM      3  O   UNL     1      32.750 -23.919 -18.007  0.00  0.00    -0.138 OA
ENDROOT
BRANCH   1   4
ATOM      4  N   UNL     1      33.083 -21.494 -18.807  0.00  0.00    -0.143 NA
ATOM      5  C   UNL     1      33.812 -19.234 -20.485  0.00  0.00    -0.059 C 
ATOM      6  C   UNL     1      32.393 -19.811 -20.473  0.00  0.00    -0.002 C 
ATOM      7  C   UNL     1      34.827 -20.314 -20.093  0.00  0.00    -0.002 C 
ATOM      8  C   UNL     1      32.070 -20.444 -19.121  0.00  0.00    +0.095 C 
ATOM      9  C   UNL     1      34.468 -20.940 -18.748  0.00  0.00    +0.095 C 
BRANCH   5  10
ATOM     10  N   UNL     1      34.127 -18.707 -21.810  0.00  0.00    +0.388 N 
ATOM     11  H   UNL     1      33.259 -18.548 -22.322  0.00  0.00    -0.084 HD
ATOM     12  H   UNL     1      34.711 -19.384 -22.302  0.00  0.00    -0.084 HD
BRANCH  10  13
ATOM     13  C   UNL     1      34.856 -17.451 -21.706  0.00  0.00    -0.051 C 
BRANCH  13  14
ATOM     14  C   UNL     1      34.090 -16.307 -22.315  0.00  0.00    -0.010 C 
ATOM     15  C   UNL     1      33.613 -16.396 -23.616  0.00  0.00    +0.128 C 
ATOM     16  C   UNL     1      33.873 -15.166 -21.553  0.00  0.00    -0.003 C 
ATOM     17  C   UNL     1      32.906 -15.327 -24.165  0.00  0.00    +0.036 C 
ATOM     18  C   UNL     1      33.166 -14.096 -22.103  0.00  0.00    -0.000 C 
ATOM     19  C   UNL     1      32.683 -14.177 -23.407  0.00  0.00    +0.003 C 
BRANCH  15  20
ATOM     20  O   UNL     1      33.822 -17.513 -24.369  0.00  0.00    -0.506 OA
ATOM     21  H   UNL     1      33.705 -17.480 -25.298  0.00  0.00    +0.292 HD
ENDBRANCH  15  20
ENDBRANCH  13  14
ENDBRANCH  10  13
ENDBRANCH   5  10
ENDBRANCH   1   4
BRANCH   1  22
ATOM     22  N   UNL     1      33.948 -22.234 -16.415  0.00  0.00    -0.205 N 
ATOM     23  H   UNL     1      34.691 -21.630 -16.644  0.00  0.00    +0.175 HD
BRANCH  22  24
ATOM     24  C   UNL     1      33.881 -22.895 -15.137  0.00  0.00    +0.069 C 
ATOM     25  C   UNL     1      32.670 -22.952 -14.457  0.00  0.00    +0.053 C 
ATOM     26  C   UNL     1      35.027 -23.467 -14.599  0.00  0.00    +0.016 C 
ATOM     27  C   UNL     1      32.607 -23.591 -13.219  0.00  0.00    +0.147 C 
ATOM     28  C   UNL     1      34.962 -24.106 -13.361  0.00  0.00    +0.004 C 
ATOM     29  C   UNL     1      33.752 -24.168 -12.672  0.00  0.00    +0.038 C 
BRANCH  27  30
ATOM     30  O   UNL     1      31.426 -23.651 -12.545  0.00  0.00    -0.453 OA
BRANCH  30  32
ATOM     31  F   UNL     1      26.798 -23.689 -15.499  0.00  0.00    -0.204 F 
ATOM     32  C   UNL     1      30.258 -23.660 -13.290  0.00  0.00    +0.145 C 
ATOM     33  C   UNL     1      29.762 -22.466 -13.780  0.00  0.00    +0.040 C 
ATOM     34  C   UNL     1      29.620 -24.864 -13.526  0.00  0.00    +0.040 C 
ATOM     35  C   UNL     1      28.587 -22.476 -14.531  0.00  0.00    +0.033 C 
ATOM     36  C   UNL     1      28.443 -24.874 -14.275  0.00  0.00    +0.033 C 
ATOM     37  C   UNL     1      27.927 -23.680 -14.778  0.00  0.00    +0.140 C 
ENDBRANCH  30  32
ENDBRANCH  27  30
ENDBRANCH  22  24
ENDBRANCH   1  22
TORSDOF 9
ENDMDL
MODEL 3
REMARK VINA RESULT:     -12.2      3.887     10.693
REMARK  Name = 5287728
REMARK  9 active torsions:
REMARK  status: ('A' for Active; 'I' for Inactive)
REMARK    1  A    between atoms: S_1  and  N_4
REMARK    2  A    between atoms: S_1  and  N_22
REMARK    3  A    between atoms: C_5  and  N_10
REMARK    4  A    between atoms: N_10  and  C_13
REMARK    5  A    between atoms: C_13  and  C_14
REMARK    6  A    between atoms: C_15  and  O_20
REMARK    7  A    between atoms: N_22  and  C_24
REMARK    8  A    between atoms: C_27  and  O_30
REMARK    9  A    between atoms: O_30  and  C_32
REMARK                            x       y       z     vdW  Elec       q    Type
REMARK                         _______ _______ _______ _____ _____    ______ ____
ROOT
ATOM      1  S   UNL     1      32.974 -22.789 -17.522  0.00  0.00    +0.113 S 
ATOM      2  O   UNL     1      32.693 -24.059 -18.166  0.00  0.00    -0.138 OA
ATOM      3  O   UNL     1      34.038 -22.690 -16.540  0.00  0.00    -0.138 OA
ENDROOT
BRANCH   1   4
ATOM      4  N   UNL     1      33.253 -21.622 -18.748  0.00  0.00    -0.143 NA
ATOM      5  C   UNL     1      33.735 -19.211 -20.300  0.00  0.00    -0.059 C 
ATOM      6  C   UNL     1      32.365 -19.896 -20.269  0.00  0.00    -0.002 C 
ATOM      7  C   UNL     1      34.844 -20.232 -20.022  0.00  0.00    -0.002 C 
ATOM      8  C   UNL     1      32.152 -20.636 -18.951  0.00  0.00    +0.095 C 
ATOM      9  C   UNL     1      34.594 -20.967 -18.709  0.00  0.00    +0.095 C 
BRANCH   5  10
ATOM     10  N   UNL     1      33.950 -18.579 -21.599  0.00  0.00    +0.388 N 
ATOM     11  H   UNL     1      33.065 -18.200 -21.938  0.00  0.00    -0.084 HD
ATOM     12  H   UNL     1      34.309 -19.278 -22.249  0.00  0.00    -0.084 HD
BRANCH  10  13
ATOM     13  C   UNL     1      34.920 -17.499 -21.493  0.00  0.00    -0.051 C 
BRANCH  13  14
ATOM     14  C   UNL     1      34.273 -16.148 -21.640  0.00  0.00    -0.010 C 
ATOM     15  C   UNL     1      34.071 -15.600 -22.901  0.00  0.00    +0.128 C 
ATOM     16  C   UNL     1      33.885 -15.463 -20.495  0.00  0.00    -0.003 C 
ATOM     17  C   UNL     1      33.470 -14.348 -23.019  0.00  0.00    +0.036 C 
ATOM     18  C   UNL     1      33.285 -14.209 -20.614  0.00  0.00    -0.000 C 
ATOM     19  C   UNL     1      33.077 -13.652 -21.875  0.00  0.00    +0.003 C 
BRANCH  15  20
ATOM     20  O   UNL     1      34.449 -16.267 -24.028  0.00  0.00    -0.506 OA
ATOM     21  H   UNL     1      34.675 -17.175 -23.981  0.00  0.00    +0.292 HD
ENDBRANCH  15  20
ENDBRANCH  13  14
ENDBRANCH  10  13
ENDBRANCH   5  10
ENDBRANCH   1   4
BRANCH   1  22
ATOM     22  N   UNL     1      31.495 -22.203 -16.854  0.00  0.00    -0.205 N 
ATOM     23  H   UNL     1      30.944 -21.535 -17.324  0.00  0.00    +0.175 HD
BRANCH  22  24
ATOM     24  C   UNL     1      31.102 -22.739 -15.576  0.00  0.00    +0.069 C 
ATOM     25  C   UNL     1      32.075 -23.030 -14.627  0.00  0.00    +0.053 C 
ATOM     26  C   UNL     1      29.757 -22.958 -15.308  0.00  0.00    +0.016 C 
ATOM     27  C   UNL     1      31.694 -23.550 -13.390  0.00  0.00    +0.147 C 
ATOM     28  C   UNL     1      29.377 -23.477 -14.070  0.00  0.00    +0.004 C 
ATOM     29  C   UNL     1      30.345 -23.772 -13.112  0.00  0.00    +0.038 C 
BRANCH  27  30
ATOM     30  O   UNL     1      32.639 -23.840 -12.454  0.00  0.00    -0.453 OA
BRANCH  30  32
ATOM     31  F   UNL     1      37.850 -24.245 -14.134  0.00  0.00    -0.204 F 
ATOM     32  C   UNL     1      33.954 -23.942 -12.878  0.00  0.00    +0.145 C 
ATOM     33  C   UNL     1      34.900 -23.082 -12.351  0.00  0.00    +0.040 C 
ATOM     34  C   UNL     1      34.286 -24.902 -13.816  0.00  0.00    +0.040 C 
ATOM     35  C   UNL     1      36.224 -23.185 -12.778  0.00  0.00    +0.033 C 
ATOM     36  C   UNL     1      35.610 -25.005 -14.244  0.00  0.00    +0.033 C 
ATOM     37  C   UNL     1      36.579 -24.146 -13.724  0.00  0.00    +0.140 C 
ENDBRANCH  30  32
ENDBRANCH  27  30
ENDBRANCH  22  24
ENDBRANCH   1  22
TORSDOF 9
ENDMDL
MODEL 4
REMARK VINA RESULT:     -12.1      3.745      6.444
REMARK  Name = 5287728
REMARK  9 active torsions:
REMARK  status: ('A' for Active; 'I' for Inactive)
REMARK    1  A    between atoms: S_1  and  N_4
REMARK    2  A    between atoms: S_1  and  N_22
REMARK    3  A    between atoms: C_5  and  N_10
REMARK    4  A    between atoms: N_10  and  C_13
REMARK    5  A    between atoms: C_13  and  C_14
REMARK    6  A    between atoms: C_15  and  O_20
REMARK    7  A    between atoms: N_22  and  C_24
REMARK    8  A    between atoms: C_27  and  O_30
REMARK    9  A    between atoms: O_30  and  C_32
REMARK                            x       y       z     vdW  Elec       q    Type
REMARK                         _______ _______ _______ _____ _____    ______ ____
ROOT
ATOM      1  S   UNL     1      32.347 -13.364 -23.131  0.00  0.00    +0.113 S 
ATOM      2  O   UNL     1      32.094 -13.472 -24.557  0.00  0.00    -0.138 OA
ATOM      3  O   UNL     1      31.266 -13.024 -22.223  0.00  0.00    -0.138 OA
ENDROOT
BRANCH   1   4
ATOM      4  N   UNL     1      33.059 -14.833 -22.605  0.00  0.00    -0.143 NA
ATOM      5  C   UNL     1      34.847 -16.986 -21.817  0.00  0.00    -0.059 C 
ATOM      6  C   UNL     1      34.111 -16.994 -23.161  0.00  0.00    -0.002 C 
ATOM      7  C   UNL     1      34.062 -16.166 -20.788  0.00  0.00    -0.002 C 
ATOM      8  C   UNL     1      33.836 -15.571 -23.643  0.00  0.00    +0.095 C 
ATOM      9  C   UNL     1      33.787 -14.757 -21.304  0.00  0.00    +0.095 C 
BRANCH   5  10
ATOM     10  N   UNL     1      35.027 -18.354 -21.337  0.00  0.00    +0.388 N 
ATOM     11  H   UNL     1      35.559 -18.336 -20.467  0.00  0.00    -0.084 HD
ATOM     12  H   UNL     1      35.527 -18.888 -22.048  0.00  0.00    -0.084 HD
BRANCH  10  13
ATOM     13  C   UNL     1      33.740 -18.989 -21.097  0.00  0.00    -0.051 C 
BRANCH  13  14
ATOM     14  C   UNL     1      33.812 -19.996 -19.980  0.00  0.00    -0.010 C 
ATOM     15  C   UNL     1      32.650 -20.551 -19.459  0.00  0.00    +0.128 C 
ATOM     16  C   UNL     1      35.059 -20.357 -19.483  0.00  0.00    -0.003 C 
ATOM     17  C   UNL     1      32.735 -21.483 -18.425  0.00  0.00    +0.036 C 
ATOM     18  C   UNL     1      35.143 -21.288 -18.448  0.00  0.00    -0.000 C 
ATOM     19  C   UNL     1      33.982 -21.851 -17.920  0.00  0.00    +0.003 C 
BRANCH  15  20
ATOM     20  O   UNL     1      31.424 -20.202 -19.942  0.00  0.00    -0.506 OA
ATOM     21  H   UNL     1      31.223 -20.332 -20.848  0.00  0.00    +0.292 HD
ENDBRANCH  15  20
ENDBRANCH  13  14
ENDBRANCH  10  13
ENDBRANCH   5  10
ENDBRANCH   1   4
BRANCH   1  22
ATOM     22  N   UNL     1      33.667 -12.273 -22.915  0.00  0.00    -0.205 N 
ATOM     23  H   UNL     1      34.536 -12.577 -22.567  0.00  0.00    +0.175 HD
BRANCH  22  24
ATOM     24  C   UNL     1      33.436 -10.897 -23.269  0.00  0.00    +0.069 C 
ATOM     25  C   UNL     1      32.325 -10.235 -22.761  0.00  0.00    +0.053 C 
ATOM     26  C   UNL     1      34.327 -10.247 -24.114  0.00  0.00    +0.016 C 
ATOM     27  C   UNL     1      32.102  -8.902 -23.105  0.00  0.00    +0.147 C 
ATOM     28  C   UNL     1      34.104  -8.914 -24.457  0.00  0.00    +0.004 C 
ATOM     29  C   UNL     1      32.992  -8.241 -23.952  0.00  0.00    +0.038 C 
BRANCH  27  30
ATOM     30  O   UNL     1      31.015  -8.246 -22.614  0.00  0.00    -0.453 OA
BRANCH  30  32
ATOM     31  F   UNL     1      31.736  -5.064 -18.197  0.00  0.00    -0.204 F 
ATOM     32  C   UNL     1      31.196  -7.443 -21.500  0.00  0.00    +0.145 C 
ATOM     33  C   UNL     1      31.320  -6.075 -21.667  0.00  0.00    +0.040 C 
ATOM     34  C   UNL     1      31.250  -8.030 -20.249  0.00  0.00    +0.040 C 
ATOM     35  C   UNL     1      31.502  -5.268 -20.546  0.00  0.00    +0.033 C 
ATOM     36  C   UNL     1      31.434  -7.222 -19.127  0.00  0.00    +0.033 C 
ATOM     37  C   UNL     1      31.560  -5.841 -19.275  0.00  0.00    +0.140 C 
ENDBRANCH  30  32
ENDBRANCH  27  30
ENDBRANCH  22  24
ENDBRANCH   1  22
TORSDOF 9
ENDMDL
MODEL 5
REMARK VINA RESULT:     -12.1      3.540      6.488
REMARK  Name = 5287728
REMARK  9 active torsions:
REMARK  status: ('A' for Active; 'I' for Inactive)
REMARK    1  A    between atoms: S_1  and  N_4
REMARK    2  A    between atoms: S_1  and  N_22
REMARK    3  A    between atoms: C_5  and  N_10
REMARK    4  A    between atoms: N_10  and  C_13
REMARK    5  A    between atoms: C_13  and  C_14
REMARK    6  A    between atoms: C_15  and  O_20
REMARK    7  A    between atoms: N_22  and  C_24
REMARK    8  A    between atoms: C_27  and  O_30
REMARK    9  A    between atoms: O_30  and  C_32
REMARK                            x       y       z     vdW  Elec       q    Type
REMARK                         _______ _______ _______ _____ _____    ______ ____
ROOT
ATOM      1  S   UNL     1      32.522 -13.240 -22.722  0.00  0.00    +0.113 S 
ATOM      2  O   UNL     1      33.492 -12.228 -22.346  0.00  0.00    -0.138 OA
ATOM      3  O   UNL     1      32.025 -13.302 -24.085  0.00  0.00    -0.138 OA
ENDROOT
BRANCH   1   4
ATOM      4  N   UNL     1      33.165 -14.774 -22.307  0.00  0.00    -0.143 NA
ATOM      5  C   UNL     1      34.853 -17.047 -21.641  0.00  0.00    -0.059 C 
ATOM      6  C   UNL     1      34.194 -16.901 -23.016  0.00  0.00    -0.002 C 
ATOM      7  C   UNL     1      34.031 -16.308 -20.579  0.00  0.00    -0.002 C 
ATOM      8  C   UNL     1      33.982 -15.430 -23.369  0.00  0.00    +0.095 C 
ATOM      9  C   UNL     1      33.821 -14.847 -20.967  0.00  0.00    +0.095 C 
BRANCH   5  10
ATOM     10  N   UNL     1      34.971 -18.460 -21.289  0.00  0.00    +0.388 N 
ATOM     11  H   UNL     1      35.573 -18.552 -20.471  0.00  0.00    -0.084 HD
ATOM     12  H   UNL     1      35.370 -18.963 -22.082  0.00  0.00    -0.084 HD
BRANCH  10  13
ATOM     13  C   UNL     1      33.665 -19.027 -20.986  0.00  0.00    -0.051 C 
BRANCH  13  14
ATOM     14  C   UNL     1      33.742 -20.056 -19.891  0.00  0.00    -0.010 C 
ATOM     15  C   UNL     1      32.582 -20.614 -19.369  0.00  0.00    +0.128 C 
ATOM     16  C   UNL     1      34.991 -20.436 -19.415  0.00  0.00    -0.003 C 
ATOM     17  C   UNL     1      32.671 -21.566 -18.355  0.00  0.00    +0.036 C 
ATOM     18  C   UNL     1      35.080 -21.388 -18.399  0.00  0.00    -0.000 C 
ATOM     19  C   UNL     1      33.921 -21.953 -17.870  0.00  0.00    +0.003 C 
BRANCH  15  20
ATOM     20  O   UNL     1      31.353 -20.247 -19.832  0.00  0.00    -0.506 OA
ATOM     21  H   UNL     1      31.282 -19.713 -20.599  0.00  0.00    +0.292 HD
ENDBRANCH  15  20
ENDBRANCH  13  14
ENDBRANCH  10  13
ENDBRANCH   5  10
ENDBRANCH   1   4
BRANCH   1  22
ATOM     22  N   UNL     1      31.202 -13.135 -21.615  0.00  0.00    -0.205 N 
ATOM     23  H   UNL     1      30.569 -13.880 -21.494  0.00  0.00    +0.175 HD
BRANCH  22  24
ATOM     24  C   UNL     1      31.071 -11.907 -20.875  0.00  0.00    +0.069 C 
ATOM     25  C   UNL     1      30.810 -10.723 -21.553  0.00  0.00    +0.053 C 
ATOM     26  C   UNL     1      31.207 -11.921 -19.492  0.00  0.00    +0.016 C 
ATOM     27  C   UNL     1      30.684  -9.533 -20.835  0.00  0.00    +0.147 C 
ATOM     28  C   UNL     1      31.081 -10.732 -18.776  0.00  0.00    +0.004 C 
ATOM     29  C   UNL     1      30.819  -9.538 -19.447  0.00  0.00    +0.038 C 
BRANCH  27  30
ATOM     30  O   UNL     1      30.430  -8.367 -21.490  0.00  0.00    -0.453 OA
BRANCH  30  32
ATOM     31  F   UNL     1      34.570  -6.023 -24.230  0.00  0.00    -0.204 F 
ATOM     32  C   UNL     1      31.474  -7.776 -22.182  0.00  0.00    +0.145 C 
ATOM     33  C   UNL     1      32.581  -7.333 -21.480  0.00  0.00    +0.040 C 
ATOM     34  C   UNL     1      31.384  -7.645 -23.555  0.00  0.00    +0.040 C 
ATOM     35  C   UNL     1      33.632  -6.738 -22.176  0.00  0.00    +0.033 C 
ATOM     36  C   UNL     1      32.434  -7.048 -24.252  0.00  0.00    +0.033 C 
ATOM     37  C   UNL     1      33.559  -6.595 -23.562  0.00  0.00    +0.140 C 
ENDBRANCH  30  32
ENDBRANCH  27  30
ENDBRANCH  22  24
ENDBRANCH   1  22
TORSDOF 9
ENDMDL
MODEL 6
REMARK VINA RESULT:     -11.8      4.522     11.335
REMARK  Name = 5287728
REMARK  9 active torsions:
REMARK  status: ('A' for Active; 'I' for Inactive)
REMARK    1  A    between atoms: S_1  and  N_4
REMARK    2  A    between atoms: S_1  and  N_22
REMARK    3  A    between atoms: C_5  and  N_10
REMARK    4  A    between atoms: N_10  and  C_13
REMARK    5  A    between atoms: C_13  and  C_14
REMARK    6  A    between atoms: C_15  and  O_20
REMARK    7  A    between atoms: N_22  and  C_24
REMARK    8  A    between atoms: C_27  and  O_30
REMARK    9  A    between atoms: O_30  and  C_32
REMARK                            x       y       z     vdW  Elec       q    Type
REMARK                         _______ _______ _______ _____ _____    ______ ____
ROOT
ATOM      1  S   UNL     1      32.585 -22.426 -17.662  0.00  0.00    +0.113 S 
ATOM      2  O   UNL     1      31.214 -22.039 -17.384  0.00  0.00    -0.138 OA
ATOM      3  O   UNL     1      32.865 -23.680 -18.340  0.00  0.00    -0.138 OA
ENDROOT
BRANCH   1   4
ATOM      4  N   UNL     1      33.329 -21.155 -18.540  0.00  0.00    -0.143 NA
ATOM      5  C   UNL     1      34.580 -19.452 -20.538  0.00  0.00    -0.059 C 
ATOM      6  C   UNL     1      35.384 -20.099 -19.406  0.00  0.00    -0.002 C 
ATOM      7  C   UNL     1      33.120 -19.264 -20.112  0.00  0.00    -0.002 C 
ATOM      8  C   UNL     1      34.740 -21.408 -18.956  0.00  0.00    +0.095 C 
ATOM      9  C   UNL     1      32.510 -20.585 -19.651  0.00  0.00    +0.095 C 
BRANCH   5  10
ATOM     10  N   UNL     1      35.167 -18.163 -20.897  0.00  0.00    +0.388 N 
ATOM     11  H   UNL     1      36.180 -18.215 -20.785  0.00  0.00    -0.084 HD
ATOM     12  H   UNL     1      34.779 -17.445 -20.286  0.00  0.00    -0.084 HD
BRANCH  10  13
ATOM     13  C   UNL     1      34.856 -17.821 -22.277  0.00  0.00    -0.051 C 
BRANCH  13  14
ATOM     14  C   UNL     1      34.202 -16.469 -22.385  0.00  0.00    -0.010 C 
ATOM     15  C   UNL     1      33.700 -16.028 -23.602  0.00  0.00    +0.128 C 
ATOM     16  C   UNL     1      34.111 -15.677 -21.247  0.00  0.00    -0.003 C 
ATOM     17  C   UNL     1      33.097 -14.773 -23.684  0.00  0.00    +0.036 C 
ATOM     18  C   UNL     1      33.509 -14.421 -21.330  0.00  0.00    -0.000 C 
ATOM     19  C   UNL     1      33.002 -13.970 -22.548  0.00  0.00    +0.003 C 
BRANCH  15  20
ATOM     20  O   UNL     1      33.786 -16.800 -24.722  0.00  0.00    -0.506 OA
ATOM     21  H   UNL     1      34.522 -17.368 -24.845  0.00  0.00    +0.292 HD
ENDBRANCH  15  20
ENDBRANCH  13  14
ENDBRANCH  10  13
ENDBRANCH   5  10
ENDBRANCH   1   4
BRANCH   1  22
ATOM     22  N   UNL     1      33.463 -22.347 -16.178  0.00  0.00    -0.205 N 
ATOM     23  H   UNL     1      34.338 -21.900 -16.119  0.00  0.00    +0.175 HD
BRANCH  22  24
ATOM     24  C   UNL     1      32.853 -22.965 -15.029  0.00  0.00    +0.069 C 
ATOM     25  C   UNL     1      33.641 -23.314 -13.939  0.00  0.00    +0.053 C 
ATOM     26  C   UNL     1      31.485 -23.204 -15.024  0.00  0.00    +0.016 C 
ATOM     27  C   UNL     1      33.050 -23.913 -12.827  0.00  0.00    +0.147 C 
ATOM     28  C   UNL     1      30.895 -23.803 -13.912  0.00  0.00    +0.004 C 
ATOM     29  C   UNL     1      31.677 -24.157 -12.814  0.00  0.00    +0.038 C 
BRANCH  27  30
ATOM     30  O   UNL     1      33.814 -24.260 -11.755  0.00  0.00    -0.453 OA
BRANCH  30  32
ATOM     31  F   UNL     1      39.063 -25.575 -12.683  0.00  0.00    -0.204 F 
ATOM     32  C   UNL     1      35.138 -24.592 -11.989  0.00  0.00    +0.145 C 
ATOM     33  C   UNL     1      36.135 -23.876 -11.351  0.00  0.00    +0.040 C 
ATOM     34  C   UNL     1      35.429 -25.630 -12.855  0.00  0.00    +0.040 C 
ATOM     35  C   UNL     1      37.468 -24.210 -11.586  0.00  0.00    +0.033 C 
ATOM     36  C   UNL     1      36.763 -25.964 -13.091  0.00  0.00    +0.033 C 
ATOM     37  C   UNL     1      37.782 -25.254 -12.457  0.00  0.00    +0.140 C 
ENDBRANCH  30  32
ENDBRANCH  27  30
ENDBRANCH  22  24
ENDBRANCH   1  22
TORSDOF 9
ENDMDL
MODEL 7
REMARK VINA RESULT:     -11.8      3.426     10.909
REMARK  Name = 5287728
REMARK  9 active torsions:
REMARK  status: ('A' for Active; 'I' for Inactive)
REMARK    1  A    between atoms: S_1  and  N_4
REMARK    2  A    between atoms: S_1  and  N_22
REMARK    3  A    between atoms: C_5  and  N_10
REMARK    4  A    between atoms: N_10  and  C_13
REMARK    5  A    between atoms: C_13  and  C_14
REMARK    6  A    between atoms: C_15  and  O_20
REMARK    7  A    between atoms: N_22  and  C_24
REMARK    8  A    between atoms: C_27  and  O_30
REMARK    9  A    between atoms: O_30  and  C_32
REMARK                            x       y       z     vdW  Elec       q    Type
REMARK                         _______ _______ _______ _____ _____    ______ ____
ROOT
ATOM      1  S   UNL     1      34.316 -18.368 -22.122  0.00  0.00    +0.113 S 
ATOM      2  O   UNL     1      33.860 -19.340 -23.099  0.00  0.00    -0.138 OA
ATOM      3  O   UNL     1      35.727 -18.274 -21.792  0.00  0.00    -0.138 OA
ENDROOT
BRANCH   1   4
ATOM      4  N   UNL     1      33.769 -16.820 -22.617  0.00  0.00    -0.143 NA
ATOM      5  C   UNL     1      33.505 -14.076 -23.543  0.00  0.00    -0.059 C 
ATOM      6  C   UNL     1      33.329 -14.455 -22.069  0.00  0.00    -0.002 C 
ATOM      7  C   UNL     1      33.169 -15.271 -24.441  0.00  0.00    -0.002 C 
ATOM      8  C   UNL     1      34.153 -15.692 -21.719  0.00  0.00    +0.095 C 
ATOM      9  C   UNL     1      33.995 -16.495 -24.056  0.00  0.00    +0.095 C 
BRANCH   5  10
ATOM     10  N   UNL     1      32.646 -12.942 -23.875  0.00  0.00    +0.388 N 
ATOM     11  H   UNL     1      31.695 -13.277 -24.029  0.00  0.00    -0.084 HD
ATOM     12  H   UNL     1      33.006 -12.493 -24.717  0.00  0.00    -0.084 HD
BRANCH  10  13
ATOM     13  C   UNL     1      32.639 -11.967 -22.793  0.00  0.00    -0.051 C 
BRANCH  13  14
ATOM     14  C   UNL     1      33.053 -10.600 -23.269  0.00  0.00    -0.010 C 
ATOM     15  C   UNL     1      32.458  -9.463 -22.739  0.00  0.00    +0.128 C 
ATOM     16  C   UNL     1      34.039 -10.501 -24.243  0.00  0.00    -0.003 C 
ATOM     17  C   UNL     1      32.854  -8.205 -23.190  0.00  0.00    +0.036 C 
ATOM     18  C   UNL     1      34.434  -9.241 -24.695  0.00  0.00    -0.000 C 
ATOM     19  C   UNL     1      33.842  -8.094 -24.169  0.00  0.00    +0.003 C 
BRANCH  15  20
ATOM     20  O   UNL     1      31.491  -9.553 -21.782  0.00  0.00    -0.506 OA
ATOM     21  H   UNL     1      30.777  -8.946 -21.779  0.00  0.00    +0.292 HD
ENDBRANCH  15  20
ENDBRANCH  13  14
ENDBRANCH  10  13
ENDBRANCH   5  10
ENDBRANCH   1   4
BRANCH   1  22
ATOM     22  N   UNL     1      33.386 -18.593 -20.686  0.00  0.00    -0.205 N 
ATOM     23  H   UNL     1      32.679 -17.959 -20.424  0.00  0.00    +0.175 HD
BRANCH  22  24
ATOM     24  C   UNL     1      33.691 -19.753 -19.889  0.00  0.00    +0.069 C 
ATOM     25  C   UNL     1      32.657 -20.534 -19.390  0.00  0.00    +0.053 C 
ATOM     26  C   UNL     1      35.017 -20.076 -19.629  0.00  0.00    +0.016 C 
ATOM     27  C   UNL     1      32.954 -21.657 -18.617  0.00  0.00    +0.147 C 
ATOM     28  C   UNL     1      35.313 -21.198 -18.856  0.00  0.00    +0.004 C 
ATOM     29  C   UNL     1      34.282 -21.989 -18.351  0.00  0.00    +0.038 C 
BRANCH  27  30
ATOM     30  O   UNL     1      31.947 -22.428 -18.122  0.00  0.00    -0.453 OA
BRANCH  30  32
ATOM     31  F   UNL     1      31.662 -23.067 -12.677  0.00  0.00    -0.204 F 
ATOM     32  C   UNL     1      31.875 -22.589 -16.749  0.00  0.00    +0.145 C 
ATOM     33  C   UNL     1      30.649 -22.467 -16.119  0.00  0.00    +0.040 C 
ATOM     34  C   UNL     1      33.030 -22.869 -16.042  0.00  0.00    +0.040 C 
ATOM     35  C   UNL     1      30.577 -22.629 -14.736  0.00  0.00    +0.033 C 
ATOM     36  C   UNL     1      32.958 -23.031 -14.659  0.00  0.00    +0.033 C 
ATOM     37  C   UNL     1      31.731 -22.911 -14.006  0.00  0.00    +0.140 C 
ENDBRANCH  30  32
ENDBRANCH  27  30
ENDBRANCH  22  24
ENDBRANCH   1  22
TORSDOF 9
ENDMDL
MODEL 8
REMARK VINA RESULT:     -11.6      1.726      2.588
REMARK  Name = 5287728
REMARK  9 active torsions:
REMARK  status: ('A' for Active; 'I' for Inactive)
REMARK    1  A    between atoms: S_1  and  N_4
REMARK    2  A    between atoms: S_1  and  N_22
REMARK    3  A    between atoms: C_5  and  N_10
REMARK    4  A    between atoms: N_10  and  C_13
REMARK    5  A    between atoms: C_13  and  C_14
REMARK    6  A    between atoms: C_15  and  O_20
REMARK    7  A    between atoms: N_22  and  C_24
REMARK    8  A    between atoms: C_27  and  O_30
REMARK    9  A    between atoms: O_30  and  C_32
REMARK                            x       y       z     vdW  Elec       q    Type
REMARK                         _______ _______ _______ _____ _____    ______ ____
ROOT
ATOM      1  S   UNL     1      34.546 -17.853 -21.216  0.00  0.00    +0.113 S 
ATOM      2  O   UNL     1      35.943 -17.985 -21.586  0.00  0.00    -0.138 OA
ATOM      3  O   UNL     1      33.519 -17.830 -22.243  0.00  0.00    -0.138 OA
ENDROOT
BRANCH   1   4
ATOM      4  N   UNL     1      34.172 -19.101 -20.101  0.00  0.00    -0.143 NA
ATOM      5  C   UNL     1      33.607 -21.617 -18.756  0.00  0.00    -0.059 C 
ATOM      6  C   UNL     1      32.501 -20.614 -19.098  0.00  0.00    -0.002 C 
ATOM      7  C   UNL     1      34.947 -20.892 -18.591  0.00  0.00    -0.002 C 
ATOM      8  C   UNL     1      32.869 -19.791 -20.331  0.00  0.00    +0.095 C 
ATOM      9  C   UNL     1      35.279 -20.066 -19.830  0.00  0.00    +0.095 C 
BRANCH   5  10
ATOM     10  N   UNL     1      33.271 -22.335 -17.529  0.00  0.00    +0.388 N 
ATOM     11  H   UNL     1      33.779 -21.919 -16.748  0.00  0.00    -0.084 HD
ATOM     12  H   UNL     1      33.531 -23.315 -17.641  0.00  0.00    -0.084 HD
BRANCH  10  13
ATOM     13  C   UNL     1      31.842 -22.259 -17.263  0.00  0.00    -0.051 C 
BRANCH  13  14
ATOM     14  C   UNL     1      31.514 -22.651 -15.847  0.00  0.00    -0.010 C 
ATOM     15  C   UNL     1      30.203 -22.603 -15.391  0.00  0.00    +0.128 C 
ATOM     16  C   UNL     1      32.545 -23.061 -15.010  0.00  0.00    -0.003 C 
ATOM     17  C   UNL     1      29.917 -22.970 -14.076  0.00  0.00    +0.036 C 
ATOM     18  C   UNL     1      32.259 -23.427 -13.695  0.00  0.00    -0.000 C 
ATOM     19  C   UNL     1      30.946 -23.382 -13.228  0.00  0.00    +0.003 C 
BRANCH  15  20
ATOM     20  O   UNL     1      29.187 -22.203 -16.207  0.00  0.00    -0.506 OA
ATOM     21  H   UNL     1      28.359 -22.640 -16.172  0.00  0.00    +0.292 HD
ENDBRANCH  15  20
ENDBRANCH  13  14
ENDBRANCH  10  13
ENDBRANCH   5  10
ENDBRANCH   1   4
BRANCH   1  22
ATOM     22  N   UNL     1      34.402 -16.464 -20.202  0.00  0.00    -0.205 N 
ATOM     23  H   UNL     1      34.776 -16.449 -19.291  0.00  0.00    +0.175 HD
BRANCH  22  24
ATOM     24  C   UNL     1      33.710 -15.328 -20.752  0.00  0.00    +0.069 C 
ATOM     25  C   UNL     1      32.736 -14.686 -19.997  0.00  0.00    +0.053 C 
ATOM     26  C   UNL     1      34.023 -14.886 -22.032  0.00  0.00    +0.016 C 
ATOM     27  C   UNL     1      32.065 -13.586 -20.531  0.00  0.00    +0.147 C 
ATOM     28  C   UNL     1      33.352 -13.786 -22.565  0.00  0.00    +0.004 C 
ATOM     29  C   UNL     1      32.374 -13.136 -21.814  0.00  0.00    +0.038 C 
BRANCH  27  30
ATOM     30  O   UNL     1      31.109 -12.952 -19.798  0.00  0.00    -0.453 OA
BRANCH  30  32
ATOM     31  F   UNL     1      30.972  -7.466 -19.978  0.00  0.00    -0.204 F 
ATOM     32  C   UNL     1      31.075 -11.568 -19.844  0.00  0.00    +0.145 C 
ATOM     33  C   UNL     1      31.136 -10.853 -18.661  0.00  0.00    +0.040 C 
ATOM     34  C   UNL     1      30.979 -10.936 -21.070  0.00  0.00    +0.040 C 
ATOM     35  C   UNL     1      31.102  -9.460 -18.707  0.00  0.00    +0.033 C 
ATOM     36  C   UNL     1      30.944  -9.543 -21.117  0.00  0.00    +0.033 C 
ATOM     37  C   UNL     1      31.005  -8.805 -19.935  0.00  0.00    +0.140 C 
ENDBRANCH  30  32
ENDBRANCH  27  30
ENDBRANCH  22  24
ENDBRANCH   1  22
TORSDOF 9
ENDMDL
MODEL 9
REMARK VINA RESULT:     -11.6      3.282      6.123
REMARK  Name = 5287728
REMARK  9 active torsions:
REMARK  status: ('A' for Active; 'I' for Inactive)
REMARK    1  A    between atoms: S_1  and  N_4
REMARK    2  A    between atoms: S_1  and  N_22
REMARK    3  A    between atoms: C_5  and  N_10
REMARK    4  A    between atoms: N_10  and  C_13
REMARK    5  A    between atoms: C_13  and  C_14
REMARK    6  A    between atoms: C_15  and  O_20
REMARK    7  A    between atoms: N_22  and  C_24
REMARK    8  A    between atoms: C_27  and  O_30
REMARK    9  A    between atoms: O_30  and  C_32
REMARK                            x       y       z     vdW  Elec       q    Type
REMARK                         _______ _______ _______ _____ _____    ______ ____
ROOT
ATOM      1  S   UNL     1      32.444 -13.450 -23.339  0.00  0.00    +0.113 S 
ATOM      2  O   UNL     1      32.258 -13.874 -24.715  0.00  0.00    -0.138 OA
ATOM      3  O   UNL     1      31.330 -12.891 -22.593  0.00  0.00    -0.138 OA
ENDROOT
BRANCH   1   4
ATOM      4  N   UNL     1      33.081 -14.774 -22.456  0.00  0.00    -0.143 NA
ATOM      5  C   UNL     1      34.755 -16.699 -21.059  0.00  0.00    -0.059 C 
ATOM      6  C   UNL     1      34.181 -16.983 -22.451  0.00  0.00    -0.002 C 
ATOM      7  C   UNL     1      33.860 -15.707 -20.308  0.00  0.00    -0.002 C 
ATOM      8  C   UNL     1      33.971 -15.687 -23.232  0.00  0.00    +0.095 C 
ATOM      9  C   UNL     1      33.654 -14.432 -21.120  0.00  0.00    +0.095 C 
BRANCH   5  10
ATOM     10  N   UNL     1      34.871 -17.943 -20.302  0.00  0.00    +0.388 N 
ATOM     11  H   UNL     1      34.537 -17.788 -19.350  0.00  0.00    -0.084 HD
ATOM     12  H   UNL     1      35.849 -18.231 -20.292  0.00  0.00    -0.084 HD
BRANCH  10  13
ATOM     13  C   UNL     1      34.080 -18.997 -20.919  0.00  0.00    -0.051 C 
BRANCH  13  14
ATOM     14  C   UNL     1      33.605 -20.006 -19.907  0.00  0.00    -0.010 C 
ATOM     15  C   UNL     1      34.521 -20.779 -19.204  0.00  0.00    +0.128 C 
ATOM     16  C   UNL     1      32.240 -20.148 -19.693  0.00  0.00    -0.003 C 
ATOM     17  C   UNL     1      34.064 -21.709 -18.271  0.00  0.00    +0.036 C 
ATOM     18  C   UNL     1      31.783 -21.079 -18.760  0.00  0.00    -0.000 C 
ATOM     19  C   UNL     1      32.695 -21.859 -18.049  0.00  0.00    +0.003 C 
BRANCH  15  20
ATOM     20  O   UNL     1      35.861 -20.644 -19.409  0.00  0.00    -0.506 OA
ATOM     21  H   UNL     1      36.383 -21.398 -19.604  0.00  0.00    +0.292 HD
ENDBRANCH  15  20
ENDBRANCH  13  14
ENDBRANCH  10  13
ENDBRANCH   5  10
ENDBRANCH   1   4
BRANCH   1  22
ATOM     22  N   UNL     1      33.785 -12.365 -23.302  0.00  0.00    -0.205 N 
ATOM     23  H   UNL     1      34.704 -12.684 -23.150  0.00  0.00    +0.175 HD
BRANCH  22  24
ATOM     24  C   UNL     1      33.497 -10.969 -23.505  0.00  0.00    +0.069 C 
ATOM     25  C   UNL     1      32.497 -10.359 -22.757  0.00  0.00    +0.053 C 
ATOM     26  C   UNL     1      34.221 -10.248 -24.447  0.00  0.00    +0.016 C 
ATOM     27  C   UNL     1      32.218  -9.006 -22.955  0.00  0.00    +0.147 C 
ATOM     28  C   UNL     1      33.941  -8.897 -24.644  0.00  0.00    +0.004 C 
ATOM     29  C   UNL     1      32.940  -8.276 -23.898  0.00  0.00    +0.038 C 
BRANCH  27  30
ATOM     30  O   UNL     1      31.240  -8.401 -22.227  0.00  0.00    -0.453 OA
BRANCH  30  32
ATOM     31  F   UNL     1      30.396 -10.179 -17.102  0.00  0.00    -0.204 F 
ATOM     32  C   UNL     1      31.027  -8.850 -20.934  0.00  0.00    +0.145 C 
ATOM     33  C   UNL     1      30.268  -9.988 -20.733  0.00  0.00    +0.040 C 
ATOM     34  C   UNL     1      31.580  -8.148 -19.879  0.00  0.00    +0.040 C 
ATOM     35  C   UNL     1      30.054 -10.440 -19.431  0.00  0.00    +0.033 C 
ATOM     36  C   UNL     1      31.365  -8.599 -18.576  0.00  0.00    +0.033 C 
ATOM     37  C   UNL     1      30.602  -9.745 -18.353  0.00  0.00    +0.140 C 
ENDBRANCH  30  32
ENDBRANCH  27  30
ENDBRANCH  22  24
ENDBRANCH   1  22
TORSDOF 9
ENDMDL
