MODEL 1
REMARK VINA RESULT:     -12.0      0.000      0.000
REMARK  Name = 49831257
REMARK  4 active torsions:
REMARK  status: ('A' for Active; 'I' for Inactive)
REMARK    1  A    between atoms: C_1  and  C_23
REMARK    2  A    between atoms: C_4  and  C_14
REMARK    3  A    between atoms: C_12  and  C_20
REMARK    4  A    between atoms: C_23  and  N_27
REMARK                            x       y       z     vdW  Elec       q    Type
REMARK                         _______ _______ _______ _____ _____    ______ ____
ROOT
ATOM      1  C   UNL     1      34.166 -20.182 -20.177  0.00  0.00    -0.043 C 
ATOM      2  C   UNL     1      32.799 -20.194 -19.902  0.00  0.00    -0.006 C 
ATOM      3  C   UNL     1      35.053 -20.852 -19.333  0.00  0.00    -0.006 C 
ATOM      4  C   UNL     1      33.205 -21.545 -17.941  0.00  0.00    +0.016 C 
ATOM      5  C   UNL     1      32.318 -20.875 -18.784  0.00  0.00    +0.001 C 
ATOM      6  C   UNL     1      34.573 -21.533 -18.215  0.00  0.00    +0.001 C 
ENDROOT
BRANCH   4  14
ATOM      7  O   UNL     1      36.143 -25.157 -12.324  0.00  0.00    -0.274 OA
ATOM      8  N   UNL     1      36.469 -23.913 -14.301  0.00  0.00    -0.217 N 
ATOM      9  N   UNL     1      33.566 -22.876 -15.832  0.00  0.00    -0.152 N 
ATOM     10  N   UNL     1      34.926 -22.909 -15.825  0.00  0.00    -0.092 NA
ATOM     11  N   UNL     1      34.116 -24.041 -14.015  0.00  0.00    -0.319 NA
ATOM     12  C   UNL     1      36.866 -24.641 -13.165  0.00  0.00    +0.234 C 
ATOM     13  C   UNL     1      35.192 -23.615 -14.727  0.00  0.00    +0.167 C 
ATOM     14  C   UNL     1      32.698 -22.263 -16.759  0.00  0.00    +0.077 C 
ATOM     15  C   UNL     1      33.102 -23.575 -14.709  0.00  0.00    +0.219 C 
ATOM     16  C   UNL     1      31.367 -22.357 -16.549  0.00  0.00    +0.017 C 
ATOM     17  C   UNL     1      31.697 -23.659 -14.510  0.00  0.00    +0.051 C 
ATOM     18  C   UNL     1      30.866 -23.075 -15.390  0.00  0.00    +0.005 C 
ATOM     19  H   UNL     1      37.199 -23.571 -14.866  0.00  0.00    +0.167 HD
BRANCH  12  20
ATOM     20  C   UNL     1      38.348 -24.775 -13.005  0.00  0.00    +0.077 C 
ATOM     21  C   UNL     1      39.220 -24.735 -14.226  0.00  0.00    +0.010 C 
ATOM     22  C   UNL     1      39.025 -26.026 -13.486  0.00  0.00    +0.010 C 
ENDBRANCH  12  20
ENDBRANCH   4  14
BRANCH   1  23
ATOM     23  C   UNL     1      34.685 -19.448 -21.385  0.00  0.00    -0.050 C 
BRANCH  23  27
ATOM     24  S   UNL     1      33.622 -15.214 -22.536  0.00  0.00    -0.014 S 
ATOM     25  O   UNL     1      32.550 -14.238 -22.520  0.00  0.00    -0.173 OA
ATOM     26  O   UNL     1      34.920 -14.890 -23.094  0.00  0.00    -0.173 OA
ATOM     27  N   UNL     1      33.979 -18.181 -21.597  0.00  0.00    +0.392 N 
ATOM     28  C   UNL     1      33.905 -17.886 -23.039  0.00  0.00    -0.051 C 
ATOM     29  C   UNL     1      34.651 -17.104 -20.851  0.00  0.00    -0.051 C 
ATOM     30  C   UNL     1      33.856 -15.803 -20.877  0.00  0.00    +0.128 C 
ATOM     31  C   UNL     1      33.018 -16.682 -23.335  0.00  0.00    +0.128 C 
ATOM     32  H   UNL     1      33.025 -18.254 -21.246  0.00  0.00    -0.079 HD
ENDBRANCH  23  27
ENDBRANCH   1  23
TORSDOF 4
ENDMDL
MODEL 2
REMARK VINA RESULT:     -11.4      4.425     11.218
REMARK  Name = 49831257
REMARK  4 active torsions:
REMARK  status: ('A' for Active; 'I' for Inactive)
REMARK    1  A    between atoms: C_1  and  C_23
REMARK    2  A    between atoms: C_4  and  C_14
REMARK    3  A    between atoms: C_12  and  C_20
REMARK    4  A    between atoms: C_23  and  N_27
REMARK                            x       y       z     vdW  Elec       q    Type
REMARK                         _______ _______ _______ _____ _____    ______ ____
ROOT
ATOM      1  C   UNL     1      35.073 -18.503 -20.894  0.00  0.00    -0.043 C 
ATOM      2  C   UNL     1      34.736 -17.292 -20.290  0.00  0.00    -0.006 C 
ATOM      3  C   UNL     1      34.861 -18.684 -22.261  0.00  0.00    -0.006 C 
ATOM      4  C   UNL     1      33.972 -16.444 -22.419  0.00  0.00    +0.016 C 
ATOM      5  C   UNL     1      34.185 -16.263 -21.053  0.00  0.00    +0.001 C 
ATOM      6  C   UNL     1      34.310 -17.655 -23.024  0.00  0.00    +0.001 C 
ENDROOT
BRANCH   4  14
ATOM      7  O   UNL     1      30.472 -10.189 -21.057  0.00  0.00    -0.274 OA
ATOM      8  N   UNL     1      31.542 -12.114 -20.214  0.00  0.00    -0.217 N 
ATOM      9  N   UNL     1      32.757 -14.247 -22.628  0.00  0.00    -0.152 N 
ATOM     10  N   UNL     1      32.590 -13.963 -21.307  0.00  0.00    -0.092 NA
ATOM     11  N   UNL     1      31.667 -12.304 -22.576  0.00  0.00    -0.319 NA
ATOM     12  C   UNL     1      30.857 -10.889 -20.130  0.00  0.00    +0.234 C 
ATOM     13  C   UNL     1      31.936 -12.803 -21.342  0.00  0.00    +0.167 C 
ATOM     14  C   UNL     1      33.389 -15.357 -23.225  0.00  0.00    +0.077 C 
ATOM     15  C   UNL     1      32.184 -13.209 -23.377  0.00  0.00    +0.219 C 
ATOM     16  C   UNL     1      33.442 -15.416 -24.573  0.00  0.00    +0.017 C 
ATOM     17  C   UNL     1      32.253 -13.294 -24.794  0.00  0.00    +0.051 C 
ATOM     18  C   UNL     1      32.856 -14.350 -25.367  0.00  0.00    +0.005 C 
ATOM     19  H   UNL     1      31.772 -12.536 -19.354  0.00  0.00    +0.167 HD
BRANCH  12  20
ATOM     20  C   UNL     1      30.587 -10.428 -18.732  0.00  0.00    +0.077 C 
ATOM     21  C   UNL     1      30.372  -8.965 -18.476  0.00  0.00    +0.010 C 
ATOM     22  C   UNL     1      31.634  -9.630 -18.010  0.00  0.00    +0.010 C 
ENDBRANCH  12  20
ENDBRANCH   4  14
BRANCH   1  23
ATOM     23  C   UNL     1      35.670 -19.614 -20.072  0.00  0.00    -0.050 C 
BRANCH  23  27
ATOM     24  S   UNL     1      32.810 -22.326 -17.868  0.00  0.00    -0.014 S 
ATOM     25  O   UNL     1      31.914 -22.393 -16.731  0.00  0.00    -0.173 OA
ATOM     26  O   UNL     1      32.986 -23.462 -18.750  0.00  0.00    -0.173 OA
ATOM     27  N   UNL     1      34.703 -20.164 -19.117  0.00  0.00    +0.392 N 
ATOM     28  C   UNL     1      35.291 -21.321 -18.419  0.00  0.00    -0.051 C 
ATOM     29  C   UNL     1      33.458 -20.521 -19.817  0.00  0.00    -0.051 C 
ATOM     30  C   UNL     1      32.348 -20.919 -18.851  0.00  0.00    +0.128 C 
ATOM     31  C   UNL     1      34.408 -21.818 -17.281  0.00  0.00    +0.128 C 
ATOM     32  H   UNL     1      34.474 -19.462 -18.413  0.00  0.00    -0.079 HD
ENDBRANCH  23  27
ENDBRANCH   1  23
TORSDOF 4
ENDMDL
MODEL 3
REMARK VINA RESULT:     -11.2      2.435      5.037
REMARK  Name = 49831257
REMARK  4 active torsions:
REMARK  status: ('A' for Active; 'I' for Inactive)
REMARK    1  A    between atoms: C_1  and  C_23
REMARK    2  A    between atoms: C_4  and  C_14
REMARK    3  A    between atoms: C_12  and  C_20
REMARK    4  A    between atoms: C_23  and  N_27
REMARK                            x       y       z     vdW  Elec       q    Type
REMARK                         _______ _______ _______ _____ _____    ______ ____
ROOT
ATOM      1  C   UNL     1      34.362 -19.981 -20.635  0.00  0.00    -0.043 C 
ATOM      2  C   UNL     1      33.111 -20.273 -20.093  0.00  0.00    -0.006 C 
ATOM      3  C   UNL     1      35.521 -20.340 -19.946  0.00  0.00    -0.006 C 
ATOM      4  C   UNL     1      34.176 -21.283 -18.174  0.00  0.00    +0.016 C 
ATOM      5  C   UNL     1      33.018 -20.923 -18.863  0.00  0.00    +0.001 C 
ATOM      6  C   UNL     1      35.429 -20.991 -18.716  0.00  0.00    +0.001 C 
ENDROOT
BRANCH   4  14
ATOM      7  O   UNL     1      28.789 -23.870 -13.990  0.00  0.00    -0.274 OA
ATOM      8  N   UNL     1      29.441 -22.801 -15.988  0.00  0.00    -0.217 N 
ATOM      9  N   UNL     1      32.836 -22.346 -16.325  0.00  0.00    -0.152 N 
ATOM     10  N   UNL     1      31.587 -22.190 -16.843  0.00  0.00    -0.092 NA
ATOM     11  N   UNL     1      31.458 -23.227 -14.813  0.00  0.00    -0.319 NA
ATOM     12  C   UNL     1      28.531 -23.346 -15.065  0.00  0.00    +0.234 C 
ATOM     13  C   UNL     1      30.815 -22.728 -15.901  0.00  0.00    +0.167 C 
ATOM     14  C   UNL     1      34.078 -21.968 -16.874  0.00  0.00    +0.077 C 
ATOM     15  C   UNL     1      32.721 -22.987 -15.084  0.00  0.00    +0.219 C 
ATOM     16  C   UNL     1      35.199 -22.239 -16.171  0.00  0.00    +0.017 C 
ATOM     17  C   UNL     1      33.915 -23.262 -14.363  0.00  0.00    +0.051 C 
ATOM     18  C   UNL     1      35.102 -22.905 -14.884  0.00  0.00    +0.005 C 
ATOM     19  H   UNL     1      29.044 -22.420 -16.806  0.00  0.00    +0.167 HD
BRANCH  12  20
ATOM     20  C   UNL     1      27.097 -23.254 -15.484  0.00  0.00    +0.077 C 
ATOM     21  C   UNL     1      26.687 -22.184 -16.453  0.00  0.00    +0.010 C 
ATOM     22  C   UNL     1      26.271 -22.093 -15.013  0.00  0.00    +0.010 C 
ENDBRANCH  12  20
ENDBRANCH   4  14
BRANCH   1  23
ATOM     23  C   UNL     1      34.463 -19.281 -21.964  0.00  0.00    -0.050 C 
BRANCH  23  27
ATOM     24  S   UNL     1      33.513 -14.888 -22.404  0.00  0.00    -0.014 S 
ATOM     25  O   UNL     1      32.484 -13.893 -22.178  0.00  0.00    -0.173 OA
ATOM     26  O   UNL     1      34.792 -14.525 -22.982  0.00  0.00    -0.173 OA
ATOM     27  N   UNL     1      33.799 -17.974 -21.942  0.00  0.00    +0.392 N 
ATOM     28  C   UNL     1      33.660 -17.461 -23.316  0.00  0.00    -0.051 C 
ATOM     29  C   UNL     1      34.552 -17.045 -21.083  0.00  0.00    -0.051 C 
ATOM     30  C   UNL     1      33.811 -15.730 -20.868  0.00  0.00    +0.128 C 
ATOM     31  C   UNL     1      32.808 -16.198 -23.377  0.00  0.00    +0.128 C 
ATOM     32  H   UNL     1      32.862 -18.069 -21.551  0.00  0.00    -0.079 HD
ENDBRANCH  23  27
ENDBRANCH   1  23
TORSDOF 4
ENDMDL
MODEL 4
REMARK VINA RESULT:      -9.9      2.992      5.731
REMARK  Name = 49831257
REMARK  4 active torsions:
REMARK  status: ('A' for Active; 'I' for Inactive)
REMARK    1  A    between atoms: C_1  and  C_23
REMARK    2  A    between atoms: C_4  and  C_14
REMARK    3  A    between atoms: C_12  and  C_20
REMARK    4  A    between atoms: C_23  and  N_27
REMARK                            x       y       z     vdW  Elec       q    Type
REMARK                         _______ _______ _______ _____ _____    ______ ____
ROOT
ATOM      1  C   UNL     1      34.568 -20.672 -19.536  0.00  0.00    -0.043 C 
ATOM      2  C   UNL     1      35.441 -21.027 -18.508  0.00  0.00    -0.006 C 
ATOM      3  C   UNL     1      33.205 -20.948 -19.419  0.00  0.00    -0.006 C 
ATOM      4  C   UNL     1      33.590 -21.935 -17.249  0.00  0.00    +0.016 C 
ATOM      5  C   UNL     1      34.952 -21.660 -17.365  0.00  0.00    +0.001 C 
ATOM      6  C   UNL     1      32.716 -21.580 -18.277  0.00  0.00    +0.001 C 
ENDROOT
BRANCH   4  14
ATOM      7  O   UNL     1      27.009 -23.380 -14.449  0.00  0.00    -0.274 OA
ATOM      8  N   UNL     1      28.284 -22.444 -16.198  0.00  0.00    -0.217 N 
ATOM      9  N   UNL     1      31.691 -22.716 -15.789  0.00  0.00    -0.152 N 
ATOM     10  N   UNL     1      30.644 -22.291 -16.546  0.00  0.00    -0.092 NA
ATOM     11  N   UNL     1      29.867 -23.307 -14.654  0.00  0.00    -0.319 NA
ATOM     12  C   UNL     1      27.104 -22.797 -15.520  0.00  0.00    +0.234 C 
ATOM     13  C   UNL     1      29.592 -22.667 -15.821  0.00  0.00    +0.167 C 
ATOM     14  C   UNL     1      33.074 -22.604 -16.042  0.00  0.00    +0.077 C 
ATOM     15  C   UNL     1      31.181 -23.338 -14.640  0.00  0.00    +0.219 C 
ATOM     16  C   UNL     1      33.935 -23.118 -15.138  0.00  0.00    +0.017 C 
ATOM     17  C   UNL     1      32.108 -23.871 -13.704  0.00  0.00    +0.051 C 
ATOM     18  C   UNL     1      33.427 -23.767 -13.942  0.00  0.00    +0.005 C 
ATOM     19  H   UNL     1      28.161 -21.975 -17.056  0.00  0.00    +0.167 HD
BRANCH  12  20
ATOM     20  C   UNL     1      25.845 -22.396 -16.223  0.00  0.00    +0.077 C 
ATOM     21  C   UNL     1      25.933 -21.827 -17.609  0.00  0.00    +0.010 C 
ATOM     22  C   UNL     1      25.569 -20.939 -16.455  0.00  0.00    +0.010 C 
ENDBRANCH  12  20
ENDBRANCH   4  14
BRANCH   1  23
ATOM     23  C   UNL     1      35.095 -19.988 -20.769  0.00  0.00    -0.050 C 
BRANCH  23  27
ATOM     24  S   UNL     1      33.866 -15.927 -22.312  0.00  0.00    -0.014 S 
ATOM     25  O   UNL     1      32.777 -14.970 -22.331  0.00  0.00    -0.173 OA
ATOM     26  O   UNL     1      35.116 -15.650 -22.992  0.00  0.00    -0.173 OA
ATOM     27  N   UNL     1      34.349 -18.763 -21.073  0.00  0.00    +0.392 N 
ATOM     28  C   UNL     1      34.171 -18.634 -22.530  0.00  0.00    -0.051 C 
ATOM     29  C   UNL     1      35.046 -17.599 -20.501  0.00  0.00    -0.051 C 
ATOM     30  C   UNL     1      34.224 -16.321 -20.618  0.00  0.00    +0.128 C 
ATOM     31  C   UNL     1      33.241 -17.484 -22.898  0.00  0.00    +0.128 C 
ATOM     32  H   UNL     1      33.422 -18.809 -20.651  0.00  0.00    -0.079 HD
ENDBRANCH  23  27
ENDBRANCH   1  23
TORSDOF 4
ENDMDL
MODEL 5
REMARK VINA RESULT:      -9.4     10.570     15.618
REMARK  Name = 49831257
REMARK  4 active torsions:
REMARK  status: ('A' for Active; 'I' for Inactive)
REMARK    1  A    between atoms: C_1  and  C_23
REMARK    2  A    between atoms: C_4  and  C_14
REMARK    3  A    between atoms: C_12  and  C_20
REMARK    4  A    between atoms: C_23  and  N_27
REMARK                            x       y       z     vdW  Elec       q    Type
REMARK                         _______ _______ _______ _____ _____    ______ ____
ROOT
ATOM      1  C   UNL     1      33.428  -4.511 -25.043  0.00  0.00    -0.043 C 
ATOM      2  C   UNL     1      32.203  -4.038 -24.576  0.00  0.00    -0.006 C 
ATOM      3  C   UNL     1      34.131  -5.468 -24.311  0.00  0.00    -0.006 C 
ATOM      4  C   UNL     1      32.384  -5.476 -22.643  0.00  0.00    +0.016 C 
ATOM      5  C   UNL     1      31.680  -4.519 -23.376  0.00  0.00    +0.001 C 
ATOM      6  C   UNL     1      33.610  -5.951 -23.111  0.00  0.00    +0.001 C 
ENDROOT
BRANCH   4  14
ATOM      7  O   UNL     1      30.902 -12.035 -19.811  0.00  0.00    -0.274 OA
ATOM      8  N   UNL     1      31.733 -10.772 -21.621  0.00  0.00    -0.217 N 
ATOM      9  N   UNL     1      31.668  -7.365 -21.137  0.00  0.00    -0.152 N 
ATOM     10  N   UNL     1      31.974  -8.416 -21.944  0.00  0.00    -0.092 NA
ATOM     11  N   UNL     1      31.092  -9.180 -19.982  0.00  0.00    -0.319 NA
ATOM     12  C   UNL     1      31.388 -11.947 -20.930  0.00  0.00    +0.234 C 
ATOM     13  C   UNL     1      31.608  -9.463 -21.206  0.00  0.00    +0.167 C 
ATOM     14  C   UNL     1      31.833  -5.985 -21.375  0.00  0.00    +0.077 C 
ATOM     15  C   UNL     1      31.134  -7.867 -19.942  0.00  0.00    +0.219 C 
ATOM     16  C   UNL     1      31.461  -5.118 -20.409  0.00  0.00    +0.017 C 
ATOM     17  C   UNL     1      30.750  -6.935 -18.940  0.00  0.00    +0.051 C 
ATOM     18  C   UNL     1      30.907  -5.619 -19.162  0.00  0.00    +0.005 C 
ATOM     19  H   UNL     1      32.116 -10.900 -22.520  0.00  0.00    +0.167 HD
BRANCH  12  20
ATOM     20  C   UNL     1      31.661 -13.210 -21.686  0.00  0.00    +0.077 C 
ATOM     21  C   UNL     1      32.855 -14.039 -21.313  0.00  0.00    +0.010 C 
ATOM     22  C   UNL     1      32.848 -13.271 -22.603  0.00  0.00    +0.010 C 
ENDBRANCH  12  20
ENDBRANCH   4  14
BRANCH   1  23
ATOM     23  C   UNL     1      33.991  -3.992 -26.340  0.00  0.00    -0.050 C 
BRANCH  23  27
ATOM     24  S   UNL     1      37.373  -5.754 -28.758  0.00  0.00    -0.014 S 
ATOM     25  O   UNL     1      38.482  -6.684 -28.700  0.00  0.00    -0.173 OA
ATOM     26  O   UNL     1      37.080  -5.013 -29.969  0.00  0.00    -0.173 OA
ATOM     27  N   UNL     1      35.158  -4.765 -26.775  0.00  0.00    +0.392 N 
ATOM     28  C   UNL     1      36.254  -3.852 -27.145  0.00  0.00    -0.051 C 
ATOM     29  C   UNL     1      34.783  -5.652 -27.889  0.00  0.00    -0.051 C 
ATOM     30  C   UNL     1      35.903  -6.618 -28.259  0.00  0.00    +0.128 C 
ATOM     31  C   UNL     1      37.555  -4.596 -27.423  0.00  0.00    +0.128 C 
ATOM     32  H   UNL     1      35.489  -5.352 -26.009  0.00  0.00    -0.079 HD
ENDBRANCH  23  27
ENDBRANCH   1  23
TORSDOF 4
ENDMDL
MODEL 6
REMARK VINA RESULT:      -9.4      6.999     12.012
REMARK  Name = 49831257
REMARK  4 active torsions:
REMARK  status: ('A' for Active; 'I' for Inactive)
REMARK    1  A    between atoms: C_1  and  C_23
REMARK    2  A    between atoms: C_4  and  C_14
REMARK    3  A    between atoms: C_12  and  C_20
REMARK    4  A    between atoms: C_23  and  N_27
REMARK                            x       y       z     vdW  Elec       q    Type
REMARK                         _______ _______ _______ _____ _____    ______ ____
ROOT
ATOM      1  C   UNL     1      33.931  -8.548 -23.149  0.00  0.00    -0.043 C 
ATOM      2  C   UNL     1      34.604  -9.115 -24.231  0.00  0.00    -0.006 C 
ATOM      3  C   UNL     1      32.828  -9.198 -22.595  0.00  0.00    -0.006 C 
ATOM      4  C   UNL     1      33.071 -10.982 -24.206  0.00  0.00    +0.016 C 
ATOM      5  C   UNL     1      34.174 -10.332 -24.760  0.00  0.00    +0.001 C 
ATOM      6  C   UNL     1      32.398 -10.415 -23.124  0.00  0.00    +0.001 C 
ENDROOT
BRANCH   4  14
ATOM      7  O   UNL     1      33.832 -18.030 -22.482  0.00  0.00    -0.274 OA
ATOM      8  N   UNL     1      34.293 -15.776 -21.963  0.00  0.00    -0.217 N 
ATOM      9  N   UNL     1      32.953 -13.498 -24.168  0.00  0.00    -0.152 N 
ATOM     10  N   UNL     1      33.681 -13.734 -23.043  0.00  0.00    -0.092 NA
ATOM     11  N   UNL     1      32.988 -15.715 -23.944  0.00  0.00    -0.319 NA
ATOM     12  C   UNL     1      34.343 -17.170 -21.778  0.00  0.00    +0.234 C 
ATOM     13  C   UNL     1      33.669 -15.064 -22.965  0.00  0.00    +0.167 C 
ATOM     14  C   UNL     1      32.616 -12.267 -24.765  0.00  0.00    +0.077 C 
ATOM     15  C   UNL     1      32.540 -14.731 -24.692  0.00  0.00    +0.219 C 
ATOM     16  C   UNL     1      31.864 -12.282 -25.887  0.00  0.00    +0.017 C 
ATOM     17  C   UNL     1      31.749 -14.722 -25.873  0.00  0.00    +0.051 C 
ATOM     18  C   UNL     1      31.424 -13.549 -26.445  0.00  0.00    +0.005 C 
ATOM     19  H   UNL     1      34.767 -15.238 -21.288  0.00  0.00    +0.167 HD
BRANCH  12  20
ATOM     20  C   UNL     1      35.116 -17.605 -20.573  0.00  0.00    +0.077 C 
ATOM     21  C   UNL     1      36.377 -18.397 -20.763  0.00  0.00    +0.010 C 
ATOM     22  C   UNL     1      35.149 -19.062 -20.212  0.00  0.00    +0.010 C 
ENDBRANCH  12  20
ENDBRANCH   4  14
BRANCH   1  23
ATOM     23  C   UNL     1      34.397  -7.235 -22.577  0.00  0.00    -0.050 C 
BRANCH  23  27
ATOM     24  S   UNL     1      30.301  -5.384 -22.143  0.00  0.00    -0.014 S 
ATOM     25  O   UNL     1      29.607  -4.124 -21.968  0.00  0.00    -0.173 OA
ATOM     26  O   UNL     1      29.572  -6.634 -22.234  0.00  0.00    -0.173 OA
ATOM     27  N   UNL     1      33.288  -6.290 -22.412  0.00  0.00    +0.392 N 
ATOM     28  C   UNL     1      32.552  -6.594 -21.172  0.00  0.00    -0.051 C 
ATOM     29  C   UNL     1      32.413  -6.336 -23.595  0.00  0.00    -0.051 C 
ATOM     30  C   UNL     1      31.351  -5.242 -23.569  0.00  0.00    +0.128 C 
ATOM     31  C   UNL     1      31.508  -5.532 -20.847  0.00  0.00    +0.128 C 
ATOM     32  H   UNL     1      33.652  -5.341 -22.331  0.00  0.00    -0.079 HD
ENDBRANCH  23  27
ENDBRANCH   1  23
TORSDOF 4
ENDMDL
MODEL 7
REMARK VINA RESULT:      -9.4      7.205     13.619
REMARK  Name = 49831257
REMARK  4 active torsions:
REMARK  status: ('A' for Active; 'I' for Inactive)
REMARK    1  A    between atoms: C_1  and  C_23
REMARK    2  A    between atoms: C_4  and  C_14
REMARK    3  A    between atoms: C_12  and  C_20
REMARK    4  A    between atoms: C_23  and  N_27
REMARK                            x       y       z     vdW  Elec       q    Type
REMARK                         _______ _______ _______ _____ _____    ______ ____
ROOT
ATOM      1  C   UNL     1      33.521 -14.917 -23.335  0.00  0.00    -0.043 C 
ATOM      2  C   UNL     1      34.029 -14.413 -22.138  0.00  0.00    -0.006 C 
ATOM      3  C   UNL     1      32.400 -14.327 -23.920  0.00  0.00    -0.006 C 
ATOM      4  C   UNL     1      32.295 -12.731 -22.111  0.00  0.00    +0.016 C 
ATOM      5  C   UNL     1      33.416 -13.321 -21.525  0.00  0.00    +0.001 C 
ATOM      6  C   UNL     1      31.786 -13.235 -23.308  0.00  0.00    +0.001 C 
ENDROOT
BRANCH   4  14
ATOM      7  O   UNL     1      32.532  -5.475 -22.839  0.00  0.00    -0.274 OA
ATOM      8  N   UNL     1      33.280  -7.591 -23.566  0.00  0.00    -0.217 N 
ATOM      9  N   UNL     1      31.925 -10.252 -21.855  0.00  0.00    -0.152 N 
ATOM     10  N   UNL     1      32.755  -9.805 -22.836  0.00  0.00    -0.092 NA
ATOM     11  N   UNL     1      31.759  -8.031 -21.798  0.00  0.00    -0.319 NA
ATOM     12  C   UNL     1      33.208  -6.186 -23.570  0.00  0.00    +0.234 C 
ATOM     13  C   UNL     1      32.616  -8.483 -22.751  0.00  0.00    +0.167 C 
ATOM     14  C   UNL     1      31.647 -11.578 -21.463  0.00  0.00    +0.077 C 
ATOM     15  C   UNL     1      31.328  -9.141 -21.242  0.00  0.00    +0.219 C 
ATOM     16  C   UNL     1      30.768 -11.778 -20.457  0.00  0.00    +0.017 C 
ATOM     17  C   UNL     1      30.407  -9.378 -20.186  0.00  0.00    +0.051 C 
ATOM     18  C   UNL     1      30.137 -10.641 -19.810  0.00  0.00    +0.005 C 
ATOM     19  H   UNL     1      33.884  -7.990 -24.234  0.00  0.00    +0.167 HD
BRANCH  12  20
ATOM     20  C   UNL     1      34.072  -5.527 -24.599  0.00  0.00    +0.077 C 
ATOM     21  C   UNL     1      33.593  -4.264 -25.253  0.00  0.00    +0.010 C 
ATOM     22  C   UNL     1      33.639  -5.543 -26.037  0.00  0.00    +0.010 C 
ENDBRANCH  12  20
ENDBRANCH   4  14
BRANCH   1  23
ATOM     23  C   UNL     1      34.183 -16.096 -23.998  0.00  0.00    -0.050 C 
BRANCH  23  27
ATOM     24  S   UNL     1      34.024 -19.315 -20.835  0.00  0.00    -0.014 S 
ATOM     25  O   UNL     1      34.843 -20.222 -20.058  0.00  0.00    -0.173 OA
ATOM     26  O   UNL     1      32.583 -19.283 -20.676  0.00  0.00    -0.173 OA
ATOM     27  N   UNL     1      34.537 -17.137 -23.029  0.00  0.00    +0.392 N 
ATOM     28  C   UNL     1      33.909 -18.413 -23.413  0.00  0.00    -0.051 C 
ATOM     29  C   UNL     1      34.138 -16.715 -21.675  0.00  0.00    -0.051 C 
ATOM     30  C   UNL     1      34.650 -17.669 -20.601  0.00  0.00    +0.128 C 
ATOM     31  C   UNL     1      34.393 -19.576 -22.554  0.00  0.00    +0.128 C 
ATOM     32  H   UNL     1      35.547 -17.277 -23.026  0.00  0.00    -0.079 HD
ENDBRANCH  23  27
ENDBRANCH   1  23
TORSDOF 4
ENDMDL
MODEL 8
REMARK VINA RESULT:      -9.4      7.653     14.569
REMARK  Name = 49831257
REMARK  4 active torsions:
REMARK  status: ('A' for Active; 'I' for Inactive)
REMARK    1  A    between atoms: C_1  and  C_23
REMARK    2  A    between atoms: C_4  and  C_14
REMARK    3  A    between atoms: C_12  and  C_20
REMARK    4  A    between atoms: C_23  and  N_27
REMARK                            x       y       z     vdW  Elec       q    Type
REMARK                         _______ _______ _______ _____ _____    ______ ____
ROOT
ATOM      1  C   UNL     1      32.877 -13.710 -23.196  0.00  0.00    -0.043 C 
ATOM      2  C   UNL     1      32.012 -13.710 -22.102  0.00  0.00    -0.006 C 
ATOM      3  C   UNL     1      33.344 -12.502 -23.715  0.00  0.00    -0.006 C 
ATOM      4  C   UNL     1      32.079 -11.295 -22.049  0.00  0.00    +0.016 C 
ATOM      5  C   UNL     1      31.612 -12.503 -21.529  0.00  0.00    +0.001 C 
ATOM      6  C   UNL     1      32.946 -11.295 -23.143  0.00  0.00    +0.001 C 
ENDROOT
BRANCH   4  14
ATOM      7  O   UNL     1      32.441  -4.240 -23.871  0.00  0.00    -0.274 OA
ATOM      8  N   UNL     1      32.901  -6.484 -24.433  0.00  0.00    -0.217 N 
ATOM      9  N   UNL     1      31.888  -8.783 -22.081  0.00  0.00    -0.152 N 
ATOM     10  N   UNL     1      32.475  -8.535 -23.283  0.00  0.00    -0.092 NA
ATOM     11  N   UNL     1      31.836  -6.568 -22.314  0.00  0.00    -0.319 NA
ATOM     12  C   UNL     1      32.890  -5.091 -24.627  0.00  0.00    +0.234 C 
ATOM     13  C   UNL     1      32.417  -7.207 -23.363  0.00  0.00    +0.167 C 
ATOM     14  C   UNL     1      31.656 -10.020 -21.445  0.00  0.00    +0.077 C 
ATOM     15  C   UNL     1      31.505  -7.559 -21.516  0.00  0.00    +0.219 C 
ATOM     16  C   UNL     1      31.040 -10.018 -20.243  0.00  0.00    +0.017 C 
ATOM     17  C   UNL     1      30.857  -7.583 -20.251  0.00  0.00    +0.051 C 
ATOM     18  C   UNL     1      30.633  -8.759 -19.642  0.00  0.00    +0.005 C 
ATOM     19  H   UNL     1      33.308  -7.013 -25.157  0.00  0.00    +0.167 HD
BRANCH  12  20
ATOM     20  C   UNL     1      33.507  -4.642 -25.915  0.00  0.00    +0.077 C 
ATOM     21  C   UNL     1      34.399  -5.588 -26.664  0.00  0.00    +0.010 C 
ATOM     22  C   UNL     1      34.987  -4.394 -25.969  0.00  0.00    +0.010 C 
ENDBRANCH  12  20
ENDBRANCH   4  14
BRANCH   1  23
ATOM     23  C   UNL     1      33.310 -15.013 -23.814  0.00  0.00    -0.050 C 
BRANCH  23  27
ATOM     24  S   UNL     1      34.762 -18.352 -21.144  0.00  0.00    -0.014 S 
ATOM     25  O   UNL     1      34.346 -19.280 -20.112  0.00  0.00    -0.173 OA
ATOM     26  O   UNL     1      36.126 -18.343 -21.637  0.00  0.00    -0.173 OA
ATOM     27  N   UNL     1      33.392 -16.086 -22.819  0.00  0.00    +0.392 N 
ATOM     28  C   UNL     1      34.359 -15.722 -21.768  0.00  0.00    -0.051 C 
ATOM     29  C   UNL     1      33.752 -17.352 -23.479  0.00  0.00    -0.051 C 
ATOM     30  C   UNL     1      33.666 -18.542 -22.529  0.00  0.00    +0.128 C 
ATOM     31  C   UNL     1      34.348 -16.710 -20.607  0.00  0.00    +0.128 C 
ATOM     32  H   UNL     1      32.484 -16.215 -22.373  0.00  0.00    -0.079 HD
ENDBRANCH  23  27
ENDBRANCH   1  23
TORSDOF 4
ENDMDL
MODEL 9
REMARK VINA RESULT:      -9.3      4.710     12.023
REMARK  Name = 49831257
REMARK  4 active torsions:
REMARK  status: ('A' for Active; 'I' for Inactive)
REMARK    1  A    between atoms: C_1  and  C_23
REMARK    2  A    between atoms: C_4  and  C_14
REMARK    3  A    between atoms: C_12  and  C_20
REMARK    4  A    between atoms: C_23  and  N_27
REMARK                            x       y       z     vdW  Elec       q    Type
REMARK                         _______ _______ _______ _____ _____    ______ ____
ROOT
ATOM      1  C   UNL     1      34.913 -18.192 -21.399  0.00  0.00    -0.043 C 
ATOM      2  C   UNL     1      34.569 -16.875 -21.094  0.00  0.00    -0.006 C 
ATOM      3  C   UNL     1      34.542 -18.743 -22.626  0.00  0.00    -0.006 C 
ATOM      4  C   UNL     1      33.484 -16.661 -23.242  0.00  0.00    +0.016 C 
ATOM      5  C   UNL     1      33.855 -16.110 -22.015  0.00  0.00    +0.001 C 
ATOM      6  C   UNL     1      33.828 -17.978 -23.548  0.00  0.00    +0.001 C 
ENDROOT
BRANCH   4  14
ATOM      7  O   UNL     1      32.684  -9.552 -24.676  0.00  0.00    -0.274 OA
ATOM      8  N   UNL     1      33.695 -11.234 -23.367  0.00  0.00    -0.217 N 
ATOM      9  N   UNL     1      32.795 -14.444 -24.222  0.00  0.00    -0.152 N 
ATOM     10  N   UNL     1      33.520 -13.617 -23.422  0.00  0.00    -0.092 NA
ATOM     11  N   UNL     1      32.317 -12.384 -24.920  0.00  0.00    -0.319 NA
ATOM     12  C   UNL     1      33.427  -9.914 -23.773  0.00  0.00    +0.234 C 
ATOM     13  C   UNL     1      33.193 -12.411 -23.882  0.00  0.00    +0.167 C 
ATOM     14  C   UNL     1      32.728 -15.853 -24.215  0.00  0.00    +0.077 C 
ATOM     15  C   UNL     1      32.073 -13.658 -25.130  0.00  0.00    +0.219 C 
ATOM     16  C   UNL     1      31.936 -16.462 -25.123  0.00  0.00    +0.017 C 
ATOM     17  C   UNL     1      31.247 -14.323 -26.077  0.00  0.00    +0.051 C 
ATOM     18  C   UNL     1      31.182 -15.665 -26.075  0.00  0.00    +0.005 C 
ATOM     19  H   UNL     1      34.325 -11.331 -22.616  0.00  0.00    +0.167 HD
BRANCH  12  20
ATOM     20  C   UNL     1      34.151  -8.867 -22.986  0.00  0.00    +0.077 C 
ATOM     21  C   UNL     1      33.372  -7.722 -22.408  0.00  0.00    +0.010 C 
ATOM     22  C   UNL     1      34.300  -7.490 -23.565  0.00  0.00    +0.010 C 
ENDBRANCH  12  20
ENDBRANCH   4  14
BRANCH   1  23
ATOM     23  C   UNL     1      35.686 -19.018 -20.406  0.00  0.00    -0.050 C 
BRANCH  23  27
ATOM     24  S   UNL     1      33.118 -22.059 -18.273  0.00  0.00    -0.014 S 
ATOM     25  O   UNL     1      32.275 -22.259 -17.111  0.00  0.00    -0.173 OA
ATOM     26  O   UNL     1      33.341 -23.126 -19.229  0.00  0.00    -0.173 OA
ATOM     27  N   UNL     1      34.800 -19.693 -19.453  0.00  0.00    +0.392 N 
ATOM     28  C   UNL     1      35.497 -20.842 -18.848  0.00  0.00    -0.051 C 
ATOM     29  C   UNL     1      33.557 -20.101 -20.129  0.00  0.00    -0.051 C 
ATOM     30  C   UNL     1      32.517 -20.636 -19.151  0.00  0.00    +0.128 C 
ATOM     31  C   UNL     1      34.697 -21.469 -17.712  0.00  0.00    +0.128 C 
ATOM     32  H   UNL     1      34.548 -19.053 -18.700  0.00  0.00    -0.079 HD
ENDBRANCH  23  27
ENDBRANCH   1  23
TORSDOF 4
ENDMDL
