MODEL 1
REMARK VINA RESULT:     -11.8      0.000      0.000
REMARK  Name = 46937134
REMARK  9 active torsions:
REMARK  status: ('A' for Active; 'I' for Inactive)
REMARK    1  A    between atoms: N_2  and  C_15
REMARK    2  A    between atoms: N_6  and  C_29
REMARK    3  A    between atoms: C_16  and  O_19
REMARK    4  A    between atoms: C_18  and  C_21
REMARK    5  A    between atoms: C_21  and  O_22
REMARK    6  A    between atoms: O_22  and  P_23
REMARK    7  A    between atoms: P_23  and  O_25
REMARK    8  A    between atoms: P_23  and  O_27
REMARK    9  A    between atoms: C_29  and  C_30
REMARK                            x       y       z     vdW  Elec       q    Type
REMARK                         _______ _______ _______ _____ _____    ______ ____
ROOT
ATOM      1  O   UNL     1      36.435 -22.379 -13.548  0.00  0.00    -0.208 OA
ATOM      2  N   UNL     1      32.298 -24.191 -13.385  0.00  0.00    -0.209 NA
ATOM      3  N   UNL     1      32.945 -23.136 -15.479  0.00  0.00    -0.279 N 
ATOM      4  N   UNL     1      34.200 -23.806 -12.259  0.00  0.00    -0.241 NA
ATOM      5  N   UNL     1      35.156 -22.200 -15.472  0.00  0.00    -0.301 NA
ATOM      6  N   UNL     1      33.764 -22.092 -17.344  0.00  0.00    -0.292 N 
ATOM      7  C   UNL     1      33.134 -23.527 -14.216  0.00  0.00    +0.191 C 
ATOM      8  C   UNL     1      32.991 -24.338 -12.205  0.00  0.00    +0.205 C 
ATOM      9  C   UNL     1      34.287 -23.297 -13.525  0.00  0.00    +0.183 C 
ATOM     10  C   UNL     1      34.010 -22.462 -16.073  0.00  0.00    +0.248 C 
ATOM     11  C   UNL     1      35.390 -22.595 -14.150  0.00  0.00    +0.224 C 
ATOM     12  H   UNL     1      32.104 -23.312 -15.960  0.00  0.00    +0.152 HD
ATOM     13  H   UNL     1      32.889 -22.315 -17.737  0.00  0.00    +0.151 HD
ENDROOT
BRANCH   2  15
ATOM     14  O   UNL     1      30.369 -24.125 -14.887  0.00  0.00    -0.338 OA
ATOM     15  C   UNL     1      30.898 -24.678 -13.667  0.00  0.00    +0.182 C 
ATOM     16  C   UNL     1      28.594 -24.310 -13.315  0.00  0.00    +0.144 C 
ATOM     17  C   UNL     1      29.906 -24.316 -12.566  0.00  0.00    +0.079 C 
ATOM     18  C   UNL     1      28.985 -23.774 -14.687  0.00  0.00    +0.174 C 
BRANCH  16  19
ATOM     19  O   UNL     1      28.138 -25.655 -13.439  0.00  0.00    -0.382 OA
ATOM     20  H   UNL     1      28.750 -26.248 -12.975  0.00  0.00    +0.210 HD
ENDBRANCH  16  19
BRANCH  18  21
ATOM     21  C   UNL     1      28.867 -22.258 -14.781  0.00  0.00    +0.186 C 
BRANCH  21  22
ATOM     22  O   UNL     1      28.148 -21.932 -15.958  0.00  0.00    -0.271 OA
BRANCH  22  23
ATOM     23  P   UNL     1      26.558 -22.231 -16.000  0.00  0.00    +0.473 P 
ATOM     24  O   UNL     1      25.917 -22.438 -14.659  0.00  0.00    -0.227 OA
BRANCH  23  25
ATOM     25  O   UNL     1      25.978 -20.984 -16.850  0.00  0.00    -0.303 OA
ATOM     26  H   UNL     1      26.186 -21.108 -17.789  0.00  0.00    +0.222 HD
ENDBRANCH  23  25
BRANCH  23  27
ATOM     27  O   UNL     1      26.429 -23.474 -17.027  0.00  0.00    -0.303 OA
ATOM     28  H   UNL     1      26.446 -24.307 -16.531  0.00  0.00    +0.222 HD
ENDBRANCH  23  27
ENDBRANCH  22  23
ENDBRANCH  21  22
ENDBRANCH  18  21
ENDBRANCH   2  15
BRANCH   6  29
ATOM     29  C   UNL     1      34.724 -21.382 -18.156  0.00  0.00    +0.117 C 
BRANCH  29  30
ATOM     30  C   UNL     1      34.034 -20.584 -19.219  0.00  0.00    -0.003 C 
ATOM     31  C   UNL     1      34.731 -19.697 -20.055  0.00  0.00    -0.002 C 
ATOM     32  C   UNL     1      34.020 -18.971 -21.041  0.00  0.00    -0.000 C 
ATOM     33  C   UNL     1      32.656 -20.755 -19.354  0.00  0.00    -0.003 C 
ATOM     34  C   UNL     1      36.118 -19.512 -19.934  0.00  0.00    -0.000 C 
ATOM     35  C   UNL     1      32.633 -19.155 -21.161  0.00  0.00    -0.000 C 
ATOM     36  C   UNL     1      31.957 -20.042 -20.323  0.00  0.00    -0.000 C 
ATOM     37  C   UNL     1      34.717 -18.083 -21.877  0.00  0.00    -0.000 C 
ATOM     38  C   UNL     1      36.794 -18.626 -20.773  0.00  0.00    -0.000 C 
ATOM     39  C   UNL     1      36.095 -17.914 -21.742  0.00  0.00    -0.000 C 
ENDBRANCH  29  30
ENDBRANCH   6  29
TORSDOF 9
ENDMDL
MODEL 2
REMARK VINA RESULT:     -11.0      2.961      6.107
REMARK  Name = 46937134
REMARK  9 active torsions:
REMARK  status: ('A' for Active; 'I' for Inactive)
REMARK    1  A    between atoms: N_2  and  C_15
REMARK    2  A    between atoms: N_6  and  C_29
REMARK    3  A    between atoms: C_16  and  O_19
REMARK    4  A    between atoms: C_18  and  C_21
REMARK    5  A    between atoms: C_21  and  O_22
REMARK    6  A    between atoms: O_22  and  P_23
REMARK    7  A    between atoms: P_23  and  O_25
REMARK    8  A    between atoms: P_23  and  O_27
REMARK    9  A    between atoms: C_29  and  C_30
REMARK                            x       y       z     vdW  Elec       q    Type
REMARK                         _______ _______ _______ _____ _____    ______ ____
ROOT
ATOM      1  O   UNL     1      30.118 -22.232 -16.237  0.00  0.00    -0.208 OA
ATOM      2  N   UNL     1      34.035 -23.965 -14.794  0.00  0.00    -0.209 NA
ATOM      3  N   UNL     1      34.107 -22.668 -16.850  0.00  0.00    -0.279 N 
ATOM      4  N   UNL     1      31.836 -23.763 -14.395  0.00  0.00    -0.241 NA
ATOM      5  N   UNL     1      31.983 -21.789 -17.541  0.00  0.00    -0.301 NA
ATOM      6  N   UNL     1      33.940 -21.417 -18.759  0.00  0.00    -0.292 N 
ATOM      7  C   UNL     1      33.508 -23.219 -15.791  0.00  0.00    +0.191 C 
ATOM      8  C   UNL     1      32.978 -24.273 -13.967  0.00  0.00    +0.205 C 
ATOM      9  C   UNL     1      32.172 -23.101 -15.542  0.00  0.00    +0.183 C 
ATOM     10  C   UNL     1      33.282 -21.949 -17.712  0.00  0.00    +0.248 C 
ATOM     11  C   UNL     1      31.320 -22.351 -16.443  0.00  0.00    +0.224 C 
ATOM     12  H   UNL     1      35.074 -22.765 -17.012  0.00  0.00    +0.152 HD
ATOM     13  H   UNL     1      34.909 -21.571 -18.833  0.00  0.00    +0.151 HD
ENDROOT
BRANCH   2  15
ATOM     14  O   UNL     1      35.580 -25.644 -13.914  0.00  0.00    -0.338 OA
ATOM     15  C   UNL     1      35.471 -24.384 -14.604  0.00  0.00    +0.182 C 
ATOM     16  C   UNL     1      37.379 -24.251 -13.221  0.00  0.00    +0.144 C 
ATOM     17  C   UNL     1      36.286 -23.380 -13.795  0.00  0.00    +0.079 C 
ATOM     18  C   UNL     1      36.666 -25.574 -12.968  0.00  0.00    +0.174 C 
BRANCH  16  19
ATOM     19  O   UNL     1      38.382 -24.433 -14.218  0.00  0.00    -0.382 OA
ATOM     20  H   UNL     1      38.770 -25.318 -14.129  0.00  0.00    +0.210 HD
ENDBRANCH  16  19
BRANCH  18  21
ATOM     21  C   UNL     1      36.074 -25.664 -11.568  0.00  0.00    +0.186 C 
BRANCH  21  22
ATOM     22  O   UNL     1      36.547 -24.567 -10.804  0.00  0.00    -0.271 OA
BRANCH  22  23
ATOM     23  P   UNL     1      35.471 -23.500 -10.236  0.00  0.00    +0.473 P 
ATOM     24  O   UNL     1      34.148 -23.497 -10.944  0.00  0.00    -0.227 OA
BRANCH  23  25
ATOM     25  O   UNL     1      35.403 -23.858  -8.661  0.00  0.00    -0.303 OA
ATOM     26  H   UNL     1      34.476 -23.966  -8.394  0.00  0.00    +0.222 HD
ENDBRANCH  23  25
BRANCH  23  27
ATOM     27  O   UNL     1      36.273 -22.095 -10.265  0.00  0.00    -0.303 OA
ATOM     28  H   UNL     1      37.033 -22.145  -9.664  0.00  0.00    +0.222 HD
ENDBRANCH  23  27
ENDBRANCH  22  23
ENDBRANCH  21  22
ENDBRANCH  18  21
ENDBRANCH   2  15
BRANCH   6  29
ATOM     29  C   UNL     1      33.287 -20.631 -19.780  0.00  0.00    +0.117 C 
BRANCH  29  30
ATOM     30  C   UNL     1      34.247 -19.664 -20.401  0.00  0.00    -0.003 C 
ATOM     31  C   UNL     1      33.966 -19.008 -21.611  0.00  0.00    -0.002 C 
ATOM     32  C   UNL     1      34.916 -18.106 -22.146  0.00  0.00    -0.000 C 
ATOM     33  C   UNL     1      35.447 -19.432 -19.728  0.00  0.00    -0.003 C 
ATOM     34  C   UNL     1      32.764 -19.228 -22.302  0.00  0.00    -0.000 C 
ATOM     35  C   UNL     1      36.119 -17.886 -21.456  0.00  0.00    -0.000 C 
ATOM     36  C   UNL     1      36.381 -18.545 -20.254  0.00  0.00    -0.000 C 
ATOM     37  C   UNL     1      34.636 -17.450 -23.357  0.00  0.00    -0.000 C 
ATOM     38  C   UNL     1      32.501 -18.569 -23.503  0.00  0.00    -0.000 C 
ATOM     39  C   UNL     1      33.436 -17.681 -24.028  0.00  0.00    -0.000 C 
ENDBRANCH  29  30
ENDBRANCH   6  29
TORSDOF 9
ENDMDL
MODEL 3
REMARK VINA RESULT:     -10.7      3.231      6.653
REMARK  Name = 46937134
REMARK  9 active torsions:
REMARK  status: ('A' for Active; 'I' for Inactive)
REMARK    1  A    between atoms: N_2  and  C_15
REMARK    2  A    between atoms: N_6  and  C_29
REMARK    3  A    between atoms: C_16  and  O_19
REMARK    4  A    between atoms: C_18  and  C_21
REMARK    5  A    between atoms: C_21  and  O_22
REMARK    6  A    between atoms: O_22  and  P_23
REMARK    7  A    between atoms: P_23  and  O_25
REMARK    8  A    between atoms: P_23  and  O_27
REMARK    9  A    between atoms: C_29  and  C_30
REMARK                            x       y       z     vdW  Elec       q    Type
REMARK                         _______ _______ _______ _____ _____    ______ ____
ROOT
ATOM      1  O   UNL     1      29.936 -23.073 -16.290  0.00  0.00    -0.208 OA
ATOM      2  N   UNL     1      33.313 -23.356 -13.299  0.00  0.00    -0.209 NA
ATOM      3  N   UNL     1      33.881 -22.517 -15.511  0.00  0.00    -0.279 N 
ATOM      4  N   UNL     1      31.123 -23.687 -13.662  0.00  0.00    -0.241 NA
ATOM      5  N   UNL     1      32.027 -22.403 -17.032  0.00  0.00    -0.301 NA
ATOM      6  N   UNL     1      34.184 -21.758 -17.648  0.00  0.00    -0.292 N 
ATOM      7  C   UNL     1      33.053 -22.992 -14.576  0.00  0.00    +0.191 C 
ATOM      8  C   UNL     1      32.107 -23.772 -12.783  0.00  0.00    +0.205 C 
ATOM      9  C   UNL     1      31.721 -23.196 -14.789  0.00  0.00    +0.183 C 
ATOM     10  C   UNL     1      33.305 -22.233 -16.747  0.00  0.00    +0.248 C 
ATOM     11  C   UNL     1      31.129 -22.898 -16.078  0.00  0.00    +0.224 C 
ATOM     12  H   UNL     1      34.840 -22.377 -15.336  0.00  0.00    +0.152 HD
ATOM     13  H   UNL     1      35.125 -21.653 -17.377  0.00  0.00    +0.151 HD
ENDROOT
BRANCH   2  15
ATOM     14  O   UNL     1      35.751 -23.419 -13.475  0.00  0.00    -0.338 OA
ATOM     15  C   UNL     1      34.633 -23.322 -12.572  0.00  0.00    +0.182 C 
ATOM     16  C   UNL     1      36.295 -24.593 -11.480  0.00  0.00    +0.144 C 
ATOM     17  C   UNL     1      34.793 -24.460 -11.569  0.00  0.00    +0.079 C 
ATOM     18  C   UNL     1      36.751 -24.285 -12.901  0.00  0.00    +0.174 C 
BRANCH  16  19
ATOM     19  O   UNL     1      36.787 -23.592 -10.593  0.00  0.00    -0.382 OA
ATOM     20  H   UNL     1      36.043 -23.193 -10.112  0.00  0.00    +0.210 HD
ENDBRANCH  16  19
BRANCH  18  21
ATOM     21  C   UNL     1      36.848 -25.531 -13.771  0.00  0.00    +0.186 C 
BRANCH  21  22
ATOM     22  O   UNL     1      37.989 -26.272 -13.376  0.00  0.00    -0.271 OA
BRANCH  22  23
ATOM     23  P   UNL     1      39.455 -25.678 -13.724  0.00  0.00    +0.473 P 
ATOM     24  O   UNL     1      39.769 -24.355 -13.090  0.00  0.00    -0.227 OA
BRANCH  23  25
ATOM     25  O   UNL     1      40.443 -26.888 -13.308  0.00  0.00    -0.303 OA
ATOM     26  H   UNL     1      41.336 -26.538 -13.155  0.00  0.00    +0.222 HD
ENDBRANCH  23  25
BRANCH  23  27
ATOM     27  O   UNL     1      39.502 -25.699 -15.341  0.00  0.00    -0.303 OA
ATOM     28  H   UNL     1      39.173 -24.854 -15.685  0.00  0.00    +0.222 HD
ENDBRANCH  23  27
ENDBRANCH  22  23
ENDBRANCH  21  22
ENDBRANCH  18  21
ENDBRANCH   2  15
BRANCH   6  29
ATOM     29  C   UNL     1      33.811 -21.395 -18.996  0.00  0.00    +0.117 C 
BRANCH  29  30
ATOM     30  C   UNL     1      34.693 -20.302 -19.515  0.00  0.00    -0.003 C 
ATOM     31  C   UNL     1      34.356 -19.550 -20.652  0.00  0.00    -0.002 C 
ATOM     32  C   UNL     1      35.233 -18.530 -21.093  0.00  0.00    -0.000 C 
ATOM     33  C   UNL     1      35.877 -20.050 -18.821  0.00  0.00    -0.003 C 
ATOM     34  C   UNL     1      33.169 -19.788 -21.363  0.00  0.00    -0.000 C 
ATOM     35  C   UNL     1      36.421 -18.293 -20.383  0.00  0.00    -0.000 C 
ATOM     36  C   UNL     1      36.739 -19.048 -19.254  0.00  0.00    -0.000 C 
ATOM     37  C   UNL     1      34.897 -17.779 -22.232  0.00  0.00    -0.000 C 
ATOM     38  C   UNL     1      32.850 -19.033 -22.492  0.00  0.00    -0.000 C 
ATOM     39  C   UNL     1      33.713 -18.030 -22.924  0.00  0.00    -0.000 C 
ENDBRANCH  29  30
ENDBRANCH   6  29
TORSDOF 9
ENDMDL
MODEL 4
REMARK VINA RESULT:     -10.3     11.541     15.004
REMARK  Name = 46937134
REMARK  9 active torsions:
REMARK  status: ('A' for Active; 'I' for Inactive)
REMARK    1  A    between atoms: N_2  and  C_15
REMARK    2  A    between atoms: N_6  and  C_29
REMARK    3  A    between atoms: C_16  and  O_19
REMARK    4  A    between atoms: C_18  and  C_21
REMARK    5  A    between atoms: C_21  and  O_22
REMARK    6  A    between atoms: O_22  and  P_23
REMARK    7  A    between atoms: P_23  and  O_25
REMARK    8  A    between atoms: P_23  and  O_27
REMARK    9  A    between atoms: C_29  and  C_30
REMARK                            x       y       z     vdW  Elec       q    Type
REMARK                         _______ _______ _______ _____ _____    ______ ____
ROOT
ATOM      1  O   UNL     1      31.105  -9.652 -17.499  0.00  0.00    -0.208 OA
ATOM      2  N   UNL     1      30.972  -6.883 -21.070  0.00  0.00    -0.209 NA
ATOM      3  N   UNL     1      31.360  -9.240 -21.530  0.00  0.00    -0.279 N 
ATOM      4  N   UNL     1      30.821  -7.039 -18.836  0.00  0.00    -0.241 NA
ATOM      5  N   UNL     1      31.417 -10.633 -19.575  0.00  0.00    -0.301 NA
ATOM      6  N   UNL     1      31.713 -11.493 -21.726  0.00  0.00    -0.292 N 
ATOM      7  C   UNL     1      31.141  -8.185 -20.741  0.00  0.00    +0.191 C 
ATOM      8  C   UNL     1      30.781  -6.225 -19.876  0.00  0.00    +0.205 C 
ATOM      9  C   UNL     1      31.047  -8.271 -19.383  0.00  0.00    +0.183 C 
ATOM     10  C   UNL     1      31.494 -10.466 -20.883  0.00  0.00    +0.248 C 
ATOM     11  C   UNL     1      31.187  -9.551 -18.717  0.00  0.00    +0.224 C 
ATOM     12  H   UNL     1      31.425  -9.156 -22.509  0.00  0.00    +0.152 HD
ATOM     13  H   UNL     1      31.761 -11.305 -22.691  0.00  0.00    +0.151 HD
ENDROOT
BRANCH   2  15
ATOM     14  O   UNL     1      31.502  -7.163 -23.441  0.00  0.00    -0.338 OA
ATOM     15  C   UNL     1      30.988  -6.261 -22.443  0.00  0.00    +0.182 C 
ATOM     16  C   UNL     1      32.213  -4.959 -23.985  0.00  0.00    +0.144 C 
ATOM     17  C   UNL     1      31.846  -5.002 -22.519  0.00  0.00    +0.079 C 
ATOM     18  C   UNL     1      32.356  -6.433 -24.344  0.00  0.00    +0.174 C 
BRANCH  16  19
ATOM     19  O   UNL     1      31.122  -4.395 -24.708  0.00  0.00    -0.382 OA
ATOM     20  H   UNL     1      31.460  -3.762 -25.361  0.00  0.00    +0.210 HD
ENDBRANCH  16  19
BRANCH  18  21
ATOM     21  C   UNL     1      33.779  -6.947 -24.163  0.00  0.00    +0.186 C 
BRANCH  21  22
ATOM     22  O   UNL     1      33.739  -8.124 -23.374  0.00  0.00    -0.271 OA
BRANCH  22  23
ATOM     23  P   UNL     1      33.880  -9.556 -24.116  0.00  0.00    +0.473 P 
ATOM     24  O   UNL     1      34.932  -9.615 -25.184  0.00  0.00    -0.227 OA
BRANCH  23  25
ATOM     25  O   UNL     1      34.099 -10.580 -22.884  0.00  0.00    -0.303 OA
ATOM     26  H   UNL     1      34.888 -10.319 -22.382  0.00  0.00    +0.222 HD
ENDBRANCH  23  25
BRANCH  23  27
ATOM     27  O   UNL     1      32.375  -9.882 -24.609  0.00  0.00    -0.303 OA
ATOM     28  H   UNL     1      32.406 -10.324 -25.471  0.00  0.00    +0.222 HD
ENDBRANCH  23  27
ENDBRANCH  22  23
ENDBRANCH  21  22
ENDBRANCH  18  21
ENDBRANCH   2  15
BRANCH   6  29
ATOM     29  C   UNL     1      31.882 -12.856 -21.279  0.00  0.00    +0.117 C 
BRANCH  29  30
ATOM     30  C   UNL     1      32.427 -13.712 -22.379  0.00  0.00    -0.003 C 
ATOM     31  C   UNL     1      33.198 -14.857 -22.120  0.00  0.00    -0.002 C 
ATOM     32  C   UNL     1      33.685 -15.624 -23.206  0.00  0.00    -0.000 C 
ATOM     33  C   UNL     1      32.138 -13.331 -23.690  0.00  0.00    -0.003 C 
ATOM     34  C   UNL     1      33.499 -15.256 -20.808  0.00  0.00    -0.000 C 
ATOM     35  C   UNL     1      33.385 -15.224 -24.518  0.00  0.00    -0.000 C 
ATOM     36  C   UNL     1      32.616 -14.085 -24.757  0.00  0.00    -0.000 C 
ATOM     37  C   UNL     1      34.458 -16.768 -22.947  0.00  0.00    -0.000 C 
ATOM     38  C   UNL     1      34.268 -16.395 -20.569  0.00  0.00    -0.000 C 
ATOM     39  C   UNL     1      34.746 -17.150 -21.636  0.00  0.00    -0.000 C 
ENDBRANCH  29  30
ENDBRANCH   6  29
TORSDOF 9
ENDMDL
MODEL 5
REMARK VINA RESULT:     -10.2      0.839      2.231
REMARK  Name = 46937134
REMARK  9 active torsions:
REMARK  status: ('A' for Active; 'I' for Inactive)
REMARK    1  A    between atoms: N_2  and  C_15
REMARK    2  A    between atoms: N_6  and  C_29
REMARK    3  A    between atoms: C_16  and  O_19
REMARK    4  A    between atoms: C_18  and  C_21
REMARK    5  A    between atoms: C_21  and  O_22
REMARK    6  A    between atoms: O_22  and  P_23
REMARK    7  A    between atoms: P_23  and  O_25
REMARK    8  A    between atoms: P_23  and  O_27
REMARK    9  A    between atoms: C_29  and  C_30
REMARK                            x       y       z     vdW  Elec       q    Type
REMARK                         _______ _______ _______ _____ _____    ______ ____
ROOT
ATOM      1  O   UNL     1      36.763 -22.267 -12.619  0.00  0.00    -0.208 OA
ATOM      2  N   UNL     1      32.708 -24.176 -13.202  0.00  0.00    -0.209 NA
ATOM      3  N   UNL     1      33.744 -23.192 -15.170  0.00  0.00    -0.279 N 
ATOM      4  N   UNL     1      34.339 -23.696 -11.738  0.00  0.00    -0.241 NA
ATOM      5  N   UNL     1      35.893 -22.201 -14.766  0.00  0.00    -0.301 NA
ATOM      6  N   UNL     1      34.903 -22.207 -16.880  0.00  0.00    -0.292 N 
ATOM      7  C   UNL     1      33.682 -23.526 -13.878  0.00  0.00    +0.191 C 
ATOM      8  C   UNL     1      33.153 -24.256 -11.902  0.00  0.00    +0.205 C 
ATOM      9  C   UNL     1      34.670 -23.238 -12.982  0.00  0.00    +0.183 C 
ATOM     10  C   UNL     1      34.895 -22.517 -15.570  0.00  0.00    +0.248 C 
ATOM     11  C   UNL     1      35.864 -22.535 -13.406  0.00  0.00    +0.224 C 
ATOM     12  H   UNL     1      33.020 -23.410 -15.802  0.00  0.00    +0.152 HD
ATOM     13  H   UNL     1      34.129 -22.468 -17.429  0.00  0.00    +0.151 HD
ENDROOT
BRANCH   2  15
ATOM     14  O   UNL     1      30.968 -24.001 -14.911  0.00  0.00    -0.338 OA
ATOM     15  C   UNL     1      31.402 -24.709 -13.735  0.00  0.00    +0.182 C 
ATOM     16  C   UNL     1      29.048 -24.574 -13.630  0.00  0.00    +0.144 C 
ATOM     17  C   UNL     1      30.260 -24.610 -12.728  0.00  0.00    +0.079 C 
ATOM     18  C   UNL     1      29.543 -23.790 -14.839  0.00  0.00    +0.174 C 
BRANCH  16  19
ATOM     19  O   UNL     1      28.736 -25.909 -14.022  0.00  0.00    -0.382 OA
ATOM     20  H   UNL     1      29.464 -26.268 -14.554  0.00  0.00    +0.210 HD
ENDBRANCH  16  19
BRANCH  18  21
ATOM     21  C   UNL     1      29.297 -22.292 -14.709  0.00  0.00    +0.186 C 
BRANCH  21  22
ATOM     22  O   UNL     1      28.510 -21.865 -15.808  0.00  0.00    -0.271 OA
BRANCH  22  23
ATOM     23  P   UNL     1      27.006 -22.447 -15.953  0.00  0.00    +0.473 P 
ATOM     24  O   UNL     1      26.912 -23.813 -16.567  0.00  0.00    -0.227 OA
BRANCH  23  25
ATOM     25  O   UNL     1      26.428 -22.334 -14.447  0.00  0.00    -0.303 OA
ATOM     26  H   UNL     1      25.884 -21.535 -14.369  0.00  0.00    +0.222 HD
ENDBRANCH  23  25
BRANCH  23  27
ATOM     27  O   UNL     1      26.217 -21.277 -16.743  0.00  0.00    -0.303 OA
ATOM     28  H   UNL     1      26.358 -21.380 -17.697  0.00  0.00    +0.222 HD
ENDBRANCH  23  27
ENDBRANCH  22  23
ENDBRANCH  21  22
ENDBRANCH  18  21
ENDBRANCH   2  15
BRANCH   6  29
ATOM     29  C   UNL     1      35.995 -21.506 -17.516  0.00  0.00    +0.117 C 
BRANCH  29  30
ATOM     30  C   UNL     1      35.492 -20.631 -18.622  0.00  0.00    -0.003 C 
ATOM     31  C   UNL     1      34.135 -20.592 -18.983  0.00  0.00    -0.002 C 
ATOM     32  C   UNL     1      33.723 -19.744 -20.038  0.00  0.00    -0.000 C 
ATOM     33  C   UNL     1      36.428 -19.843 -19.291  0.00  0.00    -0.003 C 
ATOM     34  C   UNL     1      33.178 -21.378 -18.321  0.00  0.00    -0.000 C 
ATOM     35  C   UNL     1      34.680 -18.959 -20.701  0.00  0.00    -0.000 C 
ATOM     36  C   UNL     1      36.024 -19.008 -20.328  0.00  0.00    -0.000 C 
ATOM     37  C   UNL     1      32.366 -19.706 -20.400  0.00  0.00    -0.000 C 
ATOM     38  C   UNL     1      31.835 -21.328 -18.693  0.00  0.00    -0.000 C 
ATOM     39  C   UNL     1      31.430 -20.493 -19.730  0.00  0.00    -0.000 C 
ENDBRANCH  29  30
ENDBRANCH   6  29
TORSDOF 9
ENDMDL
MODEL 6
REMARK VINA RESULT:     -10.2      3.946      6.692
REMARK  Name = 46937134
REMARK  9 active torsions:
REMARK  status: ('A' for Active; 'I' for Inactive)
REMARK    1  A    between atoms: N_2  and  C_15
REMARK    2  A    between atoms: N_6  and  C_29
REMARK    3  A    between atoms: C_16  and  O_19
REMARK    4  A    between atoms: C_18  and  C_21
REMARK    5  A    between atoms: C_21  and  O_22
REMARK    6  A    between atoms: O_22  and  P_23
REMARK    7  A    between atoms: P_23  and  O_25
REMARK    8  A    between atoms: P_23  and  O_27
REMARK    9  A    between atoms: C_29  and  C_30
REMARK                            x       y       z     vdW  Elec       q    Type
REMARK                         _______ _______ _______ _____ _____    ______ ____
ROOT
ATOM      1  O   UNL     1      30.853 -20.135 -20.193  0.00  0.00    -0.208 OA
ATOM      2  N   UNL     1      33.884 -21.995 -17.404  0.00  0.00    -0.209 NA
ATOM      3  N   UNL     1      34.752 -20.516 -19.130  0.00  0.00    -0.279 N 
ATOM      4  N   UNL     1      31.711 -21.830 -17.938  0.00  0.00    -0.241 NA
ATOM      5  N   UNL     1      33.071 -19.577 -20.563  0.00  0.00    -0.301 NA
ATOM      6  N   UNL     1      35.341 -19.096 -20.824  0.00  0.00    -0.292 N 
ATOM      7  C   UNL     1      33.789 -21.161 -18.465  0.00  0.00    +0.191 C 
ATOM      8  C   UNL     1      32.593 -22.377 -17.119  0.00  0.00    +0.205 C 
ATOM      9  C   UNL     1      32.466 -21.065 -18.783  0.00  0.00    +0.183 C 
ATOM     10  C   UNL     1      34.330 -19.721 -20.192  0.00  0.00    +0.248 C 
ATOM     11  C   UNL     1      32.035 -20.236 -19.890  0.00  0.00    +0.224 C 
ATOM     12  H   UNL     1      35.702 -20.599 -18.883  0.00  0.00    +0.152 HD
ATOM     13  H   UNL     1      36.259 -19.244 -20.502  0.00  0.00    +0.151 HD
ENDROOT
BRANCH   2  15
ATOM     14  O   UNL     1      34.874 -23.536 -15.784  0.00  0.00    -0.338 OA
ATOM     15  C   UNL     1      35.128 -22.431 -16.672  0.00  0.00    +0.182 C 
ATOM     16  C   UNL     1      36.487 -22.114 -14.768  0.00  0.00    +0.144 C 
ATOM     17  C   UNL     1      35.738 -21.325 -15.816  0.00  0.00    +0.079 C 
ATOM     18  C   UNL     1      35.595 -23.330 -14.552  0.00  0.00    +0.174 C 
BRANCH  16  19
ATOM     19  O   UNL     1      37.734 -22.529 -15.320  0.00  0.00    -0.382 OA
ATOM     20  H   UNL     1      37.712 -23.485 -15.486  0.00  0.00    +0.210 HD
ENDBRANCH  16  19
BRANCH  18  21
ATOM     21  C   UNL     1      34.574 -23.121 -13.441  0.00  0.00    +0.186 C 
BRANCH  21  22
ATOM     22  O   UNL     1      35.258 -23.081 -12.200  0.00  0.00    -0.271 OA
BRANCH  22  23
ATOM     23  P   UNL     1      35.008 -24.280 -11.141  0.00  0.00    +0.473 P 
ATOM     24  O   UNL     1      35.488 -24.004  -9.747  0.00  0.00    -0.227 OA
BRANCH  23  25
ATOM     25  O   UNL     1      33.420 -24.555 -11.275  0.00  0.00    -0.303 OA
ATOM     26  H   UNL     1      32.991 -23.784 -11.679  0.00  0.00    +0.222 HD
ENDBRANCH  23  25
BRANCH  23  27
ATOM     27  O   UNL     1      35.671 -25.569 -11.859  0.00  0.00    -0.303 OA
ATOM     28  H   UNL     1      36.598 -25.649 -11.587  0.00  0.00    +0.222 HD
ENDBRANCH  23  27
ENDBRANCH  22  23
ENDBRANCH  21  22
ENDBRANCH  18  21
ENDBRANCH   2  15
BRANCH   6  29
ATOM     29  C   UNL     1      35.140 -18.220 -21.955  0.00  0.00    +0.117 C 
BRANCH  29  30
ATOM     30  C   UNL     1      34.508 -16.933 -21.523  0.00  0.00    -0.003 C 
ATOM     31  C   UNL     1      33.954 -16.028 -22.445  0.00  0.00    -0.002 C 
ATOM     32  C   UNL     1      33.372 -14.828 -21.972  0.00  0.00    -0.000 C 
ATOM     33  C   UNL     1      34.485 -16.658 -20.156  0.00  0.00    -0.003 C 
ATOM     34  C   UNL     1      33.968 -16.288 -23.825  0.00  0.00    -0.000 C 
ATOM     35  C   UNL     1      33.359 -14.568 -20.593  0.00  0.00    -0.000 C 
ATOM     36  C   UNL     1      33.912 -15.478 -19.691  0.00  0.00    -0.000 C 
ATOM     37  C   UNL     1      32.820 -13.923 -22.894  0.00  0.00    -0.000 C 
ATOM     38  C   UNL     1      33.415 -15.378 -24.726  0.00  0.00    -0.000 C 
ATOM     39  C   UNL     1      32.841 -14.199 -24.261  0.00  0.00    -0.000 C 
ENDBRANCH  29  30
ENDBRANCH   6  29
TORSDOF 9
ENDMDL
MODEL 7
REMARK VINA RESULT:     -10.0      2.475      5.482
REMARK  Name = 46937134
REMARK  9 active torsions:
REMARK  status: ('A' for Active; 'I' for Inactive)
REMARK    1  A    between atoms: N_2  and  C_15
REMARK    2  A    between atoms: N_6  and  C_29
REMARK    3  A    between atoms: C_16  and  O_19
REMARK    4  A    between atoms: C_18  and  C_21
REMARK    5  A    between atoms: C_21  and  O_22
REMARK    6  A    between atoms: O_22  and  P_23
REMARK    7  A    between atoms: P_23  and  O_25
REMARK    8  A    between atoms: P_23  and  O_27
REMARK    9  A    between atoms: C_29  and  C_30
REMARK                            x       y       z     vdW  Elec       q    Type
REMARK                         _______ _______ _______ _____ _____    ______ ____
ROOT
ATOM      1  O   UNL     1      28.938 -22.024 -16.144  0.00  0.00    -0.208 OA
ATOM      2  N   UNL     1      32.152 -24.160 -13.791  0.00  0.00    -0.209 NA
ATOM      3  N   UNL     1      32.836 -23.129 -15.885  0.00  0.00    -0.279 N 
ATOM      4  N   UNL     1      29.985 -23.582 -13.871  0.00  0.00    -0.241 NA
ATOM      5  N   UNL     1      31.064 -22.020 -17.066  0.00  0.00    -0.301 NA
ATOM      6  N   UNL     1      33.251 -22.090 -17.881  0.00  0.00    -0.292 N 
ATOM      7  C   UNL     1      31.960 -23.460 -14.932  0.00  0.00    +0.191 C 
ATOM      8  C   UNL     1      30.921 -24.209 -13.178  0.00  0.00    +0.205 C 
ATOM      9  C   UNL     1      30.642 -23.112 -14.973  0.00  0.00    +0.183 C 
ATOM     10  C   UNL     1      32.326 -22.394 -16.952  0.00  0.00    +0.248 C 
ATOM     11  C   UNL     1      30.118 -22.347 -16.087  0.00  0.00    +0.224 C 
ATOM     12  H   UNL     1      33.785 -23.390 -15.836  0.00  0.00    +0.152 HD
ATOM     13  H   UNL     1      34.176 -22.397 -17.741  0.00  0.00    +0.151 HD
ENDROOT
BRANCH   2  15
ATOM     14  O   UNL     1      34.076 -23.930 -12.298  0.00  0.00    -0.338 OA
ATOM     15  C   UNL     1      33.432 -24.769 -13.276  0.00  0.00    +0.182 C 
ATOM     16  C   UNL     1      35.759 -24.990 -13.601  0.00  0.00    +0.144 C 
ATOM     17  C   UNL     1      34.462 -25.015 -14.375  0.00  0.00    +0.079 C 
ATOM     18  C   UNL     1      35.499 -23.940 -12.529  0.00  0.00    +0.174 C 
BRANCH  16  19
ATOM     19  O   UNL     1      35.944 -26.264 -12.988  0.00  0.00    -0.382 OA
ATOM     20  H   UNL     1      36.835 -26.593 -13.189  0.00  0.00    +0.210 HD
ENDBRANCH  16  19
BRANCH  18  21
ATOM     21  C   UNL     1      35.913 -22.540 -12.964  0.00  0.00    +0.186 C 
BRANCH  21  22
ATOM     22  O   UNL     1      35.405 -22.301 -14.265  0.00  0.00    -0.271 OA
BRANCH  22  23
ATOM     23  P   UNL     1      36.448 -21.935 -15.447  0.00  0.00    +0.473 P 
ATOM     24  O   UNL     1      36.798 -20.479 -15.554  0.00  0.00    -0.227 OA
BRANCH  23  25
ATOM     25  O   UNL     1      37.697 -22.917 -15.144  0.00  0.00    -0.303 OA
ATOM     26  H   UNL     1      38.438 -22.398 -14.794  0.00  0.00    +0.222 HD
ENDBRANCH  23  25
BRANCH  23  27
ATOM     27  O   UNL     1      35.775 -22.584 -16.767  0.00  0.00    -0.303 OA
ATOM     28  H   UNL     1      35.665 -23.538 -16.637  0.00  0.00    +0.222 HD
ENDBRANCH  23  27
ENDBRANCH  22  23
ENDBRANCH  21  22
ENDBRANCH  18  21
ENDBRANCH   2  15
BRANCH   6  29
ATOM     29  C   UNL     1      32.949 -21.333 -19.074  0.00  0.00    +0.117 C 
BRANCH  29  30
ATOM     30  C   UNL     1      34.115 -20.482 -19.473  0.00  0.00    -0.003 C 
ATOM     31  C   UNL     1      34.074 -19.640 -20.596  0.00  0.00    -0.002 C 
ATOM     32  C   UNL     1      35.210 -18.861 -20.920  0.00  0.00    -0.000 C 
ATOM     33  C   UNL     1      35.261 -20.554 -18.679  0.00  0.00    -0.003 C 
ATOM     34  C   UNL     1      32.930 -19.555 -21.406  0.00  0.00    -0.000 C 
ATOM     35  C   UNL     1      36.355 -18.947 -20.111  0.00  0.00    -0.000 C 
ATOM     36  C   UNL     1      36.378 -19.788 -18.998  0.00  0.00    -0.000 C 
ATOM     37  C   UNL     1      35.169 -18.020 -22.044  0.00  0.00    -0.000 C 
ATOM     38  C   UNL     1      32.906 -18.714 -22.519  0.00  0.00    -0.000 C 
ATOM     39  C   UNL     1      34.024 -17.948 -22.836  0.00  0.00    -0.000 C 
ENDBRANCH  29  30
ENDBRANCH   6  29
TORSDOF 9
ENDMDL
MODEL 8
REMARK VINA RESULT:      -9.7      7.215     10.670
REMARK  Name = 46937134
REMARK  9 active torsions:
REMARK  status: ('A' for Active; 'I' for Inactive)
REMARK    1  A    between atoms: N_2  and  C_15
REMARK    2  A    between atoms: N_6  and  C_29
REMARK    3  A    between atoms: C_16  and  O_19
REMARK    4  A    between atoms: C_18  and  C_21
REMARK    5  A    between atoms: C_21  and  O_22
REMARK    6  A    between atoms: O_22  and  P_23
REMARK    7  A    between atoms: P_23  and  O_25
REMARK    8  A    between atoms: P_23  and  O_27
REMARK    9  A    between atoms: C_29  and  C_30
REMARK                            x       y       z     vdW  Elec       q    Type
REMARK                         _______ _______ _______ _____ _____    ______ ____
ROOT
ATOM      1  O   UNL     1      31.387 -15.612 -25.775  0.00  0.00    -0.208 OA
ATOM      2  N   UNL     1      34.124 -17.783 -22.908  0.00  0.00    -0.209 NA
ATOM      3  N   UNL     1      34.026 -15.361 -22.701  0.00  0.00    -0.279 N 
ATOM      4  N   UNL     1      32.673 -17.993 -24.607  0.00  0.00    -0.241 NA
ATOM      5  N   UNL     1      32.549 -14.294 -24.265  0.00  0.00    -0.301 NA
ATOM      6  N   UNL     1      33.778 -13.086 -22.689  0.00  0.00    -0.292 N 
ATOM      7  C   UNL     1      33.698 -16.541 -23.235  0.00  0.00    +0.191 C 
ATOM      8  C   UNL     1      33.472 -18.634 -23.771  0.00  0.00    +0.205 C 
ATOM      9  C   UNL     1      32.817 -16.677 -24.267  0.00  0.00    +0.183 C 
ATOM     10  C   UNL     1      33.411 -14.246 -23.265  0.00  0.00    +0.248 C 
ATOM     11  C   UNL     1      32.181 -15.512 -24.848  0.00  0.00    +0.224 C 
ATOM     12  H   UNL     1      34.665 -15.285 -21.955  0.00  0.00    +0.152 HD
ATOM     13  H   UNL     1      34.425 -13.114 -21.947  0.00  0.00    +0.151 HD
ENDROOT
BRANCH   2  15
ATOM     14  O   UNL     1      35.087 -19.595 -21.579  0.00  0.00    -0.338 OA
ATOM     15  C   UNL     1      35.104 -18.178 -21.832  0.00  0.00    +0.182 C 
ATOM     16  C   UNL     1      35.449 -18.470 -19.515  0.00  0.00    +0.144 C 
ATOM     17  C   UNL     1      34.828 -17.500 -20.493  0.00  0.00    +0.079 C 
ATOM     18  C   UNL     1      35.179 -19.824 -20.158  0.00  0.00    +0.174 C 
BRANCH  16  19
ATOM     19  O   UNL     1      36.854 -18.232 -19.474  0.00  0.00    -0.382 OA
ATOM     20  H   UNL     1      37.318 -19.066 -19.294  0.00  0.00    +0.210 HD
ENDBRANCH  16  19
BRANCH  18  21
ATOM     21  C   UNL     1      33.866 -20.443 -19.697  0.00  0.00    +0.186 C 
BRANCH  21  22
ATOM     22  O   UNL     1      34.117 -21.236 -18.550  0.00  0.00    -0.271 OA
BRANCH  22  23
ATOM     23  P   UNL     1      32.928 -22.183 -17.990  0.00  0.00    +0.473 P 
ATOM     24  O   UNL     1      31.566 -21.554 -17.987  0.00  0.00    -0.227 OA
BRANCH  23  25
ATOM     25  O   UNL     1      33.065 -23.511 -18.902  0.00  0.00    -0.303 OA
ATOM     26  H   UNL     1      33.804 -23.404 -19.521  0.00  0.00    +0.222 HD
ENDBRANCH  23  25
BRANCH  23  27
ATOM     27  O   UNL     1      33.471 -22.665 -16.545  0.00  0.00    -0.303 OA
ATOM     28  H   UNL     1      33.945 -21.935 -16.118  0.00  0.00    +0.222 HD
ENDBRANCH  23  27
ENDBRANCH  22  23
ENDBRANCH  21  22
ENDBRANCH  18  21
ENDBRANCH   2  15
BRANCH   6  29
ATOM     29  C   UNL     1      33.266 -11.802 -23.110  0.00  0.00    +0.117 C 
BRANCH  29  30
ATOM     30  C   UNL     1      32.264 -11.282 -22.127  0.00  0.00    -0.003 C 
ATOM     31  C   UNL     1      31.882  -9.931 -22.096  0.00  0.00    -0.002 C 
ATOM     32  C   UNL     1      30.930  -9.502 -21.141  0.00  0.00    -0.000 C 
ATOM     33  C   UNL     1      31.711 -12.198 -21.231  0.00  0.00    -0.003 C 
ATOM     34  C   UNL     1      32.427  -8.995 -22.990  0.00  0.00    -0.000 C 
ATOM     35  C   UNL     1      30.386 -10.437 -20.246  0.00  0.00    -0.000 C 
ATOM     36  C   UNL     1      30.775 -11.776 -20.292  0.00  0.00    -0.000 C 
ATOM     37  C   UNL     1      30.549  -8.150 -21.109  0.00  0.00    -0.000 C 
ATOM     38  C   UNL     1      32.038  -7.656 -22.945  0.00  0.00    -0.000 C 
ATOM     39  C   UNL     1      31.100  -7.235 -22.006  0.00  0.00    -0.000 C 
ENDBRANCH  29  30
ENDBRANCH   6  29
TORSDOF 9
ENDMDL
MODEL 9
REMARK VINA RESULT:      -9.6     12.069     15.409
REMARK  Name = 46937134
REMARK  9 active torsions:
REMARK  status: ('A' for Active; 'I' for Inactive)
REMARK    1  A    between atoms: N_2  and  C_15
REMARK    2  A    between atoms: N_6  and  C_29
REMARK    3  A    between atoms: C_16  and  O_19
REMARK    4  A    between atoms: C_18  and  C_21
REMARK    5  A    between atoms: C_21  and  O_22
REMARK    6  A    between atoms: O_22  and  P_23
REMARK    7  A    between atoms: P_23  and  O_25
REMARK    8  A    between atoms: P_23  and  O_27
REMARK    9  A    between atoms: C_29  and  C_30
REMARK                            x       y       z     vdW  Elec       q    Type
REMARK                         _______ _______ _______ _____ _____    ______ ____
ROOT
ATOM      1  O   UNL     1      35.058  -9.658 -25.518  0.00  0.00    -0.208 OA
ATOM      2  N   UNL     1      32.533  -7.691 -22.326  0.00  0.00    -0.209 NA
ATOM      3  N   UNL     1      32.444 -10.119 -22.446  0.00  0.00    -0.279 N 
ATOM      4  N   UNL     1      33.975  -7.365 -24.015  0.00  0.00    -0.241 NA
ATOM      5  N   UNL     1      33.814 -11.075 -24.170  0.00  0.00    -0.301 NA
ATOM      6  N   UNL     1      32.515 -12.387 -22.741  0.00  0.00    -0.292 N 
ATOM      7  C   UNL     1      32.857  -8.906 -22.825  0.00  0.00    +0.191 C 
ATOM      8  C   UNL     1      33.239  -6.783 -23.084  0.00  0.00    +0.205 C 
ATOM      9  C   UNL     1      33.733  -8.700 -23.850  0.00  0.00    +0.183 C 
ATOM     10  C   UNL     1      32.964 -11.191 -23.166  0.00  0.00    +0.248 C 
ATOM     11  C   UNL     1      34.270  -9.821 -24.595  0.00  0.00    +0.224 C 
ATOM     12  H   UNL     1      31.811 -10.246 -21.702  0.00  0.00    +0.152 HD
ATOM     13  H   UNL     1      31.881 -12.410 -21.988  0.00  0.00    +0.151 HD
ENDROOT
BRANCH   2  15
ATOM     14  O   UNL     1      30.480  -6.572 -21.611  0.00  0.00    -0.338 OA
ATOM     15  C   UNL     1      31.600  -7.371 -21.186  0.00  0.00    +0.182 C 
ATOM     16  C   UNL     1      31.108  -5.880 -19.424  0.00  0.00    +0.144 C 
ATOM     17  C   UNL     1      32.277  -6.597 -20.059  0.00  0.00    +0.079 C 
ATOM     18  C   UNL     1      30.211  -5.564 -20.615  0.00  0.00    +0.174 C 
BRANCH  16  19
ATOM     19  O   UNL     1      30.440  -6.788 -18.551  0.00  0.00    -0.382 OA
ATOM     20  H   UNL     1      30.744  -7.692 -18.732  0.00  0.00    +0.210 HD
ENDBRANCH  16  19
BRANCH  18  21
ATOM     21  C   UNL     1      30.510  -4.204 -21.231  0.00  0.00    +0.186 C 
BRANCH  21  22
ATOM     22  O   UNL     1      29.437  -3.849 -22.088  0.00  0.00    -0.271 OA
BRANCH  22  23
ATOM     23  P   UNL     1      29.750  -3.608 -23.658  0.00  0.00    +0.473 P 
ATOM     24  O   UNL     1      28.683  -2.867 -24.409  0.00  0.00    -0.227 OA
BRANCH  23  25
ATOM     25  O   UNL     1      31.195  -2.884 -23.632  0.00  0.00    -0.303 OA
ATOM     26  H   UNL     1      31.580  -2.898 -24.523  0.00  0.00    +0.222 HD
ENDBRANCH  23  25
BRANCH  23  27
ATOM     27  O   UNL     1      30.085  -5.089 -24.214  0.00  0.00    -0.303 OA
ATOM     28  H   UNL     1      30.113  -5.072 -25.183  0.00  0.00    +0.222 HD
ENDBRANCH  23  27
ENDBRANCH  22  23
ENDBRANCH  21  22
ENDBRANCH  18  21
ENDBRANCH   2  15
BRANCH   6  29
ATOM     29  C   UNL     1      32.920 -13.638 -23.340  0.00  0.00    +0.117 C 
BRANCH  29  30
ATOM     30  C   UNL     1      33.329 -14.622 -22.288  0.00  0.00    -0.003 C 
ATOM     31  C   UNL     1      33.610 -15.964 -22.593  0.00  0.00    -0.002 C 
ATOM     32  C   UNL     1      33.992 -16.845 -21.553  0.00  0.00    -0.000 C 
ATOM     33  C   UNL     1      33.425 -14.155 -20.977  0.00  0.00    -0.003 C 
ATOM     34  C   UNL     1      33.519 -16.452 -23.906  0.00  0.00    -0.000 C 
ATOM     35  C   UNL     1      34.082 -16.358 -20.239  0.00  0.00    -0.000 C 
ATOM     36  C   UNL     1      33.801 -15.021 -19.955  0.00  0.00    -0.000 C 
ATOM     37  C   UNL     1      34.272 -18.187 -21.857  0.00  0.00    -0.000 C 
ATOM     38  C   UNL     1      33.801 -17.788 -24.191  0.00  0.00    -0.000 C 
ATOM     39  C   UNL     1      34.177 -18.654 -23.168  0.00  0.00    -0.000 C 
ENDBRANCH  29  30
ENDBRANCH   6  29
TORSDOF 9
ENDMDL
