MODEL 1
REMARK VINA RESULT:     -12.1      0.000      0.000
REMARK  Name = 11538992
REMARK  4 active torsions:
REMARK  status: ('A' for Active; 'I' for Inactive)
REMARK    1  A    between atoms: C_1  and  N_7
REMARK    2  A    between atoms: C_3  and  C_24
REMARK    3  A    between atoms: C_4  and  N_30
REMARK    4  A    between atoms: C_15  and  C_20
REMARK                            x       y       z     vdW  Elec       q    Type
REMARK                         _______ _______ _______ _____ _____    ______ ____
ROOT
ATOM      1  C   UNL     1      34.353 -21.316 -18.966  0.00  0.00    -0.059 C 
ATOM      2  C   UNL     1      35.523 -20.327 -18.953  0.00  0.00    -0.042 C 
ATOM      3  C   UNL     1      34.160 -18.698 -20.358  0.00  0.00    +0.005 C 
ATOM      4  C   UNL     1      35.517 -19.434 -20.206  0.00  0.00    -0.064 C 
ATOM      5  C   UNL     1      33.015 -20.583 -19.096  0.00  0.00    -0.021 C 
ATOM      6  C   UNL     1      32.988 -19.699 -20.341  0.00  0.00    +0.000 C 
ENDROOT
BRANCH   1   7
ATOM      7  N   UNL     1      34.363 -22.111 -17.738  0.00  0.00    +0.394 N 
ATOM      8  N   UNL     1      34.137 -22.940 -15.090  0.00  0.00    -0.299 N 
ATOM      9  N   UNL     1      32.011 -23.423 -15.178  0.00  0.00    -0.136 NA
ATOM     10  N   UNL     1      32.522 -23.866 -13.968  0.00  0.00    -0.125 NA
ATOM     11  C   UNL     1      35.301 -21.542 -16.753  0.00  0.00    -0.052 C 
ATOM     12  C   UNL     1      32.999 -22.207 -17.176  0.00  0.00    -0.009 C 
ATOM     13  C   UNL     1      35.427 -22.468 -15.534  0.00  0.00    +0.086 C 
ATOM     14  C   UNL     1      33.002 -22.870 -15.845  0.00  0.00    +0.122 A 
ATOM     15  C   UNL     1      33.803 -23.567 -13.938  0.00  0.00    +0.238 A 
ATOM     16  H   UNL     1      34.682 -23.053 -17.966  0.00  0.00    -0.079 HD
BRANCH  15  20
ATOM     17  F   UNL     1      35.831 -24.623 -13.235  0.00  0.00    -0.163 F 
ATOM     18  F   UNL     1      35.325 -22.738 -12.290  0.00  0.00    -0.163 F 
ATOM     19  F   UNL     1      34.199 -24.533 -11.802  0.00  0.00    -0.163 F 
ATOM     20  C   UNL     1      34.758 -23.854 -12.855  0.00  0.00    +0.452 C 
ENDBRANCH  15  20
ENDBRANCH   1   7
BRANCH   3  24
ATOM     21  F   UNL     1      33.922 -19.743 -22.986  0.00  0.00    -0.204 F 
ATOM     22  F   UNL     1      34.120 -14.300 -22.489  0.00  0.00    -0.202 F 
ATOM     23  F   UNL     1      33.891 -15.442 -24.960  0.00  0.00    -0.202 F 
ATOM     24  C   UNL     1      34.088 -17.822 -21.601  0.00  0.00    +0.005 C 
ATOM     25  C   UNL     1      33.972 -18.410 -22.857  0.00  0.00    +0.138 C 
ATOM     26  C   UNL     1      34.138 -16.438 -21.471  0.00  0.00    +0.030 C 
ATOM     27  C   UNL     1      34.072 -15.632 -22.607  0.00  0.00    +0.167 C 
ATOM     28  C   UNL     1      33.906 -17.604 -23.993  0.00  0.00    +0.061 C 
ATOM     29  C   UNL     1      33.956 -16.216 -23.869  0.00  0.00    +0.170 C 
ENDBRANCH   3  24
BRANCH   4  30
ATOM     30  N   UNL     1      36.622 -18.474 -20.125  0.00  0.00    +0.382 N 
ATOM     31  H   UNL     1      36.420 -17.783 -19.403  0.00  0.00    -0.089 HD
ATOM     32  H   UNL     1      36.732 -18.004 -21.024  0.00  0.00    -0.089 HD
ATOM     33  H   UNL     1      37.484 -18.967 -19.892  0.00  0.00    -0.089 HD
ENDBRANCH   4  30
TORSDOF 4
ENDMDL
MODEL 2
REMARK VINA RESULT:     -12.0      1.059      1.882
REMARK  Name = 11538992
REMARK  4 active torsions:
REMARK  status: ('A' for Active; 'I' for Inactive)
REMARK    1  A    between atoms: C_1  and  N_7
REMARK    2  A    between atoms: C_3  and  C_24
REMARK    3  A    between atoms: C_4  and  N_30
REMARK    4  A    between atoms: C_15  and  C_20
REMARK                            x       y       z     vdW  Elec       q    Type
REMARK                         _______ _______ _______ _____ _____    ______ ____
ROOT
ATOM      1  C   UNL     1      34.000 -21.822 -18.424  0.00  0.00    -0.059 C 
ATOM      2  C   UNL     1      35.221 -20.899 -18.458  0.00  0.00    -0.042 C 
ATOM      3  C   UNL     1      33.946 -19.267 -19.939  0.00  0.00    +0.005 C 
ATOM      4  C   UNL     1      35.261 -20.067 -19.752  0.00  0.00    -0.064 C 
ATOM      5  C   UNL     1      32.703 -21.025 -18.590  0.00  0.00    -0.021 C 
ATOM      6  C   UNL     1      32.722 -20.201 -19.876  0.00  0.00    +0.000 C 
ENDROOT
BRANCH   1   7
ATOM      7  N   UNL     1      33.969 -22.558 -17.160  0.00  0.00    +0.394 N 
ATOM      8  N   UNL     1      33.723 -23.244 -14.473  0.00  0.00    -0.299 N 
ATOM      9  N   UNL     1      31.566 -23.566 -14.512  0.00  0.00    -0.136 NA
ATOM     10  N   UNL     1      32.060 -23.991 -13.288  0.00  0.00    -0.125 NA
ATOM     11  C   UNL     1      34.963 -22.017 -16.215  0.00  0.00    -0.052 C 
ATOM     12  C   UNL     1      32.611 -22.524 -16.578  0.00  0.00    -0.009 C 
ATOM     13  C   UNL     1      35.038 -22.893 -14.955  0.00  0.00    +0.086 C 
ATOM     14  C   UNL     1      32.585 -23.122 -15.217  0.00  0.00    +0.122 A 
ATOM     15  C   UNL     1      33.361 -23.789 -13.289  0.00  0.00    +0.238 A 
ATOM     16  H   UNL     1      34.213 -23.531 -17.348  0.00  0.00    -0.079 HD
BRANCH  15  20
ATOM     17  F   UNL     1      33.730 -24.636 -11.082  0.00  0.00    -0.163 F 
ATOM     18  F   UNL     1      35.285 -25.002 -12.549  0.00  0.00    -0.163 F 
ATOM     19  F   UNL     1      34.994 -22.999 -11.752  0.00  0.00    -0.163 F 
ATOM     20  C   UNL     1      34.309 -24.098 -12.205  0.00  0.00    +0.452 C 
ENDBRANCH  15  20
ENDBRANCH   1   7
BRANCH   3  24
ATOM     21  F   UNL     1      34.420 -16.469 -20.010  0.00  0.00    -0.204 F 
ATOM     22  F   UNL     1      33.371 -18.930 -24.780  0.00  0.00    -0.202 F 
ATOM     23  F   UNL     1      33.846 -16.240 -24.702  0.00  0.00    -0.202 F 
ATOM     24  C   UNL     1      33.919 -18.448 -21.222  0.00  0.00    +0.005 C 
ATOM     25  C   UNL     1      34.162 -17.078 -21.176  0.00  0.00    +0.138 C 
ATOM     26  C   UNL     1      33.652 -19.077 -22.434  0.00  0.00    +0.030 C 
ATOM     27  C   UNL     1      33.627 -18.331 -23.611  0.00  0.00    +0.167 C 
ATOM     28  C   UNL     1      34.136 -16.332 -22.353  0.00  0.00    +0.061 C 
ATOM     29  C   UNL     1      33.869 -16.957 -23.570  0.00  0.00    +0.170 C 
ENDBRANCH   3  24
BRANCH   4  30
ATOM     30  N   UNL     1      36.417 -19.165 -19.715  0.00  0.00    +0.382 N 
ATOM     31  H   UNL     1      36.147 -18.285 -19.278  0.00  0.00    -0.089 HD
ATOM     32  H   UNL     1      36.740 -18.988 -20.666  0.00  0.00    -0.089 HD
ATOM     33  H   UNL     1      37.168 -19.597 -19.176  0.00  0.00    -0.089 HD
ENDBRANCH   4  30
TORSDOF 4
ENDMDL
MODEL 3
REMARK VINA RESULT:     -10.7      6.887     10.959
REMARK  Name = 11538992
REMARK  4 active torsions:
REMARK  status: ('A' for Active; 'I' for Inactive)
REMARK    1  A    between atoms: C_1  and  N_7
REMARK    2  A    between atoms: C_3  and  C_24
REMARK    3  A    between atoms: C_4  and  N_30
REMARK    4  A    between atoms: C_15  and  C_20
REMARK                            x       y       z     vdW  Elec       q    Type
REMARK                         _______ _______ _______ _____ _____    ______ ____
ROOT
ATOM      1  C   UNL     1      32.560 -11.759 -23.098  0.00  0.00    -0.059 C 
ATOM      2  C   UNL     1      33.549 -10.745 -23.681  0.00  0.00    -0.042 C 
ATOM      3  C   UNL     1      32.425  -8.885 -22.354  0.00  0.00    +0.005 C 
ATOM      4  C   UNL     1      32.936  -9.336 -23.748  0.00  0.00    -0.064 C 
ATOM      5  C   UNL     1      32.074 -11.319 -21.714  0.00  0.00    -0.021 C 
ATOM      6  C   UNL     1      31.452  -9.925 -21.764  0.00  0.00    +0.000 C 
ENDROOT
BRANCH   1   7
ATOM      7  N   UNL     1      33.195 -13.074 -23.003  0.00  0.00    +0.394 N 
ATOM      8  N   UNL     1      33.659 -15.799 -22.678  0.00  0.00    -0.299 N 
ATOM      9  N   UNL     1      33.207 -16.360 -24.737  0.00  0.00    -0.136 NA
ATOM     10  N   UNL     1      33.736 -17.459 -24.080  0.00  0.00    -0.125 NA
ATOM     11  C   UNL     1      33.004 -13.652 -21.660  0.00  0.00    -0.052 C 
ATOM     12  C   UNL     1      32.668 -13.976 -24.048  0.00  0.00    -0.009 C 
ATOM     13  C   UNL     1      33.807 -14.954 -21.517  0.00  0.00    +0.086 C 
ATOM     14  C   UNL     1      33.172 -15.364 -23.877  0.00  0.00    +0.122 A 
ATOM     15  C   UNL     1      34.002 -17.098 -22.842  0.00  0.00    +0.238 A 
ATOM     16  H   UNL     1      34.197 -12.959 -23.155  0.00  0.00    -0.079 HD
BRANCH  15  20
ATOM     17  F   UNL     1      35.955 -17.866 -21.695  0.00  0.00    -0.163 F 
ATOM     18  F   UNL     1      34.154 -17.618 -20.513  0.00  0.00    -0.163 F 
ATOM     19  F   UNL     1      34.310 -19.268 -21.921  0.00  0.00    -0.163 F 
ATOM     20  C   UNL     1      34.586 -17.932 -21.779  0.00  0.00    +0.452 C 
ENDBRANCH  15  20
ENDBRANCH   1   7
BRANCH   3  24
ATOM     21  F   UNL     1      32.891  -6.927 -20.353  0.00  0.00    -0.204 F 
ATOM     22  F   UNL     1      29.488  -5.566 -24.413  0.00  0.00    -0.202 F 
ATOM     23  F   UNL     1      30.027  -3.777 -22.419  0.00  0.00    -0.202 F 
ATOM     24  C   UNL     1      31.779  -7.507 -22.369  0.00  0.00    +0.005 C 
ATOM     25  C   UNL     1      32.057  -6.600 -21.351  0.00  0.00    +0.138 C 
ATOM     26  C   UNL     1      30.914  -7.164 -23.403  0.00  0.00    +0.030 C 
ATOM     27  C   UNL     1      30.321  -5.902 -23.420  0.00  0.00    +0.167 C 
ATOM     28  C   UNL     1      31.464  -5.338 -21.368  0.00  0.00    +0.061 C 
ATOM     29  C   UNL     1      30.596  -4.989 -22.401  0.00  0.00    +0.170 C 
ENDBRANCH   3  24
BRANCH   4  30
ATOM     30  N   UNL     1      33.934  -8.394 -24.265  0.00  0.00    +0.382 N 
ATOM     31  H   UNL     1      34.605  -8.173 -23.530  0.00  0.00    -0.089 HD
ATOM     32  H   UNL     1      33.469  -7.539 -24.569  0.00  0.00    -0.089 HD
ATOM     33  H   UNL     1      34.422  -8.816 -25.055  0.00  0.00    -0.089 HD
ENDBRANCH   4  30
TORSDOF 4
ENDMDL
MODEL 4
REMARK VINA RESULT:     -10.5      1.477      1.963
REMARK  Name = 11538992
REMARK  4 active torsions:
REMARK  status: ('A' for Active; 'I' for Inactive)
REMARK    1  A    between atoms: C_1  and  N_7
REMARK    2  A    between atoms: C_3  and  C_24
REMARK    3  A    between atoms: C_4  and  N_30
REMARK    4  A    between atoms: C_15  and  C_20
REMARK                            x       y       z     vdW  Elec       q    Type
REMARK                         _______ _______ _______ _____ _____    ______ ____
ROOT
ATOM      1  C   UNL     1      35.065 -20.581 -18.094  0.00  0.00    -0.059 C 
ATOM      2  C   UNL     1      33.729 -20.855 -18.793  0.00  0.00    -0.042 C 
ATOM      3  C   UNL     1      34.520 -19.534 -20.821  0.00  0.00    +0.005 C 
ATOM      4  C   UNL     1      33.378 -19.738 -19.791  0.00  0.00    -0.064 C 
ATOM      5  C   UNL     1      36.192 -20.398 -19.114  0.00  0.00    -0.021 C 
ATOM      6  C   UNL     1      35.864 -19.286 -20.108  0.00  0.00    +0.000 C 
ENDROOT
BRANCH   1   7
ATOM      7  N   UNL     1      35.389 -21.686 -17.192  0.00  0.00    +0.394 N 
ATOM      8  N   UNL     1      35.723 -23.285 -14.937  0.00  0.00    -0.299 N 
ATOM      9  N   UNL     1      33.700 -24.103 -14.931  0.00  0.00    -0.136 NA
ATOM     10  N   UNL     1      34.461 -24.781 -13.991  0.00  0.00    -0.125 NA
ATOM     11  C   UNL     1      36.388 -21.269 -16.191  0.00  0.00    -0.052 C 
ATOM     12  C   UNL     1      34.164 -22.193 -16.538  0.00  0.00    -0.009 C 
ATOM     13  C   UNL     1      36.843 -22.473 -15.352  0.00  0.00    +0.086 C 
ATOM     14  C   UNL     1      34.479 -23.205 -15.496  0.00  0.00    +0.122 A 
ATOM     15  C   UNL     1      35.674 -24.273 -14.014  0.00  0.00    +0.238 A 
ATOM     16  H   UNL     1      35.795 -22.443 -17.743  0.00  0.00    -0.079 HD
BRANCH  15  20
ATOM     17  F   UNL     1      36.621 -25.828 -12.462  0.00  0.00    -0.163 F 
ATOM     18  F   UNL     1      37.968 -24.946 -13.915  0.00  0.00    -0.163 F 
ATOM     19  F   UNL     1      37.204 -23.742 -12.272  0.00  0.00    -0.163 F 
ATOM     20  C   UNL     1      36.827 -24.685 -13.195  0.00  0.00    +0.452 C 
ENDBRANCH  15  20
ENDBRANCH   1   7
BRANCH   3  24
ATOM     21  F   UNL     1      33.834 -20.005 -23.534  0.00  0.00    -0.204 F 
ATOM     22  F   UNL     1      34.122 -14.788 -21.917  0.00  0.00    -0.202 F 
ATOM     23  F   UNL     1      33.472 -15.387 -24.503  0.00  0.00    -0.202 F 
ATOM     24  C   UNL     1      34.237 -18.417 -21.817  0.00  0.00    +0.005 C 
ATOM     25  C   UNL     1      33.907 -18.728 -23.132  0.00  0.00    +0.138 C 
ATOM     26  C   UNL     1      34.311 -17.091 -21.401  0.00  0.00    +0.030 C 
ATOM     27  C   UNL     1      34.053 -16.066 -22.310  0.00  0.00    +0.167 C 
ATOM     28  C   UNL     1      33.648 -17.702 -24.040  0.00  0.00    +0.061 C 
ATOM     29  C   UNL     1      33.722 -16.372 -23.631  0.00  0.00    +0.170 C 
ENDBRANCH   3  24
BRANCH   4  30
ATOM     30  N   UNL     1      32.120 -20.069 -20.469  0.00  0.00    +0.382 N 
ATOM     31  H   UNL     1      32.013 -21.082 -20.510  0.00  0.00    -0.089 HD
ATOM     32  H   UNL     1      32.135 -19.691 -21.416  0.00  0.00    -0.089 HD
ATOM     33  H   UNL     1      31.339 -19.665 -19.953  0.00  0.00    -0.089 HD
ENDBRANCH   4  30
TORSDOF 4
ENDMDL
MODEL 5
REMARK VINA RESULT:     -10.5      7.138     11.264
REMARK  Name = 11538992
REMARK  4 active torsions:
REMARK  status: ('A' for Active; 'I' for Inactive)
REMARK    1  A    between atoms: C_1  and  N_7
REMARK    2  A    between atoms: C_3  and  C_24
REMARK    3  A    between atoms: C_4  and  N_30
REMARK    4  A    between atoms: C_15  and  C_20
REMARK                            x       y       z     vdW  Elec       q    Type
REMARK                         _______ _______ _______ _____ _____    ______ ____
ROOT
ATOM      1  C   UNL     1      32.257 -11.473 -22.618  0.00  0.00    -0.059 C 
ATOM      2  C   UNL     1      33.244 -10.337 -22.904  0.00  0.00    -0.042 C 
ATOM      3  C   UNL     1      31.976  -8.830 -21.290  0.00  0.00    +0.005 C 
ATOM      4  C   UNL     1      32.586  -8.959 -22.710  0.00  0.00    -0.064 C 
ATOM      5  C   UNL     1      31.672 -11.351 -21.208  0.00  0.00    -0.021 C 
ATOM      6  C   UNL     1      31.006  -9.992 -21.001  0.00  0.00    +0.000 C 
ENDROOT
BRANCH   1   7
ATOM      7  N   UNL     1      32.931 -12.763 -22.763  0.00  0.00    +0.394 N 
ATOM      8  N   UNL     1      33.476 -15.488 -22.939  0.00  0.00    -0.299 N 
ATOM      9  N   UNL     1      33.036 -15.676 -25.068  0.00  0.00    -0.136 NA
ATOM     10  N   UNL     1      33.599 -16.861 -24.620  0.00  0.00    -0.125 NA
ATOM     11  C   UNL     1      32.761 -13.583 -21.549  0.00  0.00    -0.052 C 
ATOM     12  C   UNL     1      32.428 -13.475 -23.956  0.00  0.00    -0.009 C 
ATOM     13  C   UNL     1      33.602 -14.864 -21.643  0.00  0.00    +0.086 C 
ATOM     14  C   UNL     1      32.974 -14.856 -24.040  0.00  0.00    +0.122 A 
ATOM     15  C   UNL     1      33.857 -16.724 -23.337  0.00  0.00    +0.238 A 
ATOM     16  H   UNL     1      33.929 -12.593 -22.888  0.00  0.00    -0.079 HD
BRANCH  15  20
ATOM     17  F   UNL     1      35.747 -17.415 -22.043  0.00  0.00    -0.163 F 
ATOM     18  F   UNL     1      33.785 -17.919 -21.266  0.00  0.00    -0.163 F 
ATOM     19  F   UNL     1      34.568 -18.968 -23.004  0.00  0.00    -0.163 F 
ATOM     20  C   UNL     1      34.468 -17.720 -22.442  0.00  0.00    +0.452 C 
ENDBRANCH  15  20
ENDBRANCH   1   7
BRANCH   3  24
ATOM     21  F   UNL     1      30.048  -7.741 -23.065  0.00  0.00    -0.204 F 
ATOM     22  F   UNL     1      31.254  -4.807 -18.610  0.00  0.00    -0.202 F 
ATOM     23  F   UNL     1      29.414  -3.879 -20.405  0.00  0.00    -0.202 F 
ATOM     24  C   UNL     1      31.284  -7.494 -21.054  0.00  0.00    +0.005 C 
ATOM     25  C   UNL     1      30.348  -7.027 -21.972  0.00  0.00    +0.138 C 
ATOM     26  C   UNL     1      31.593  -6.751 -19.920  0.00  0.00    +0.030 C 
ATOM     27  C   UNL     1      30.961  -5.527 -19.700  0.00  0.00    +0.167 C 
ATOM     28  C   UNL     1      29.716  -5.803 -21.752  0.00  0.00    +0.061 C 
ATOM     29  C   UNL     1      30.022  -5.054 -20.617  0.00  0.00    +0.170 C 
ENDBRANCH   3  24
BRANCH   4  30
ATOM     30  N   UNL     1      33.581  -7.908 -22.946  0.00  0.00    +0.382 N 
ATOM     31  H   UNL     1      34.067  -8.091 -23.823  0.00  0.00    -0.089 HD
ATOM     32  H   UNL     1      34.254  -7.898 -22.180  0.00  0.00    -0.089 HD
ATOM     33  H   UNL     1      33.113  -7.003 -22.999  0.00  0.00    -0.089 HD
ENDBRANCH   4  30
TORSDOF 4
ENDMDL
MODEL 6
REMARK VINA RESULT:     -10.2      6.227     10.296
REMARK  Name = 11538992
REMARK  4 active torsions:
REMARK  status: ('A' for Active; 'I' for Inactive)
REMARK    1  A    between atoms: C_1  and  N_7
REMARK    2  A    between atoms: C_3  and  C_24
REMARK    3  A    between atoms: C_4  and  N_30
REMARK    4  A    between atoms: C_15  and  C_20
REMARK                            x       y       z     vdW  Elec       q    Type
REMARK                         _______ _______ _______ _____ _____    ______ ____
ROOT
ATOM      1  C   UNL     1      32.306 -12.417 -23.021  0.00  0.00    -0.059 C 
ATOM      2  C   UNL     1      33.516 -11.776 -23.708  0.00  0.00    -0.042 C 
ATOM      3  C   UNL     1      32.852  -9.508 -22.762  0.00  0.00    +0.005 C 
ATOM      4  C   UNL     1      33.258 -10.295 -24.035  0.00  0.00    -0.064 C 
ATOM      5  C   UNL     1      31.922 -11.647 -21.755  0.00  0.00    -0.021 C 
ATOM      6  C   UNL     1      31.652 -10.176 -22.063  0.00  0.00    +0.000 C 
ENDROOT
BRANCH   1   7
ATOM      7  N   UNL     1      32.608 -13.808 -22.681  0.00  0.00    +0.394 N 
ATOM      8  N   UNL     1      33.922 -16.178 -22.042  0.00  0.00    -0.299 N 
ATOM      9  N   UNL     1      34.029 -15.813 -19.894  0.00  0.00    -0.136 NA
ATOM     10  N   UNL     1      34.442 -17.111 -20.149  0.00  0.00    -0.125 NA
ATOM     11  C   UNL     1      33.457 -14.427 -23.715  0.00  0.00    -0.052 C 
ATOM     12  C   UNL     1      33.250 -13.885 -21.352  0.00  0.00    -0.009 C 
ATOM     13  C   UNL     1      33.636 -15.927 -23.436  0.00  0.00    +0.086 C 
ATOM     14  C   UNL     1      33.715 -15.264 -21.049  0.00  0.00    +0.122 A 
ATOM     15  C   UNL     1      34.367 -17.309 -21.448  0.00  0.00    +0.238 A 
ATOM     16  H   UNL     1      31.730 -14.328 -22.644  0.00  0.00    -0.079 HD
BRANCH  15  20
ATOM     17  F   UNL     1      34.007 -18.703 -23.359  0.00  0.00    -0.163 F 
ATOM     18  F   UNL     1      36.015 -18.656 -22.540  0.00  0.00    -0.163 F 
ATOM     19  F   UNL     1      34.429 -19.686 -21.466  0.00  0.00    -0.163 F 
ATOM     20  C   UNL     1      34.694 -18.544 -22.180  0.00  0.00    +0.452 C 
ENDBRANCH  15  20
ENDBRANCH   1   7
BRANCH   3  24
ATOM     21  F   UNL     1      34.782  -7.447 -22.467  0.00  0.00    -0.204 F 
ATOM     22  F   UNL     1      29.782  -5.949 -24.101  0.00  0.00    -0.202 F 
ATOM     23  F   UNL     1      31.737  -4.069 -23.776  0.00  0.00    -0.202 F 
ATOM     24  C   UNL     1      32.554  -8.040 -23.034  0.00  0.00    +0.005 C 
ATOM     25  C   UNL     1      33.554  -7.087 -22.867  0.00  0.00    +0.138 C 
ATOM     26  C   UNL     1      31.281  -7.662 -23.450  0.00  0.00    +0.030 C 
ATOM     27  C   UNL     1      31.004  -6.319 -23.701  0.00  0.00    +0.167 C 
ATOM     28  C   UNL     1      33.277  -5.743 -23.117  0.00  0.00    +0.061 C 
ATOM     29  C   UNL     1      32.003  -5.359 -23.534  0.00  0.00    +0.170 C 
ENDBRANCH   3  24
BRANCH   4  30
ATOM     30  N   UNL     1      34.458  -9.715 -24.645  0.00  0.00    +0.382 N 
ATOM     31  H   UNL     1      34.198  -9.206 -25.490  0.00  0.00    -0.089 HD
ATOM     32  H   UNL     1      35.112 -10.460 -24.885  0.00  0.00    -0.089 HD
ATOM     33  H   UNL     1      34.899  -9.074 -23.985  0.00  0.00    -0.089 HD
ENDBRANCH   4  30
TORSDOF 4
ENDMDL
MODEL 7
REMARK VINA RESULT:     -10.0      1.748      2.543
REMARK  Name = 11538992
REMARK  4 active torsions:
REMARK  status: ('A' for Active; 'I' for Inactive)
REMARK    1  A    between atoms: C_1  and  N_7
REMARK    2  A    between atoms: C_3  and  C_24
REMARK    3  A    between atoms: C_4  and  N_30
REMARK    4  A    between atoms: C_15  and  C_20
REMARK                            x       y       z     vdW  Elec       q    Type
REMARK                         _______ _______ _______ _____ _____    ______ ____
ROOT
ATOM      1  C   UNL     1      34.910 -21.064 -17.587  0.00  0.00    -0.059 C 
ATOM      2  C   UNL     1      33.533 -21.284 -18.221  0.00  0.00    -0.042 C 
ATOM      3  C   UNL     1      34.309 -20.080 -20.325  0.00  0.00    +0.005 C 
ATOM      4  C   UNL     1      33.203 -20.184 -19.244  0.00  0.00    -0.064 C 
ATOM      5  C   UNL     1      36.001 -20.981 -18.657  0.00  0.00    -0.021 C 
ATOM      6  C   UNL     1      35.694 -19.886 -19.677  0.00  0.00    +0.000 C 
ENDROOT
BRANCH   1   7
ATOM      7  N   UNL     1      35.209 -22.155 -16.659  0.00  0.00    +0.394 N 
ATOM      8  N   UNL     1      35.641 -23.665 -14.361  0.00  0.00    -0.299 N 
ATOM      9  N   UNL     1      33.550 -24.196 -14.035  0.00  0.00    -0.136 NA
ATOM     10  N   UNL     1      34.339 -24.923 -13.157  0.00  0.00    -0.125 NA
ATOM     11  C   UNL     1      36.382 -21.828 -15.828  0.00  0.00    -0.052 C 
ATOM     12  C   UNL     1      34.031 -22.454 -15.819  0.00  0.00    -0.009 C 
ATOM     13  C   UNL     1      36.789 -23.038 -14.973  0.00  0.00    +0.086 C 
ATOM     14  C   UNL     1      34.353 -23.445 -14.758  0.00  0.00    +0.122 A 
ATOM     15  C   UNL     1      35.593 -24.588 -13.372  0.00  0.00    +0.238 A 
ATOM     16  H   UNL     1      35.434 -22.988 -17.204  0.00  0.00    -0.079 HD
BRANCH  15  20
ATOM     17  F   UNL     1      37.683 -25.745 -13.506  0.00  0.00    -0.163 F 
ATOM     18  F   UNL     1      37.531 -24.155 -12.039  0.00  0.00    -0.163 F 
ATOM     19  F   UNL     1      36.489 -26.036 -11.713  0.00  0.00    -0.163 F 
ATOM     20  C   UNL     1      36.784 -25.112 -12.683  0.00  0.00    +0.452 C 
ENDBRANCH  15  20
ENDBRANCH   1   7
BRANCH   3  24
ATOM     21  F   UNL     1      35.116 -17.384 -19.957  0.00  0.00    -0.204 F 
ATOM     22  F   UNL     1      32.503 -18.577 -24.611  0.00  0.00    -0.202 F 
ATOM     23  F   UNL     1      33.337 -16.021 -24.125  0.00  0.00    -0.202 F 
ATOM     24  C   UNL     1      34.048 -18.983 -21.348  0.00  0.00    +0.005 C 
ATOM     25  C   UNL     1      34.475 -17.683 -21.095  0.00  0.00    +0.138 C 
ATOM     26  C   UNL     1      33.383 -19.290 -22.531  0.00  0.00    +0.030 C 
ATOM     27  C   UNL     1      33.142 -18.288 -23.470  0.00  0.00    +0.167 C 
ATOM     28  C   UNL     1      34.234 -16.681 -22.034  0.00  0.00    +0.061 C 
ATOM     29  C   UNL     1      33.567 -16.983 -23.221  0.00  0.00    +0.170 C 
ENDBRANCH   3  24
BRANCH   4  30
ATOM     30  N   UNL     1      31.901 -20.465 -19.858  0.00  0.00    +0.382 N 
ATOM     31  H   UNL     1      32.042 -20.910 -20.765  0.00  0.00    -0.089 HD
ATOM     32  H   UNL     1      31.389 -19.592 -19.984  0.00  0.00    -0.089 HD
ATOM     33  H   UNL     1      31.367 -21.088 -19.253  0.00  0.00    -0.089 HD
ENDBRANCH   4  30
TORSDOF 4
ENDMDL
MODEL 8
REMARK VINA RESULT:      -9.7      7.740     12.133
REMARK  Name = 11538992
REMARK  4 active torsions:
REMARK  status: ('A' for Active; 'I' for Inactive)
REMARK    1  A    between atoms: C_1  and  N_7
REMARK    2  A    between atoms: C_3  and  C_24
REMARK    3  A    between atoms: C_4  and  N_30
REMARK    4  A    between atoms: C_15  and  C_20
REMARK                            x       y       z     vdW  Elec       q    Type
REMARK                         _______ _______ _______ _____ _____    ______ ____
ROOT
ATOM      1  C   UNL     1      33.305 -10.452 -23.200  0.00  0.00    -0.059 C 
ATOM      2  C   UNL     1      32.024 -10.240 -22.386  0.00  0.00    -0.042 C 
ATOM      3  C   UNL     1      31.530  -8.126 -23.716  0.00  0.00    +0.005 C 
ATOM      4  C   UNL     1      31.653  -8.749 -22.301  0.00  0.00    -0.064 C 
ATOM      5  C   UNL     1      33.171  -9.851 -24.601  0.00  0.00    -0.021 C 
ATOM      6  C   UNL     1      32.812  -8.368 -24.536  0.00  0.00    +0.000 C 
ENDROOT
BRANCH   1   7
ATOM      7  N   UNL     1      33.597 -11.882 -23.301  0.00  0.00    +0.394 N 
ATOM      8  N   UNL     1      33.385 -14.658 -23.315  0.00  0.00    -0.299 N 
ATOM      9  N   UNL     1      32.705 -14.829 -25.380  0.00  0.00    -0.136 NA
ATOM     10  N   UNL     1      32.976 -16.097 -24.892  0.00  0.00    -0.125 NA
ATOM     11  C   UNL     1      33.336 -12.562 -22.019  0.00  0.00    -0.052 C 
ATOM     12  C   UNL     1      32.810 -12.492 -24.393  0.00  0.00    -0.009 C 
ATOM     13  C   UNL     1      33.797 -14.026 -22.083  0.00  0.00    +0.086 C 
ATOM     14  C   UNL     1      32.962 -13.971 -24.416  0.00  0.00    +0.122 A 
ATOM     15  C   UNL     1      33.385 -15.970 -23.648  0.00  0.00    +0.238 A 
ATOM     16  H   UNL     1      34.588 -11.994 -23.519  0.00  0.00    -0.079 HD
BRANCH  15  20
ATOM     17  F   UNL     1      33.735 -16.713 -21.401  0.00  0.00    -0.163 F 
ATOM     18  F   UNL     1      33.044 -18.191 -22.830  0.00  0.00    -0.163 F 
ATOM     19  F   UNL     1      35.090 -17.462 -22.927  0.00  0.00    -0.163 F 
ATOM     20  C   UNL     1      33.797 -17.047 -22.732  0.00  0.00    +0.452 C 
ENDBRANCH  15  20
ENDBRANCH   1   7
BRANCH   3  24
ATOM     21  F   UNL     1      33.108  -6.196 -22.358  0.00  0.00    -0.204 F 
ATOM     22  F   UNL     1      28.666  -4.371 -24.976  0.00  0.00    -0.202 F 
ATOM     23  F   UNL     1      30.276  -2.623 -23.627  0.00  0.00    -0.202 F 
ATOM     24  C   UNL     1      31.194  -6.640 -23.690  0.00  0.00    +0.005 C 
ATOM     25  C   UNL     1      32.017  -5.755 -23.001  0.00  0.00    +0.138 C 
ATOM     26  C   UNL     1      30.063  -6.180 -24.357  0.00  0.00    +0.030 C 
ATOM     27  C   UNL     1      29.752  -4.821 -24.336  0.00  0.00    +0.167 C 
ATOM     28  C   UNL     1      31.706  -4.396 -22.980  0.00  0.00    +0.061 C 
ATOM     29  C   UNL     1      30.574  -3.929 -23.646  0.00  0.00    +0.170 C 
ENDBRANCH   3  24
BRANCH   4  30
ATOM     30  N   UNL     1      30.398  -8.602 -21.557  0.00  0.00    +0.382 N 
ATOM     31  H   UNL     1      29.926  -7.748 -21.854  0.00  0.00    -0.089 HD
ATOM     32  H   UNL     1      30.598  -8.550 -20.559  0.00  0.00    -0.089 HD
ATOM     33  H   UNL     1      29.796  -9.404 -21.743  0.00  0.00    -0.089 HD
ENDBRANCH   4  30
TORSDOF 4
ENDMDL
MODEL 9
REMARK VINA RESULT:      -9.6      8.046     13.407
REMARK  Name = 11538992
REMARK  4 active torsions:
REMARK  status: ('A' for Active; 'I' for Inactive)
REMARK    1  A    between atoms: C_1  and  N_7
REMARK    2  A    between atoms: C_3  and  C_24
REMARK    3  A    between atoms: C_4  and  N_30
REMARK    4  A    between atoms: C_15  and  C_20
REMARK                            x       y       z     vdW  Elec       q    Type
REMARK                         _______ _______ _______ _____ _____    ______ ____
ROOT
ATOM      1  C   UNL     1      33.181 -11.145 -23.326  0.00  0.00    -0.059 C 
ATOM      2  C   UNL     1      32.862 -11.826 -24.660  0.00  0.00    -0.042 C 
ATOM      3  C   UNL     1      32.673 -14.069 -23.470  0.00  0.00    +0.005 C 
ATOM      4  C   UNL     1      33.305 -13.300 -24.659  0.00  0.00    -0.064 C 
ATOM      5  C   UNL     1      32.538 -11.898 -22.157  0.00  0.00    -0.021 C 
ATOM      6  C   UNL     1      32.975 -13.361 -22.135  0.00  0.00    +0.000 C 
ENDROOT
BRANCH   1   7
ATOM      7  N   UNL     1      32.700  -9.763 -23.347  0.00  0.00    +0.394 N 
ATOM      8  N   UNL     1      32.277  -7.073 -22.770  0.00  0.00    -0.299 N 
ATOM      9  N   UNL     1      33.966  -6.319 -23.926  0.00  0.00    -0.136 NA
ATOM     10  N   UNL     1      33.198  -5.245 -23.505  0.00  0.00    -0.125 NA
ATOM     11  C   UNL     1      32.020  -9.426 -22.083  0.00  0.00    -0.052 C 
ATOM     12  C   UNL     1      33.818  -8.834 -23.611  0.00  0.00    -0.009 C 
ATOM     13  C   UNL     1      31.379  -8.033 -22.173  0.00  0.00    +0.086 C 
ATOM     14  C   UNL     1      33.394  -7.415 -23.478  0.00  0.00    +0.122 A 
ATOM     15  C   UNL     1      32.186  -5.723 -22.812  0.00  0.00    +0.238 A 
ATOM     16  H   UNL     1      32.021  -9.670 -24.102  0.00  0.00    -0.079 HD
BRANCH  15  20
ATOM     17  F   UNL     1      29.844  -5.265 -22.637  0.00  0.00    -0.163 F 
ATOM     18  F   UNL     1      31.014  -5.120 -20.816  0.00  0.00    -0.163 F 
ATOM     19  F   UNL     1      31.215  -3.601 -22.359  0.00  0.00    -0.163 F 
ATOM     20  C   UNL     1      31.101  -4.956 -22.177  0.00  0.00    +0.452 C 
ENDBRANCH  15  20
ENDBRANCH   1   7
BRANCH   3  24
ATOM     21  F   UNL     1      31.464 -16.121 -25.015  0.00  0.00    -0.204 F 
ATOM     22  F   UNL     1      35.530 -17.602 -21.669  0.00  0.00    -0.202 F 
ATOM     23  F   UNL     1      34.277 -19.474 -23.215  0.00  0.00    -0.202 F 
ATOM     24  C   UNL     1      33.103 -15.528 -23.403  0.00  0.00    +0.005 C 
ATOM     25  C   UNL     1      32.461 -16.477 -24.192  0.00  0.00    +0.138 C 
ATOM     26  C   UNL     1      34.138 -15.901 -22.551  0.00  0.00    +0.030 C 
ATOM     27  C   UNL     1      34.535 -17.236 -22.487  0.00  0.00    +0.167 C 
ATOM     28  C   UNL     1      32.858 -17.812 -24.128  0.00  0.00    +0.061 C 
ATOM     29  C   UNL     1      33.894 -18.192 -23.276  0.00  0.00    +0.170 C 
ENDBRANCH   3  24
BRANCH   4  30
ATOM     30  N   UNL     1      32.936 -13.920 -25.935  0.00  0.00    +0.382 N 
ATOM     31  H   UNL     1      32.582 -14.861 -25.765  0.00  0.00    -0.089 HD
ATOM     32  H   UNL     1      33.756 -13.969 -26.539  0.00  0.00    -0.089 HD
ATOM     33  H   UNL     1      32.212 -13.362 -26.388  0.00  0.00    -0.089 HD
ENDBRANCH   4  30
TORSDOF 4
ENDMDL
