MODEL 1
REMARK VINA RESULT:     -11.7      0.000      0.000
REMARK  Name = 24779724
REMARK  3 active torsions:
REMARK  status: ('A' for Active; 'I' for Inactive)
REMARK    1  A    between atoms: C_5  and  C_12
REMARK    2  A    between atoms: C_7  and  S_16
REMARK    3  A    between atoms: S_16  and  C_19
REMARK                            x       y       z     vdW  Elec       q    Type
REMARK                         _______ _______ _______ _____ _____    ______ ____
ROOT
ATOM      1  N   UNL     1      33.648 -21.347 -18.154  0.00  0.00    -0.186 N 
ATOM      2  N   UNL     1      34.668 -21.700 -17.333  0.00  0.00    -0.162 NA
ATOM      3  N   UNL     1      31.643 -21.148 -19.029  0.00  0.00    -0.126 NA
ATOM      4  N   UNL     1      32.534 -20.443 -19.812  0.00  0.00    -0.120 NA
ATOM      5  C   UNL     1      34.300 -22.442 -16.327  0.00  0.00    +0.104 C 
ATOM      6  C   UNL     1      32.321 -21.687 -18.037  0.00  0.00    +0.187 A 
ATOM      7  C   UNL     1      33.727 -20.574 -19.277  0.00  0.00    +0.217 A 
ATOM      8  C   UNL     1      32.895 -22.903 -16.082  0.00  0.00    +0.024 C 
ATOM      9  C   UNL     1      31.955 -22.504 -16.950  0.00  0.00    +0.042 C 
ENDROOT
BRANCH   5  12
ATOM     10  N   UNL     1      36.358 -23.955 -13.746  0.00  0.00    -0.208 N 
ATOM     11  N   UNL     1      37.274 -23.068 -14.170  0.00  0.00    -0.176 NA
ATOM     12  C   UNL     1      35.326 -22.889 -15.350  0.00  0.00    +0.056 C 
ATOM     13  C   UNL     1      35.174 -23.889 -14.420  0.00  0.00    +0.087 C 
ATOM     14  C   UNL     1      36.638 -22.420 -15.150  0.00  0.00    +0.121 C 
ATOM     15  C   UNL     1      36.681 -24.860 -12.669  0.00  0.00    +0.140 C 
ENDBRANCH   5  12
BRANCH   7  16
ATOM     16  S   UNL     1      35.252 -19.867 -19.882  0.00  0.00    -0.051 S 
BRANCH  16  19
ATOM     17  N   UNL     1      33.262 -16.486 -24.354  0.00  0.00    -0.248 NA
ATOM     18  C   UNL     1      34.110 -16.655 -22.104  0.00  0.00    -0.003 C 
ATOM     19  C   UNL     1      34.658 -18.846 -21.215  0.00  0.00    +0.011 C 
ATOM     20  C   UNL     1      33.716 -17.233 -23.330  0.00  0.00    +0.060 C 
ATOM     21  C   UNL     1      34.578 -17.465 -21.057  0.00  0.00    +0.060 C 
ATOM     22  C   UNL     1      34.271 -19.421 -22.418  0.00  0.00    -0.017 C 
ATOM     23  C   UNL     1      33.805 -18.616 -23.460  0.00  0.00    +0.072 C 
ATOM     24  C   UNL     1      34.020 -15.263 -21.973  0.00  0.00    -0.001 C 
ATOM     25  C   UNL     1      33.553 -14.491 -23.027  0.00  0.00    +0.020 C 
ATOM     26  C   UNL     1      33.190 -15.146 -24.186  0.00  0.00    +0.098 C 
ENDBRANCH  16  19
ENDBRANCH   7  16
TORSDOF 3
ENDMDL
MODEL 2
REMARK VINA RESULT:     -10.5      2.698      3.903
REMARK  Name = 24779724
REMARK  3 active torsions:
REMARK  status: ('A' for Active; 'I' for Inactive)
REMARK    1  A    between atoms: C_5  and  C_12
REMARK    2  A    between atoms: C_7  and  S_16
REMARK    3  A    between atoms: S_16  and  C_19
REMARK                            x       y       z     vdW  Elec       q    Type
REMARK                         _______ _______ _______ _____ _____    ______ ____
ROOT
ATOM      1  N   UNL     1      32.073 -23.033 -15.301  0.00  0.00    -0.186 N 
ATOM      2  N   UNL     1      33.120 -23.539 -14.603  0.00  0.00    -0.162 NA
ATOM      3  N   UNL     1      30.113 -22.175 -15.797  0.00  0.00    -0.126 NA
ATOM      4  N   UNL     1      30.832 -22.330 -16.965  0.00  0.00    -0.120 NA
ATOM      5  C   UNL     1      32.916 -23.599 -13.318  0.00  0.00    +0.104 C 
ATOM      6  C   UNL     1      30.866 -22.600 -14.804  0.00  0.00    +0.187 A 
ATOM      7  C   UNL     1      31.999 -22.845 -16.651  0.00  0.00    +0.217 A 
ATOM      8  C   UNL     1      31.646 -23.180 -12.640  0.00  0.00    +0.024 C 
ATOM      9  C   UNL     1      30.667 -22.692 -13.413  0.00  0.00    +0.042 C 
ENDROOT
BRANCH   5  12
ATOM     10  N   UNL     1      35.857 -25.020 -11.730  0.00  0.00    -0.208 N 
ATOM     11  N   UNL     1      35.185 -24.754 -10.597  0.00  0.00    -0.176 NA
ATOM     12  C   UNL     1      33.993 -24.130 -12.442  0.00  0.00    +0.056 C 
ATOM     13  C   UNL     1      35.185 -24.666 -12.864  0.00  0.00    +0.087 C 
ATOM     14  C   UNL     1      34.048 -24.210 -11.038  0.00  0.00    +0.121 C 
ATOM     15  C   UNL     1      37.164 -25.628 -11.664  0.00  0.00    +0.140 C 
ENDBRANCH   5  12
BRANCH   7  16
ATOM     16  S   UNL     1      33.324 -23.253 -17.777  0.00  0.00    -0.051 S 
BRANCH  16  19
ATOM     17  N   UNL     1      33.719 -18.227 -20.935  0.00  0.00    -0.248 NA
ATOM     18  C   UNL     1      34.811 -20.020 -19.751  0.00  0.00    -0.003 C 
ATOM     19  C   UNL     1      33.453 -21.749 -18.722  0.00  0.00    +0.011 C 
ATOM     20  C   UNL     1      33.652 -19.365 -20.220  0.00  0.00    +0.060 C 
ATOM     21  C   UNL     1      34.703 -21.206 -19.007  0.00  0.00    +0.060 C 
ATOM     22  C   UNL     1      32.308 -21.109 -19.180  0.00  0.00    -0.017 C 
ATOM     23  C   UNL     1      32.415 -19.930 -19.920  0.00  0.00    +0.072 C 
ATOM     24  C   UNL     1      36.055 -19.452 -20.052  0.00  0.00    -0.001 C 
ATOM     25  C   UNL     1      36.129 -18.279 -20.789  0.00  0.00    +0.020 C 
ATOM     26  C   UNL     1      34.940 -17.711 -21.204  0.00  0.00    +0.098 C 
ENDBRANCH  16  19
ENDBRANCH   7  16
TORSDOF 3
ENDMDL
MODEL 3
REMARK VINA RESULT:     -10.4      2.237      9.340
REMARK  Name = 24779724
REMARK  3 active torsions:
REMARK  status: ('A' for Active; 'I' for Inactive)
REMARK    1  A    between atoms: C_5  and  C_12
REMARK    2  A    between atoms: C_7  and  S_16
REMARK    3  A    between atoms: S_16  and  C_19
REMARK                            x       y       z     vdW  Elec       q    Type
REMARK                         _______ _______ _______ _____ _____    ______ ____
ROOT
ATOM      1  N   UNL     1      34.471 -19.908 -19.858  0.00  0.00    -0.186 N 
ATOM      2  N   UNL     1      33.766 -19.338 -20.866  0.00  0.00    -0.162 NA
ATOM      3  N   UNL     1      36.103 -20.423 -18.481  0.00  0.00    -0.126 NA
ATOM      4  N   UNL     1      34.984 -21.149 -18.125  0.00  0.00    -0.120 NA
ATOM      5  C   UNL     1      34.451 -18.479 -21.567  0.00  0.00    +0.104 C 
ATOM      6  C   UNL     1      35.785 -19.682 -19.521  0.00  0.00    +0.187 A 
ATOM      7  C   UNL     1      34.020 -20.830 -18.958  0.00  0.00    +0.217 A 
ATOM      8  C   UNL     1      35.893 -18.147 -21.327  0.00  0.00    +0.024 C 
ATOM      9  C   UNL     1      36.506 -18.762 -20.308  0.00  0.00    +0.042 C 
ENDROOT
BRANCH   5  12
ATOM     10  N   UNL     1      33.071 -16.239 -24.070  0.00  0.00    -0.208 N 
ATOM     11  N   UNL     1      32.577 -17.374 -24.593  0.00  0.00    -0.176 NA
ATOM     12  C   UNL     1      33.787 -17.782 -22.699  0.00  0.00    +0.056 C 
ATOM     13  C   UNL     1      33.803 -16.429 -22.934  0.00  0.00    +0.087 C 
ATOM     14  C   UNL     1      33.018 -18.313 -23.752  0.00  0.00    +0.121 C 
ATOM     15  C   UNL     1      32.804 -14.976 -24.715  0.00  0.00    +0.140 C 
ENDBRANCH   5  12
BRANCH   7  16
ATOM     16  S   UNL     1      32.353 -21.473 -18.958  0.00  0.00    -0.051 S 
BRANCH  16  19
ATOM     17  N   UNL     1      32.035 -23.788 -13.487  0.00  0.00    -0.248 NA
ATOM     18  C   UNL     1      30.932 -22.767 -15.371  0.00  0.00    -0.003 C 
ATOM     19  C   UNL     1      32.247 -22.165 -17.320  0.00  0.00    +0.011 C 
ATOM     20  C   UNL     1      32.085 -23.261 -14.725  0.00  0.00    +0.060 C 
ATOM     21  C   UNL     1      31.021 -22.223 -16.663  0.00  0.00    +0.060 C 
ATOM     22  C   UNL     1      33.386 -22.649 -16.690  0.00  0.00    -0.017 C 
ATOM     23  C   UNL     1      33.298 -23.190 -15.405  0.00  0.00    +0.072 C 
ATOM     24  C   UNL     1      29.712 -22.838 -14.686  0.00  0.00    -0.001 C 
ATOM     25  C   UNL     1      29.656 -23.381 -13.411  0.00  0.00    +0.020 C 
ATOM     26  C   UNL     1      30.837 -23.838 -12.861  0.00  0.00    +0.098 C 
ENDBRANCH  16  19
ENDBRANCH   7  16
TORSDOF 3
ENDMDL
MODEL 4
REMARK VINA RESULT:     -10.4      1.383      2.008
REMARK  Name = 24779724
REMARK  3 active torsions:
REMARK  status: ('A' for Active; 'I' for Inactive)
REMARK    1  A    between atoms: C_5  and  C_12
REMARK    2  A    between atoms: C_7  and  S_16
REMARK    3  A    between atoms: S_16  and  C_19
REMARK                            x       y       z     vdW  Elec       q    Type
REMARK                         _______ _______ _______ _____ _____    ______ ____
ROOT
ATOM      1  N   UNL     1      33.452 -22.030 -17.295  0.00  0.00    -0.186 N 
ATOM      2  N   UNL     1      34.330 -22.480 -16.364  0.00  0.00    -0.162 NA
ATOM      3  N   UNL     1      31.585 -21.554 -18.348  0.00  0.00    -0.126 NA
ATOM      4  N   UNL     1      32.644 -21.105 -19.110  0.00  0.00    -0.120 NA
ATOM      5  C   UNL     1      33.761 -23.039 -15.333  0.00  0.00    +0.104 C 
ATOM      6  C   UNL     1      32.080 -22.107 -17.261  0.00  0.00    +0.187 A 
ATOM      7  C   UNL     1      33.752 -21.399 -18.468  0.00  0.00    +0.217 A 
ATOM      8  C   UNL     1      32.280 -23.208 -15.169  0.00  0.00    +0.024 C 
ATOM      9  C   UNL     1      31.494 -22.731 -16.142  0.00  0.00    +0.042 C 
ENDROOT
BRANCH   5  12
ATOM     10  N   UNL     1      35.335 -24.234 -12.286  0.00  0.00    -0.208 N 
ATOM     11  N   UNL     1      36.394 -24.428 -13.091  0.00  0.00    -0.176 NA
ATOM     12  C   UNL     1      34.616 -23.568 -14.239  0.00  0.00    +0.056 C 
ATOM     13  C   UNL     1      34.245 -23.719 -12.925  0.00  0.00    +0.087 C 
ATOM     14  C   UNL     1      35.949 -24.021 -14.282  0.00  0.00    +0.121 C 
ATOM     15  C   UNL     1      35.429 -24.565 -10.884  0.00  0.00    +0.140 C 
ENDBRANCH   5  12
BRANCH   7  16
ATOM     16  S   UNL     1      35.420 -21.047 -19.001  0.00  0.00    -0.051 S 
BRANCH  16  19
ATOM     17  N   UNL     1      34.533 -16.558 -22.801  0.00  0.00    -0.248 NA
ATOM     18  C   UNL     1      34.018 -18.802 -22.092  0.00  0.00    -0.003 C 
ATOM     19  C   UNL     1      35.146 -19.709 -20.144  0.00  0.00    +0.011 C 
ATOM     20  C   UNL     1      34.718 -17.586 -21.952  0.00  0.00    +0.060 C 
ATOM     21  C   UNL     1      34.237 -19.855 -21.188  0.00  0.00    +0.060 C 
ATOM     22  C   UNL     1      35.840 -18.514 -20.001  0.00  0.00    -0.017 C 
ATOM     23  C   UNL     1      35.622 -17.468 -20.900  0.00  0.00    +0.072 C 
ATOM     24  C   UNL     1      33.109 -18.921 -23.151  0.00  0.00    -0.001 C 
ATOM     25  C   UNL     1      32.915 -17.864 -24.028  0.00  0.00    +0.020 C 
ATOM     26  C   UNL     1      33.646 -16.713 -23.810  0.00  0.00    +0.098 C 
ENDBRANCH  16  19
ENDBRANCH   7  16
TORSDOF 3
ENDMDL
MODEL 5
REMARK VINA RESULT:     -10.4      2.845      4.231
REMARK  Name = 24779724
REMARK  3 active torsions:
REMARK  status: ('A' for Active; 'I' for Inactive)
REMARK    1  A    between atoms: C_5  and  C_12
REMARK    2  A    between atoms: C_7  and  S_16
REMARK    3  A    between atoms: S_16  and  C_19
REMARK                            x       y       z     vdW  Elec       q    Type
REMARK                         _______ _______ _______ _____ _____    ______ ____
ROOT
ATOM      1  N   UNL     1      32.919 -23.409 -15.292  0.00  0.00    -0.186 N 
ATOM      2  N   UNL     1      34.074 -24.118 -15.304  0.00  0.00    -0.162 NA
ATOM      3  N   UNL     1      31.173 -22.271 -14.597  0.00  0.00    -0.126 NA
ATOM      4  N   UNL     1      31.118 -22.360 -15.973  0.00  0.00    -0.120 NA
ATOM      5  C   UNL     1      34.583 -24.315 -14.121  0.00  0.00    +0.104 C 
ATOM      6  C   UNL     1      32.257 -22.902 -14.198  0.00  0.00    +0.187 A 
ATOM      7  C   UNL     1      32.167 -23.045 -16.372  0.00  0.00    +0.217 A 
ATOM      8  C   UNL     1      33.964 -23.838 -12.841  0.00  0.00    +0.024 C 
ATOM      9  C   UNL     1      32.822 -23.145 -12.930  0.00  0.00    +0.042 C 
ENDROOT
BRANCH   5  12
ATOM     10  N   UNL     1      37.965 -25.594 -13.783  0.00  0.00    -0.208 N 
ATOM     11  N   UNL     1      37.360 -26.789 -13.885  0.00  0.00    -0.176 NA
ATOM     12  C   UNL     1      35.854 -25.075 -14.002  0.00  0.00    +0.056 C 
ATOM     13  C   UNL     1      37.107 -24.535 -13.847  0.00  0.00    +0.087 C 
ATOM     14  C   UNL     1      36.071 -26.467 -14.018  0.00  0.00    +0.121 C 
ATOM     15  C   UNL     1      39.398 -25.527 -13.622  0.00  0.00    +0.140 C 
ENDBRANCH   5  12
BRANCH   7  16
ATOM     16  S   UNL     1      32.593 -23.461 -18.056  0.00  0.00    -0.051 S 
BRANCH  16  19
ATOM     17  N   UNL     1      36.181 -18.938 -19.488  0.00  0.00    -0.248 NA
ATOM     18  C   UNL     1      34.120 -20.136 -19.836  0.00  0.00    -0.003 C 
ATOM     19  C   UNL     1      33.659 -22.103 -18.491  0.00  0.00    +0.011 C 
ATOM     20  C   UNL     1      35.354 -19.954 -19.178  0.00  0.00    +0.060 C 
ATOM     21  C   UNL     1      33.282 -21.208 -19.488  0.00  0.00    +0.060 C 
ATOM     22  C   UNL     1      34.874 -21.930 -17.840  0.00  0.00    -0.017 C 
ATOM     23  C   UNL     1      35.707 -20.864 -18.186  0.00  0.00    +0.072 C 
ATOM     24  C   UNL     1      33.765 -19.220 -20.835  0.00  0.00    -0.001 C 
ATOM     25  C   UNL     1      34.614 -18.171 -21.156  0.00  0.00    +0.020 C 
ATOM     26  C   UNL     1      35.801 -18.076 -20.458  0.00  0.00    +0.098 C 
ENDBRANCH  16  19
ENDBRANCH   7  16
TORSDOF 3
ENDMDL
MODEL 6
REMARK VINA RESULT:     -10.3      6.123     11.924
REMARK  Name = 24779724
REMARK  3 active torsions:
REMARK  status: ('A' for Active; 'I' for Inactive)
REMARK    1  A    between atoms: C_5  and  C_12
REMARK    2  A    between atoms: C_7  and  S_16
REMARK    3  A    between atoms: S_16  and  C_19
REMARK                            x       y       z     vdW  Elec       q    Type
REMARK                         _______ _______ _______ _____ _____    ______ ____
ROOT
ATOM      1  N   UNL     1      31.611 -11.305 -21.296  0.00  0.00    -0.186 N 
ATOM      2  N   UNL     1      31.680 -10.108 -21.929  0.00  0.00    -0.162 NA
ATOM      3  N   UNL     1      31.142 -12.865 -19.823  0.00  0.00    -0.126 NA
ATOM      4  N   UNL     1      31.872 -13.434 -20.847  0.00  0.00    -0.120 NA
ATOM      5  C   UNL     1      31.070  -9.144 -21.299  0.00  0.00    +0.104 C 
ATOM      6  C   UNL     1      30.991 -11.587 -20.102  0.00  0.00    +0.187 A 
ATOM      7  C   UNL     1      32.145 -12.489 -21.717  0.00  0.00    +0.217 A 
ATOM      8  C   UNL     1      30.370  -9.301 -19.983  0.00  0.00    +0.024 C 
ATOM      9  C   UNL     1      30.355 -10.522 -19.434  0.00  0.00    +0.042 C 
ENDROOT
BRANCH   5  12
ATOM     10  N   UNL     1      31.687  -5.936 -22.886  0.00  0.00    -0.208 N 
ATOM     11  N   UNL     1      30.394  -5.715 -22.594  0.00  0.00    -0.176 NA
ATOM     12  C   UNL     1      31.069  -7.782 -21.894  0.00  0.00    +0.056 C 
ATOM     13  C   UNL     1      32.141  -7.160 -22.487  0.00  0.00    +0.087 C 
ATOM     14  C   UNL     1      30.022  -6.846 -21.989  0.00  0.00    +0.121 C 
ATOM     15  C   UNL     1      32.454  -4.917 -23.561  0.00  0.00    +0.140 C 
ENDBRANCH   5  12
BRANCH   7  16
ATOM     16  S   UNL     1      33.066 -12.670 -23.237  0.00  0.00    -0.051 S 
BRANCH  16  19
ATOM     17  N   UNL     1      33.517 -18.587 -23.650  0.00  0.00    -0.248 NA
ATOM     18  C   UNL     1      34.053 -16.546 -22.487  0.00  0.00    -0.003 C 
ATOM     19  C   UNL     1      33.207 -14.442 -23.351  0.00  0.00    +0.011 C 
ATOM     20  C   UNL     1      33.427 -17.249 -23.537  0.00  0.00    +0.060 C 
ATOM     21  C   UNL     1      33.939 -15.148 -22.401  0.00  0.00    +0.060 C 
ATOM     22  C   UNL     1      32.588 -15.127 -24.388  0.00  0.00    -0.017 C 
ATOM     23  C   UNL     1      32.701 -16.516 -24.474  0.00  0.00    +0.072 C 
ATOM     24  C   UNL     1      34.783 -17.282 -21.545  0.00  0.00    -0.001 C 
ATOM     25  C   UNL     1      34.878 -18.662 -21.657  0.00  0.00    +0.020 C 
ATOM     26  C   UNL     1      34.231 -19.261 -22.720  0.00  0.00    +0.098 C 
ENDBRANCH  16  19
ENDBRANCH   7  16
TORSDOF 3
ENDMDL
MODEL 7
REMARK VINA RESULT:     -10.0      2.007      9.316
REMARK  Name = 24779724
REMARK  3 active torsions:
REMARK  status: ('A' for Active; 'I' for Inactive)
REMARK    1  A    between atoms: C_5  and  C_12
REMARK    2  A    between atoms: C_7  and  S_16
REMARK    3  A    between atoms: S_16  and  C_19
REMARK                            x       y       z     vdW  Elec       q    Type
REMARK                         _______ _______ _______ _____ _____    ______ ____
ROOT
ATOM      1  N   UNL     1      34.460 -20.011 -19.801  0.00  0.00    -0.186 N 
ATOM      2  N   UNL     1      33.741 -19.459 -20.809  0.00  0.00    -0.162 NA
ATOM      3  N   UNL     1      36.100 -20.481 -18.417  0.00  0.00    -0.126 NA
ATOM      4  N   UNL     1      35.005 -21.247 -18.074  0.00  0.00    -0.120 NA
ATOM      5  C   UNL     1      34.401 -18.572 -21.500  0.00  0.00    +0.104 C 
ATOM      6  C   UNL     1      35.763 -19.743 -19.454  0.00  0.00    +0.187 A 
ATOM      7  C   UNL     1      34.035 -20.955 -18.911  0.00  0.00    +0.217 A 
ATOM      8  C   UNL     1      35.830 -18.192 -21.249  0.00  0.00    +0.024 C 
ATOM      9  C   UNL     1      36.457 -18.793 -20.230  0.00  0.00    +0.042 C 
ENDROOT
BRANCH   5  12
ATOM     10  N   UNL     1      33.010 -16.369 -24.029  0.00  0.00    -0.208 N 
ATOM     11  N   UNL     1      32.456 -17.502 -24.493  0.00  0.00    -0.176 NA
ATOM     12  C   UNL     1      33.721 -17.890 -22.631  0.00  0.00    +0.056 C 
ATOM     13  C   UNL     1      33.776 -16.547 -22.914  0.00  0.00    +0.087 C 
ATOM     14  C   UNL     1      32.894 -18.427 -23.636  0.00  0.00    +0.121 C 
ATOM     15  C   UNL     1      32.763 -15.119 -24.708  0.00  0.00    +0.140 C 
ENDBRANCH   5  12
BRANCH   7  16
ATOM     16  S   UNL     1      32.391 -21.655 -18.925  0.00  0.00    -0.051 S 
BRANCH  16  19
ATOM     17  N   UNL     1      31.864 -23.594 -13.326  0.00  0.00    -0.248 NA
ATOM     18  C   UNL     1      33.262 -23.122 -15.231  0.00  0.00    -0.003 C 
ATOM     19  C   UNL     1      32.245 -22.236 -17.249  0.00  0.00    +0.011 C 
ATOM     20  C   UNL     1      32.005 -23.158 -14.592  0.00  0.00    +0.060 C 
ATOM     21  C   UNL     1      33.373 -22.662 -16.554  0.00  0.00    +0.060 C 
ATOM     22  C   UNL     1      31.003 -22.270 -16.626  0.00  0.00    -0.017 C 
ATOM     23  C   UNL     1      30.893 -22.728 -15.311  0.00  0.00    +0.072 C 
ATOM     24  C   UNL     1      34.382 -23.555 -14.508  0.00  0.00    -0.001 C 
ATOM     25  C   UNL     1      34.239 -24.004 -13.203  0.00  0.00    +0.020 C 
ATOM     26  C   UNL     1      32.969 -24.003 -12.663  0.00  0.00    +0.098 C 
ENDBRANCH  16  19
ENDBRANCH   7  16
TORSDOF 3
ENDMDL
MODEL 8
REMARK VINA RESULT:      -9.9      4.052      7.565
REMARK  Name = 24779724
REMARK  3 active torsions:
REMARK  status: ('A' for Active; 'I' for Inactive)
REMARK    1  A    between atoms: C_5  and  C_12
REMARK    2  A    between atoms: C_7  and  S_16
REMARK    3  A    between atoms: S_16  and  C_19
REMARK                            x       y       z     vdW  Elec       q    Type
REMARK                         _______ _______ _______ _____ _____    ______ ____
ROOT
ATOM      1  N   UNL     1      33.390 -15.853 -22.933  0.00  0.00    -0.186 N 
ATOM      2  N   UNL     1      33.998 -16.484 -21.899  0.00  0.00    -0.162 NA
ATOM      3  N   UNL     1      32.418 -15.466 -24.865  0.00  0.00    -0.126 NA
ATOM      4  N   UNL     1      32.488 -14.279 -24.164  0.00  0.00    -0.120 NA
ATOM      5  C   UNL     1      34.171 -17.762 -22.092  0.00  0.00    +0.104 C 
ATOM      6  C   UNL     1      32.962 -16.404 -24.118  0.00  0.00    +0.187 A 
ATOM      7  C   UNL     1      33.072 -14.527 -23.014  0.00  0.00    +0.217 A 
ATOM      8  C   UNL     1      33.772 -18.493 -23.338  0.00  0.00    +0.024 C 
ATOM      9  C   UNL     1      33.178 -17.783 -24.306  0.00  0.00    +0.042 C 
ENDROOT
BRANCH   5  12
ATOM     10  N   UNL     1      35.215 -20.072 -19.491  0.00  0.00    -0.208 N 
ATOM     11  N   UNL     1      36.344 -19.344 -19.510  0.00  0.00    -0.176 NA
ATOM     12  C   UNL     1      34.822 -18.568 -21.027  0.00  0.00    +0.056 C 
ATOM     13  C   UNL     1      34.271 -19.648 -20.381  0.00  0.00    +0.087 C 
ATOM     14  C   UNL     1      36.099 -18.427 -20.450  0.00  0.00    +0.121 C 
ATOM     15  C   UNL     1      35.094 -21.185 -18.581  0.00  0.00    +0.140 C 
ENDBRANCH   5  12
BRANCH   7  16
ATOM     16  S   UNL     1      33.420 -13.349 -21.717  0.00  0.00    -0.051 S 
BRANCH  16  19
ATOM     17  N   UNL     1      32.119  -8.228 -24.450  0.00  0.00    -0.248 NA
ATOM     18  C   UNL     1      31.884  -9.671 -22.534  0.00  0.00    -0.003 C 
ATOM     19  C   UNL     1      33.025 -11.813 -22.526  0.00  0.00    +0.011 C 
ATOM     20  C   UNL     1      32.401  -9.380 -23.814  0.00  0.00    +0.060 C 
ATOM     21  C   UNL     1      32.200 -10.884 -21.899  0.00  0.00    +0.060 C 
ATOM     22  C   UNL     1      33.537 -11.534 -23.787  0.00  0.00    -0.017 C 
ATOM     23  C   UNL     1      33.224 -10.328 -24.418  0.00  0.00    +0.072 C 
ATOM     24  C   UNL     1      31.057  -8.717 -21.926  0.00  0.00    -0.001 C 
ATOM     25  C   UNL     1      30.764  -7.528 -22.578  0.00  0.00    +0.020 C 
ATOM     26  C   UNL     1      31.316  -7.335 -23.828  0.00  0.00    +0.098 C 
ENDBRANCH  16  19
ENDBRANCH   7  16
TORSDOF 3
ENDMDL
MODEL 9
REMARK VINA RESULT:      -9.9      6.222     12.632
REMARK  Name = 24779724
REMARK  3 active torsions:
REMARK  status: ('A' for Active; 'I' for Inactive)
REMARK    1  A    between atoms: C_5  and  C_12
REMARK    2  A    between atoms: C_7  and  S_16
REMARK    3  A    between atoms: S_16  and  C_19
REMARK                            x       y       z     vdW  Elec       q    Type
REMARK                         _______ _______ _______ _____ _____    ______ ____
ROOT
ATOM      1  N   UNL     1      31.772 -10.395 -21.759  0.00  0.00    -0.186 N 
ATOM      2  N   UNL     1      32.396  -9.438 -22.490  0.00  0.00    -0.162 NA
ATOM      3  N   UNL     1      30.493 -11.388 -20.275  0.00  0.00    -0.126 NA
ATOM      4  N   UNL     1      31.140 -12.357 -21.015  0.00  0.00    -0.120 NA
ATOM      5  C   UNL     1      32.077  -8.222 -22.146  0.00  0.00    +0.104 C 
ATOM      6  C   UNL     1      30.879 -10.214 -20.730  0.00  0.00    +0.187 A 
ATOM      7  C   UNL     1      31.901 -11.747 -21.895  0.00  0.00    +0.217 A 
ATOM      8  C   UNL     1      31.133  -7.875 -21.034  0.00  0.00    +0.024 C 
ATOM      9  C   UNL     1      30.567  -8.889 -20.368  0.00  0.00    +0.042 C 
ENDROOT
BRANCH   5  12
ATOM     10  N   UNL     1      32.968  -5.255 -24.040  0.00  0.00    -0.208 N 
ATOM     11  N   UNL     1      34.225  -5.667 -23.803  0.00  0.00    -0.176 NA
ATOM     12  C   UNL     1      32.690  -7.084 -22.878  0.00  0.00    +0.056 C 
ATOM     13  C   UNL     1      32.012  -6.069 -23.507  0.00  0.00    +0.087 C 
ATOM     14  C   UNL     1      34.049  -6.784 -23.092  0.00  0.00    +0.121 C 
ATOM     15  C   UNL     1      32.740  -4.049 -24.800  0.00  0.00    +0.140 C 
ENDBRANCH   5  12
BRANCH   7  16
ATOM     16  S   UNL     1      32.960 -12.520 -23.108  0.00  0.00    -0.051 S 
BRANCH  16  19
ATOM     17  N   UNL     1      34.447 -17.539 -20.283  0.00  0.00    -0.248 NA
ATOM     18  C   UNL     1      34.012 -16.376 -22.348  0.00  0.00    -0.003 C 
ATOM     19  C   UNL     1      33.407 -14.027 -22.272  0.00  0.00    +0.011 C 
ATOM     20  C   UNL     1      34.113 -16.414 -20.942  0.00  0.00    +0.060 C 
ATOM     21  C   UNL     1      33.660 -15.184 -23.003  0.00  0.00    +0.060 C 
ATOM     22  C   UNL     1      33.503 -14.057 -20.887  0.00  0.00    -0.017 C 
ATOM     23  C   UNL     1      33.853 -15.242 -20.235  0.00  0.00    +0.072 C 
ATOM     24  C   UNL     1      34.273 -17.556 -23.058  0.00  0.00    -0.001 C 
ATOM     25  C   UNL     1      34.618 -18.717 -22.383  0.00  0.00    +0.020 C 
ATOM     26  C   UNL     1      34.691 -18.655 -21.006  0.00  0.00    +0.098 C 
ENDBRANCH  16  19
ENDBRANCH   7  16
TORSDOF 3
ENDMDL
