MODEL 1
REMARK VINA RESULT:     -12.0      0.000      0.000
REMARK  Name = 66571548
REMARK  8 active torsions:
REMARK  status: ('A' for Active; 'I' for Inactive)
REMARK    1  A    between atoms: C_2  and  C_10
REMARK    2  A    between atoms: C_2  and  C_22
REMARK    3  A    between atoms: N_3  and  C_15
REMARK    4  A    between atoms: C_15  and  C_18
REMARK    5  A    between atoms: C_18  and  O_19
REMARK    6  A    between atoms: C_25  and  N_28
REMARK    7  A    between atoms: C_29  and  C_31
REMARK    8  A    between atoms: C_31  and  C_34
REMARK                            x       y       z     vdW  Elec       q    Type
REMARK                         _______ _______ _______ _____ _____    ______ ____
ROOT
ATOM      1  O   UNL     1      31.318 -22.045 -18.151  0.00  0.00    -0.286 OA
ATOM      2  C   UNL     1      32.426 -22.001 -17.574  0.00  0.00    +0.199 C 
ENDROOT
BRANCH   2  10
ATOM      3  N   UNL     1      33.635 -23.404 -14.477  0.00  0.00    -0.261 N 
ATOM      4  N   UNL     1      31.734 -24.134 -13.185  0.00  0.00    -0.322 NA
ATOM      5  N   UNL     1      29.612 -23.730 -14.308  0.00  0.00    -0.170 NA
ATOM      6  N   UNL     1      29.702 -24.731 -12.194  0.00  0.00    -0.293 N 
ATOM      7  C   UNL     1      32.292 -23.581 -14.276  0.00  0.00    +0.201 C 
ATOM      8  C   UNL     1      33.842 -22.810 -15.695  0.00  0.00    +0.071 C 
ATOM      9  C   UNL     1      31.625 -23.090 -15.392  0.00  0.00    +0.069 C 
ATOM     10  C   UNL     1      32.613 -22.604 -16.285  0.00  0.00    +0.059 C 
ATOM     11  C   UNL     1      30.234 -23.182 -15.379  0.00  0.00    +0.116 C 
ATOM     12  C   UNL     1      30.391 -24.165 -13.292  0.00  0.00    +0.143 C 
ATOM     13  H   UNL     1      30.206 -25.068 -11.419  0.00  0.00    +0.155 HD
ATOM     14  H   UNL     1      28.720 -24.785 -12.204  0.00  0.00    +0.155 HD
BRANCH   3  15
ATOM     15  C   UNL     1      34.752 -23.808 -13.495  0.00  0.00    +0.091 C 
ATOM     16  C   UNL     1      35.146 -25.302 -13.584  0.00  0.00    +0.023 C 
ATOM     17  C   UNL     1      36.024 -22.987 -13.814  0.00  0.00    +0.023 C 
BRANCH  15  18
ATOM     18  C   UNL     1      34.321 -23.507 -12.037  0.00  0.00    +0.155 C 
BRANCH  18  19
ATOM     19  O   UNL     1      33.929 -24.704 -11.371  0.00  0.00    -0.380 OA
ATOM     20  H   UNL     1      33.428 -24.479 -10.571  0.00  0.00    +0.211 HD
ENDBRANCH  18  19
ENDBRANCH  15  18
ENDBRANCH   3  15
ENDBRANCH   2  10
BRANCH   2  22
ATOM     21  N   UNL     1      35.864 -20.694 -18.465  0.00  0.00    -0.241 NA
ATOM     22  C   UNL     1      33.524 -21.285 -18.312  0.00  0.00    +0.059 C 
ATOM     23  C   UNL     1      33.260 -20.569 -19.474  0.00  0.00    +0.021 C 
ATOM     24  C   UNL     1      34.831 -21.315 -17.852  0.00  0.00    +0.102 C 
ATOM     25  C   UNL     1      34.296 -19.916 -20.133  0.00  0.00    +0.070 C 
ATOM     26  C   UNL     1      35.569 -20.009 -19.593  0.00  0.00    +0.113 C 
BRANCH  25  28
ATOM     27  O   UNL     1      36.171 -18.286 -21.820  0.00  0.00    -0.274 OA
ATOM     28  N   UNL     1      34.061 -19.191 -21.299  0.00  0.00    -0.282 N 
ATOM     29  C   UNL     1      34.976 -18.440 -22.058  0.00  0.00    +0.232 C 
ATOM     30  H   UNL     1      33.136 -19.206 -21.634  0.00  0.00    +0.155 HD
BRANCH  29  31
ATOM     31  C   UNL     1      34.300 -17.804 -23.262  0.00  0.00    +0.131 C 
BRANCH  31  34
ATOM     32 CL   UNL     1      32.495 -12.246 -22.149  0.00  0.00    -0.081 Cl
ATOM     33  N   UNL     1      34.024 -15.905 -21.767  0.00  0.00    -0.247 NA
ATOM     34  C   UNL     1      33.832 -16.394 -23.013  0.00  0.00    +0.068 C 
ATOM     35  C   UNL     1      33.241 -15.682 -24.044  0.00  0.00    +0.016 C 
ATOM     36  C   UNL     1      32.821 -14.383 -23.780  0.00  0.00    +0.014 C 
ATOM     37  C   UNL     1      33.603 -14.639 -21.548  0.00  0.00    +0.110 C 
ATOM     38  C   UNL     1      33.000 -13.844 -22.511  0.00  0.00    +0.077 C 
ENDBRANCH  31  34
ENDBRANCH  29  31
ENDBRANCH  25  28
ENDBRANCH   2  22
TORSDOF 8
ENDMDL
MODEL 2
REMARK VINA RESULT:     -11.8      5.654     12.737
REMARK  Name = 66571548
REMARK  8 active torsions:
REMARK  status: ('A' for Active; 'I' for Inactive)
REMARK    1  A    between atoms: C_2  and  C_10
REMARK    2  A    between atoms: C_2  and  C_22
REMARK    3  A    between atoms: N_3  and  C_15
REMARK    4  A    between atoms: C_15  and  C_18
REMARK    5  A    between atoms: C_18  and  O_19
REMARK    6  A    between atoms: C_25  and  N_28
REMARK    7  A    between atoms: C_29  and  C_31
REMARK    8  A    between atoms: C_31  and  C_34
REMARK                            x       y       z     vdW  Elec       q    Type
REMARK                         _______ _______ _______ _____ _____    ______ ____
ROOT
ATOM      1  O   UNL     1      30.778 -12.853 -19.936  0.00  0.00    -0.286 OA
ATOM      2  C   UNL     1      31.479 -12.321 -20.824  0.00  0.00    +0.199 C 
ENDROOT
BRANCH   2  10
ATOM      3  N   UNL     1      31.749  -8.907 -21.959  0.00  0.00    -0.261 N 
ATOM      4  N   UNL     1      31.220  -7.452 -20.110  0.00  0.00    -0.322 NA
ATOM      5  N   UNL     1      30.676  -8.668 -18.072  0.00  0.00    -0.170 NA
ATOM      6  N   UNL     1      30.662  -6.328 -18.137  0.00  0.00    -0.293 N 
ATOM      7  C   UNL     1      31.388  -8.667 -20.660  0.00  0.00    +0.201 C 
ATOM      8  C   UNL     1      31.824 -10.259 -22.172  0.00  0.00    +0.071 C 
ATOM      9  C   UNL     1      31.230  -9.894 -20.027  0.00  0.00    +0.069 C 
ATOM     10  C   UNL     1      31.507 -10.897 -20.991  0.00  0.00    +0.059 C 
ATOM     11  C   UNL     1      30.860  -9.861 -18.683  0.00  0.00    +0.116 C 
ATOM     12  C   UNL     1      30.864  -7.553 -18.814  0.00  0.00    +0.143 C 
ATOM     13  H   UNL     1      30.782  -5.476 -18.616  0.00  0.00    +0.155 HD
ATOM     14  H   UNL     1      30.401  -6.327 -17.188  0.00  0.00    +0.155 HD
BRANCH   3  15
ATOM     15  C   UNL     1      32.032  -7.832 -23.027  0.00  0.00    +0.091 C 
ATOM     16  C   UNL     1      33.215  -6.900 -22.670  0.00  0.00    +0.023 C 
ATOM     17  C   UNL     1      32.394  -8.528 -24.359  0.00  0.00    +0.023 C 
BRANCH  15  18
ATOM     18  C   UNL     1      30.775  -6.953 -23.251  0.00  0.00    +0.155 C 
BRANCH  18  19
ATOM     19  O   UNL     1      30.913  -5.699 -22.590  0.00  0.00    -0.380 OA
ATOM     20  H   UNL     1      30.549  -5.765 -21.693  0.00  0.00    +0.211 HD
ENDBRANCH  18  19
ENDBRANCH  15  18
ENDBRANCH   3  15
ENDBRANCH   2  10
BRANCH   2  22
ATOM     21  N   UNL     1      33.014 -13.915 -23.894  0.00  0.00    -0.241 NA
ATOM     22  C   UNL     1      32.274 -13.264 -21.686  0.00  0.00    +0.059 C 
ATOM     23  C   UNL     1      32.981 -14.324 -21.128  0.00  0.00    +0.021 C 
ATOM     24  C   UNL     1      32.321 -13.105 -23.062  0.00  0.00    +0.102 C 
ATOM     25  C   UNL     1      33.704 -15.180 -21.952  0.00  0.00    +0.070 C 
ATOM     26  C   UNL     1      33.689 -14.934 -23.316  0.00  0.00    +0.113 C 
BRANCH  25  28
ATOM     27  O   UNL     1      33.912 -18.029 -22.878  0.00  0.00    -0.274 OA
ATOM     28  N   UNL     1      34.421 -16.250 -21.422  0.00  0.00    -0.282 N 
ATOM     29  C   UNL     1      34.488 -17.573 -21.894  0.00  0.00    +0.232 C 
ATOM     30  H   UNL     1      34.948 -16.055 -20.615  0.00  0.00    +0.155 HD
BRANCH  29  31
ATOM     31  C   UNL     1      35.391 -18.425 -21.015  0.00  0.00    +0.131 C 
BRANCH  31  34
ATOM     32 CL   UNL     1      32.549 -22.462 -17.697  0.00  0.00    -0.081 Cl
ATOM     33  N   UNL     1      35.385 -20.233 -19.388  0.00  0.00    -0.247 NA
ATOM     34  C   UNL     1      34.642 -19.436 -20.188  0.00  0.00    +0.068 C 
ATOM     35  C   UNL     1      33.261 -19.502 -20.282  0.00  0.00    +0.016 C 
ATOM     36  C   UNL     1      32.600 -20.447 -19.505  0.00  0.00    +0.014 C 
ATOM     37  C   UNL     1      34.708 -21.139 -18.647  0.00  0.00    +0.110 C 
ATOM     38  C   UNL     1      33.330 -21.286 -18.670  0.00  0.00    +0.077 C 
ENDBRANCH  31  34
ENDBRANCH  29  31
ENDBRANCH  25  28
ENDBRANCH   2  22
TORSDOF 8
ENDMDL
MODEL 3
REMARK VINA RESULT:     -11.7      1.535      2.933
REMARK  Name = 66571548
REMARK  8 active torsions:
REMARK  status: ('A' for Active; 'I' for Inactive)
REMARK    1  A    between atoms: C_2  and  C_10
REMARK    2  A    between atoms: C_2  and  C_22
REMARK    3  A    between atoms: N_3  and  C_15
REMARK    4  A    between atoms: C_15  and  C_18
REMARK    5  A    between atoms: C_18  and  O_19
REMARK    6  A    between atoms: C_25  and  N_28
REMARK    7  A    between atoms: C_29  and  C_31
REMARK    8  A    between atoms: C_31  and  C_34
REMARK                            x       y       z     vdW  Elec       q    Type
REMARK                         _______ _______ _______ _____ _____    ______ ____
ROOT
ATOM      1  O   UNL     1      32.745 -23.535 -18.602  0.00  0.00    -0.286 OA
ATOM      2  C   UNL     1      33.159 -22.847 -17.644  0.00  0.00    +0.199 C 
ENDROOT
BRANCH   2  10
ATOM      3  N   UNL     1      31.228 -23.164 -14.612  0.00  0.00    -0.261 N 
ATOM      4  N   UNL     1      32.711 -23.854 -12.840  0.00  0.00    -0.322 NA
ATOM      5  N   UNL     1      35.014 -24.127 -13.582  0.00  0.00    -0.170 NA
ATOM      6  N   UNL     1      34.395 -24.515 -11.359  0.00  0.00    -0.293 N 
ATOM      7  C   UNL     1      32.455 -23.514 -14.115  0.00  0.00    +0.201 C 
ATOM      8  C   UNL     1      31.338 -22.883 -15.949  0.00  0.00    +0.071 C 
ATOM      9  C   UNL     1      33.371 -23.453 -15.158  0.00  0.00    +0.069 C 
ATOM     10  C   UNL     1      32.657 -23.052 -16.315  0.00  0.00    +0.059 C 
ATOM     11  C   UNL     1      34.692 -23.776 -14.849  0.00  0.00    +0.116 C 
ATOM     12  C   UNL     1      34.016 -24.144 -12.670  0.00  0.00    +0.143 C 
ATOM     13  H   UNL     1      33.720 -24.549 -10.643  0.00  0.00    +0.155 HD
ATOM     14  H   UNL     1      35.332 -24.740 -11.162  0.00  0.00    +0.155 HD
BRANCH   3  15
ATOM     15  C   UNL     1      29.918 -23.093 -13.803  0.00  0.00    +0.091 C 
ATOM     16  C   UNL     1      30.036 -22.260 -12.504  0.00  0.00    +0.023 C 
ATOM     17  C   UNL     1      28.827 -22.422 -14.670  0.00  0.00    +0.023 C 
BRANCH  15  18
ATOM     18  C   UNL     1      29.442 -24.518 -13.423  0.00  0.00    +0.155 C 
BRANCH  18  19
ATOM     19  O   UNL     1      29.864 -24.854 -12.105  0.00  0.00    -0.380 OA
ATOM     20  H   UNL     1      29.441 -24.257 -11.468  0.00  0.00    +0.211 HD
ENDBRANCH  18  19
ENDBRANCH  15  18
ENDBRANCH   3  15
ENDBRANCH   2  10
BRANCH   2  22
ATOM     21  N   UNL     1      36.180 -20.591 -17.321  0.00  0.00    -0.241 NA
ATOM     22  C   UNL     1      34.199 -21.812 -17.977  0.00  0.00    +0.059 C 
ATOM     23  C   UNL     1      34.169 -21.128 -19.188  0.00  0.00    +0.021 C 
ATOM     24  C   UNL     1      35.216 -21.509 -17.086  0.00  0.00    +0.102 C 
ATOM     25  C   UNL     1      35.143 -20.176 -19.466  0.00  0.00    +0.070 C 
ATOM     26  C   UNL     1      36.119 -19.947 -18.509  0.00  0.00    +0.113 C 
BRANCH  25  28
ATOM     27  O   UNL     1      32.857 -19.379 -21.241  0.00  0.00    -0.274 OA
ATOM     28  N   UNL     1      35.138 -19.474 -20.669  0.00  0.00    -0.282 N 
ATOM     29  C   UNL     1      34.036 -19.122 -21.468  0.00  0.00    +0.232 C 
ATOM     30  H   UNL     1      36.018 -19.189 -21.002  0.00  0.00    +0.155 HD
BRANCH  29  31
ATOM     31  C   UNL     1      34.477 -18.355 -22.705  0.00  0.00    +0.131 C 
BRANCH  31  34
ATOM     32 CL   UNL     1      32.908 -12.620 -22.500  0.00  0.00    -0.081 Cl
ATOM     33  N   UNL     1      34.177 -16.262 -21.501  0.00  0.00    -0.247 NA
ATOM     34  C   UNL     1      34.072 -16.904 -22.686  0.00  0.00    +0.068 C 
ATOM     35  C   UNL     1      33.621 -16.309 -23.854  0.00  0.00    +0.016 C 
ATOM     36  C   UNL     1      33.256 -14.969 -23.802  0.00  0.00    +0.014 C 
ATOM     37  C   UNL     1      33.813 -14.960 -21.489  0.00  0.00    +0.110 C 
ATOM     38  C   UNL     1      33.350 -14.274 -22.601  0.00  0.00    +0.077 C 
ENDBRANCH  31  34
ENDBRANCH  29  31
ENDBRANCH  25  28
ENDBRANCH   2  22
TORSDOF 8
ENDMDL
MODEL 4
REMARK VINA RESULT:     -11.5      1.875      3.241
REMARK  Name = 66571548
REMARK  8 active torsions:
REMARK  status: ('A' for Active; 'I' for Inactive)
REMARK    1  A    between atoms: C_2  and  C_10
REMARK    2  A    between atoms: C_2  and  C_22
REMARK    3  A    between atoms: N_3  and  C_15
REMARK    4  A    between atoms: C_15  and  C_18
REMARK    5  A    between atoms: C_18  and  O_19
REMARK    6  A    between atoms: C_25  and  N_28
REMARK    7  A    between atoms: C_29  and  C_31
REMARK    8  A    between atoms: C_31  and  C_34
REMARK                            x       y       z     vdW  Elec       q    Type
REMARK                         _______ _______ _______ _____ _____    ______ ____
ROOT
ATOM      1  O   UNL     1      35.753 -22.105 -17.278  0.00  0.00    -0.286 OA
ATOM      2  C   UNL     1      34.522 -22.021 -17.077  0.00  0.00    +0.199 C 
ENDROOT
BRANCH   2  10
ATOM      3  N   UNL     1      32.378 -23.265 -14.454  0.00  0.00    -0.261 N 
ATOM      4  N   UNL     1      33.762 -23.902 -12.585  0.00  0.00    -0.322 NA
ATOM      5  N   UNL     1      36.134 -23.531 -12.991  0.00  0.00    -0.170 NA
ATOM      6  N   UNL     1      35.368 -24.417 -10.965  0.00  0.00    -0.293 N 
ATOM      7  C   UNL     1      33.586 -23.415 -13.825  0.00  0.00    +0.201 C 
ATOM      8  C   UNL     1      32.575 -22.744 -15.706  0.00  0.00    +0.071 C 
ATOM      9  C   UNL     1      34.577 -22.977 -14.695  0.00  0.00    +0.069 C 
ATOM     10  C   UNL     1      33.930 -22.554 -15.883  0.00  0.00    +0.059 C 
ATOM     11  C   UNL     1      35.891 -23.050 -14.232  0.00  0.00    +0.116 C 
ATOM     12  C   UNL     1      35.069 -23.922 -12.255  0.00  0.00    +0.143 C 
ATOM     13  H   UNL     1      34.640 -24.720 -10.374  0.00  0.00    +0.155 HD
ATOM     14  H   UNL     1      36.301 -24.461 -10.658  0.00  0.00    +0.155 HD
BRANCH   3  15
ATOM     15  C   UNL     1      31.003 -23.623 -13.857  0.00  0.00    +0.091 C 
ATOM     16  C   UNL     1      29.903 -23.846 -14.923  0.00  0.00    +0.023 C 
ATOM     17  C   UNL     1      31.128 -24.940 -13.057  0.00  0.00    +0.023 C 
BRANCH  15  18
ATOM     18  C   UNL     1      30.526 -22.503 -12.898  0.00  0.00    +0.155 C 
BRANCH  18  19
ATOM     19  O   UNL     1      31.231 -22.564 -11.662  0.00  0.00    -0.380 OA
ATOM     20  H   UNL     1      31.124 -21.725 -11.187  0.00  0.00    +0.211 HD
ENDBRANCH  18  19
ENDBRANCH  15  18
ENDBRANCH   3  15
ENDBRANCH   2  10
BRANCH   2  22
ATOM     21  N   UNL     1      31.572 -20.888 -19.159  0.00  0.00    -0.241 NA
ATOM     22  C   UNL     1      33.725 -21.337 -18.153  0.00  0.00    +0.059 C 
ATOM     23  C   UNL     1      34.347 -20.549 -19.116  0.00  0.00    +0.021 C 
ATOM     24  C   UNL     1      32.348 -21.474 -18.218  0.00  0.00    +0.102 C 
ATOM     25  C   UNL     1      33.583 -19.930 -20.100  0.00  0.00    +0.070 C 
ATOM     26  C   UNL     1      32.212 -20.129 -20.077  0.00  0.00    +0.113 C 
BRANCH  25  28
ATOM     27  O   UNL     1      34.360 -17.031 -20.041  0.00  0.00    -0.274 OA
ATOM     28  N   UNL     1      34.178 -19.136 -21.077  0.00  0.00    -0.282 N 
ATOM     29  C   UNL     1      34.526 -17.776 -21.003  0.00  0.00    +0.232 C 
ATOM     30  H   UNL     1      34.381 -19.585 -21.929  0.00  0.00    +0.155 HD
BRANCH  29  31
ATOM     31  C   UNL     1      35.157 -17.298 -22.301  0.00  0.00    +0.131 C 
BRANCH  31  34
ATOM     32 CL   UNL     1      31.858 -13.275 -25.186  0.00  0.00    -0.081 Cl
ATOM     33  N   UNL     1      34.446 -15.005 -22.701  0.00  0.00    -0.247 NA
ATOM     34  C   UNL     1      34.308 -16.304 -23.050  0.00  0.00    +0.068 C 
ATOM     35  C   UNL     1      33.446 -16.755 -24.036  0.00  0.00    +0.016 C 
ATOM     36  C   UNL     1      32.677 -15.811 -24.709  0.00  0.00    +0.014 C 
ATOM     37  C   UNL     1      33.683 -14.117 -23.376  0.00  0.00    +0.110 C 
ATOM     38  C   UNL     1      32.791 -14.466 -24.378  0.00  0.00    +0.077 C 
ENDBRANCH  31  34
ENDBRANCH  29  31
ENDBRANCH  25  28
ENDBRANCH   2  22
TORSDOF 8
ENDMDL
MODEL 5
REMARK VINA RESULT:     -11.2      2.025      2.723
REMARK  Name = 66571548
REMARK  8 active torsions:
REMARK  status: ('A' for Active; 'I' for Inactive)
REMARK    1  A    between atoms: C_2  and  C_10
REMARK    2  A    between atoms: C_2  and  C_22
REMARK    3  A    between atoms: N_3  and  C_15
REMARK    4  A    between atoms: C_15  and  C_18
REMARK    5  A    between atoms: C_18  and  O_19
REMARK    6  A    between atoms: C_25  and  N_28
REMARK    7  A    between atoms: C_29  and  C_31
REMARK    8  A    between atoms: C_31  and  C_34
REMARK                            x       y       z     vdW  Elec       q    Type
REMARK                         _______ _______ _______ _____ _____    ______ ____
ROOT
ATOM      1  O   UNL     1      36.864 -20.495 -16.289  0.00  0.00    -0.286 OA
ATOM      2  C   UNL     1      35.959 -21.354 -16.358  0.00  0.00    +0.199 C 
ENDROOT
BRANCH   2  10
ATOM      3  N   UNL     1      36.359 -23.940 -13.873  0.00  0.00    -0.261 N 
ATOM      4  N   UNL     1      34.178 -24.500 -13.009  0.00  0.00    -0.322 NA
ATOM      5  N   UNL     1      32.390 -23.203 -14.031  0.00  0.00    -0.170 NA
ATOM      6  N   UNL     1      31.946 -24.808 -12.387  0.00  0.00    -0.293 N 
ATOM      7  C   UNL     1      34.997 -23.802 -13.814  0.00  0.00    +0.201 C 
ATOM      8  C   UNL     1      36.868 -23.068 -14.801  0.00  0.00    +0.071 C 
ATOM      9  C   UNL     1      34.627 -22.821 -14.726  0.00  0.00    +0.069 C 
ATOM     10  C   UNL     1      35.816 -22.361 -15.347  0.00  0.00    +0.059 C 
ATOM     11  C   UNL     1      33.266 -22.533 -14.816  0.00  0.00    +0.116 C 
ATOM     12  C   UNL     1      32.894 -24.132 -13.188  0.00  0.00    +0.143 C 
ATOM     13  H   UNL     1      32.243 -25.498 -11.750  0.00  0.00    +0.155 HD
ATOM     14  H   UNL     1      30.989 -24.590 -12.465  0.00  0.00    +0.155 HD
BRANCH   3  15
ATOM     15  C   UNL     1      37.201 -24.920 -13.033  0.00  0.00    +0.091 C 
ATOM     16  C   UNL     1      38.640 -25.117 -13.569  0.00  0.00    +0.023 C 
ATOM     17  C   UNL     1      37.328 -24.369 -11.594  0.00  0.00    +0.023 C 
BRANCH  15  18
ATOM     18  C   UNL     1      36.512 -26.307 -12.974  0.00  0.00    +0.155 C 
BRANCH  18  19
ATOM     19  O   UNL     1      35.892 -26.508 -11.708  0.00  0.00    -0.380 OA
ATOM     20  H   UNL     1      35.737 -25.649 -11.285  0.00  0.00    +0.211 HD
ENDBRANCH  18  19
ENDBRANCH  15  18
ENDBRANCH   3  15
ENDBRANCH   2  10
BRANCH   2  22
ATOM     21  N   UNL     1      32.993 -21.913 -18.641  0.00  0.00    -0.241 NA
ATOM     22  C   UNL     1      35.050 -21.256 -17.553  0.00  0.00    +0.059 C 
ATOM     23  C   UNL     1      35.384 -20.463 -18.646  0.00  0.00    +0.021 C 
ATOM     24  C   UNL     1      33.855 -21.955 -17.600  0.00  0.00    +0.102 C 
ATOM     25  C   UNL     1      34.523 -20.395 -19.737  0.00  0.00    +0.070 C 
ATOM     26  C   UNL     1      33.351 -21.132 -19.685  0.00  0.00    +0.113 C 
BRANCH  25  28
ATOM     27  O   UNL     1      32.724 -19.099 -21.761  0.00  0.00    -0.274 OA
ATOM     28  N   UNL     1      34.831 -19.610 -20.846  0.00  0.00    -0.282 N 
ATOM     29  C   UNL     1      33.949 -19.022 -21.769  0.00  0.00    +0.232 C 
ATOM     30  H   UNL     1      35.789 -19.448 -21.003  0.00  0.00    +0.155 HD
BRANCH  29  31
ATOM     31  C   UNL     1      34.707 -18.243 -22.833  0.00  0.00    +0.131 C 
BRANCH  31  34
ATOM     32 CL   UNL     1      32.618 -12.753 -23.776  0.00  0.00    -0.081 Cl
ATOM     33  N   UNL     1      33.752 -16.538 -24.283  0.00  0.00    -0.247 NA
ATOM     34  C   UNL     1      34.184 -16.845 -23.039  0.00  0.00    +0.068 C 
ATOM     35  C   UNL     1      34.170 -15.961 -21.973  0.00  0.00    +0.016 C 
ATOM     36  C   UNL     1      33.681 -14.679 -22.197  0.00  0.00    +0.014 C 
ATOM     37  C   UNL     1      33.284 -15.283 -24.463  0.00  0.00    +0.110 C 
ATOM     38  C   UNL     1      33.228 -14.325 -23.463  0.00  0.00    +0.077 C 
ENDBRANCH  31  34
ENDBRANCH  29  31
ENDBRANCH  25  28
ENDBRANCH   2  22
TORSDOF 8
ENDMDL
MODEL 6
REMARK VINA RESULT:     -11.1      5.299     12.325
REMARK  Name = 66571548
REMARK  8 active torsions:
REMARK  status: ('A' for Active; 'I' for Inactive)
REMARK    1  A    between atoms: C_2  and  C_10
REMARK    2  A    between atoms: C_2  and  C_22
REMARK    3  A    between atoms: N_3  and  C_15
REMARK    4  A    between atoms: C_15  and  C_18
REMARK    5  A    between atoms: C_18  and  O_19
REMARK    6  A    between atoms: C_25  and  N_28
REMARK    7  A    between atoms: C_29  and  C_31
REMARK    8  A    between atoms: C_31  and  C_34
REMARK                            x       y       z     vdW  Elec       q    Type
REMARK                         _______ _______ _______ _____ _____    ______ ____
ROOT
ATOM      1  O   UNL     1      33.726 -11.519 -25.190  0.00  0.00    -0.286 OA
ATOM      2  C   UNL     1      33.161 -12.053 -24.211  0.00  0.00    +0.199 C 
ENDROOT
BRANCH   2  10
ATOM      3  N   UNL     1      31.569 -10.728 -21.256  0.00  0.00    -0.261 N 
ATOM      4  N   UNL     1      31.675  -8.321 -21.356  0.00  0.00    -0.322 NA
ATOM      5  N   UNL     1      32.788  -7.502 -23.361  0.00  0.00    -0.170 NA
ATOM      6  N   UNL     1      31.938  -6.031 -21.751  0.00  0.00    -0.293 N 
ATOM      7  C   UNL     1      31.920  -9.546 -21.852  0.00  0.00    +0.201 C 
ATOM      8  C   UNL     1      31.978 -11.775 -22.039  0.00  0.00    +0.071 C 
ATOM      9  C   UNL     1      32.567  -9.845 -23.045  0.00  0.00    +0.069 C 
ATOM     10  C   UNL     1      32.600 -11.257 -23.157  0.00  0.00    +0.059 C 
ATOM     11  C   UNL     1      33.005  -8.761 -23.807  0.00  0.00    +0.116 C 
ATOM     12  C   UNL     1      32.145  -7.363 -22.179  0.00  0.00    +0.143 C 
ATOM     13  H   UNL     1      31.477  -5.855 -20.899  0.00  0.00    +0.155 HD
ATOM     14  H   UNL     1      32.255  -5.281 -22.303  0.00  0.00    +0.155 HD
BRANCH   3  15
ATOM     15  C   UNL     1      30.828 -10.872 -19.912  0.00  0.00    +0.091 C 
ATOM     16  C   UNL     1      29.352 -10.410 -19.966  0.00  0.00    +0.023 C 
ATOM     17  C   UNL     1      30.819 -12.362 -19.500  0.00  0.00    +0.023 C 
BRANCH  15  18
ATOM     18  C   UNL     1      31.550 -10.056 -18.810  0.00  0.00    +0.155 C 
BRANCH  18  19
ATOM     19  O   UNL     1      30.812  -8.883 -18.487  0.00  0.00    -0.380 OA
ATOM     20  H   UNL     1      30.251  -8.637 -19.240  0.00  0.00    +0.211 HD
ENDBRANCH  18  19
ENDBRANCH  15  18
ENDBRANCH   3  15
ENDBRANCH   2  10
BRANCH   2  22
ATOM     21  N   UNL     1      32.319 -15.591 -25.255  0.00  0.00    -0.241 NA
ATOM     22  C   UNL     1      33.113 -13.556 -24.219  0.00  0.00    +0.059 C 
ATOM     23  C   UNL     1      33.778 -14.301 -23.250  0.00  0.00    +0.021 C 
ATOM     24  C   UNL     1      32.403 -14.243 -25.190  0.00  0.00    +0.102 C 
ATOM     25  C   UNL     1      33.714 -15.690 -23.283  0.00  0.00    +0.070 C 
ATOM     26  C   UNL     1      32.978 -16.281 -24.297  0.00  0.00    +0.113 C 
BRANCH  25  28
ATOM     27  O   UNL     1      34.061 -18.666 -23.090  0.00  0.00    -0.274 OA
ATOM     28  N   UNL     1      34.369 -16.461 -22.326  0.00  0.00    -0.282 N 
ATOM     29  C   UNL     1      34.506 -17.859 -22.278  0.00  0.00    +0.232 C 
ATOM     30  H   UNL     1      34.790 -15.963 -21.589  0.00  0.00    +0.155 HD
BRANCH  29  31
ATOM     31  C   UNL     1      35.301 -18.293 -21.056  0.00  0.00    +0.131 C 
BRANCH  31  34
ATOM     32 CL   UNL     1      32.694 -22.515 -17.775  0.00  0.00    -0.081 Cl
ATOM     33  N   UNL     1      35.405 -20.160 -19.501  0.00  0.00    -0.247 NA
ATOM     34  C   UNL     1      34.610 -19.351 -20.237  0.00  0.00    +0.068 C 
ATOM     35  C   UNL     1      33.228 -19.446 -20.274  0.00  0.00    +0.016 C 
ATOM     36  C   UNL     1      32.623 -20.433 -19.505  0.00  0.00    +0.014 C 
ATOM     37  C   UNL     1      34.781 -21.108 -18.766  0.00  0.00    +0.110 C 
ATOM     38  C   UNL     1      33.406 -21.285 -18.735  0.00  0.00    +0.077 C 
ENDBRANCH  31  34
ENDBRANCH  29  31
ENDBRANCH  25  28
ENDBRANCH   2  22
TORSDOF 8
ENDMDL
MODEL 7
REMARK VINA RESULT:     -11.0      4.194     10.833
REMARK  Name = 66571548
REMARK  8 active torsions:
REMARK  status: ('A' for Active; 'I' for Inactive)
REMARK    1  A    between atoms: C_2  and  C_10
REMARK    2  A    between atoms: C_2  and  C_22
REMARK    3  A    between atoms: N_3  and  C_15
REMARK    4  A    between atoms: C_15  and  C_18
REMARK    5  A    between atoms: C_18  and  O_19
REMARK    6  A    between atoms: C_25  and  N_28
REMARK    7  A    between atoms: C_29  and  C_31
REMARK    8  A    between atoms: C_31  and  C_34
REMARK                            x       y       z     vdW  Elec       q    Type
REMARK                         _______ _______ _______ _____ _____    ______ ____
ROOT
ATOM      1  O   UNL     1      36.357 -18.312 -21.507  0.00  0.00    -0.286 OA
ATOM      2  C   UNL     1      35.181 -18.147 -21.115  0.00  0.00    +0.199 C 
ENDROOT
BRANCH   2  10
ATOM      3  N   UNL     1      33.451 -14.985 -21.285  0.00  0.00    -0.261 N 
ATOM      4  N   UNL     1      32.583 -14.718 -23.519  0.00  0.00    -0.322 NA
ATOM      5  N   UNL     1      33.105 -16.601 -24.972  0.00  0.00    -0.170 NA
ATOM      6  N   UNL     1      31.881 -14.764 -25.749  0.00  0.00    -0.293 N 
ATOM      7  C   UNL     1      33.252 -15.402 -22.574  0.00  0.00    +0.201 C 
ATOM      8  C   UNL     1      34.174 -15.930 -20.605  0.00  0.00    +0.071 C 
ATOM      9  C   UNL     1      33.861 -16.643 -22.721  0.00  0.00    +0.069 C 
ATOM     10  C   UNL     1      34.442 -16.970 -21.470  0.00  0.00    +0.059 C 
ATOM     11  C   UNL     1      33.766 -17.240 -23.978  0.00  0.00    +0.116 C 
ATOM     12  C   UNL     1      32.563 -15.396 -24.684  0.00  0.00    +0.143 C 
ATOM     13  H   UNL     1      31.462 -13.884 -25.610  0.00  0.00    +0.155 HD
ATOM     14  H   UNL     1      31.827 -15.202 -26.628  0.00  0.00    +0.155 HD
BRANCH   3  15
ATOM     15  C   UNL     1      32.944 -13.661 -20.679  0.00  0.00    +0.091 C 
ATOM     16  C   UNL     1      31.710 -13.832 -19.762  0.00  0.00    +0.023 C 
ATOM     17  C   UNL     1      34.066 -13.042 -19.814  0.00  0.00    +0.023 C 
BRANCH  15  18
ATOM     18  C   UNL     1      32.576 -12.661 -21.805  0.00  0.00    +0.155 C 
BRANCH  18  19
ATOM     19  O   UNL     1      33.744 -12.225 -22.492  0.00  0.00    -0.380 OA
ATOM     20  H   UNL     1      33.486 -11.723 -23.282  0.00  0.00    +0.211 HD
ENDBRANCH  18  19
ENDBRANCH  15  18
ENDBRANCH   3  15
ENDBRANCH   2  10
BRANCH   2  22
ATOM     21  N   UNL     1      32.696 -20.570 -19.608  0.00  0.00    -0.241 NA
ATOM     22  C   UNL     1      34.611 -19.248 -20.263  0.00  0.00    +0.059 C 
ATOM     23  C   UNL     1      35.411 -19.949 -19.366  0.00  0.00    +0.021 C 
ATOM     24  C   UNL     1      33.272 -19.593 -20.344  0.00  0.00    +0.102 C 
ATOM     25  C   UNL     1      34.854 -20.961 -18.591  0.00  0.00    +0.070 C 
ATOM     26  C   UNL     1      33.504 -21.230 -18.748  0.00  0.00    +0.113 C 
BRANCH  25  28
ATOM     27  O   UNL     1      36.439 -20.025 -16.218  0.00  0.00    -0.274 OA
ATOM     28  N   UNL     1      35.630 -21.679 -17.684  0.00  0.00    -0.282 N 
ATOM     29  C   UNL     1      36.357 -21.195 -16.583  0.00  0.00    +0.232 C 
ATOM     30  H   UNL     1      35.676 -22.650 -17.835  0.00  0.00    +0.155 HD
BRANCH  29  31
ATOM     31  C   UNL     1      37.068 -22.324 -15.854  0.00  0.00    +0.131 C 
BRANCH  31  34
ATOM     32 CL   UNL     1      34.237 -24.315 -11.016  0.00  0.00    -0.081 Cl
ATOM     33  N   UNL     1      37.071 -23.277 -13.615  0.00  0.00    -0.247 NA
ATOM     34  C   UNL     1      36.322 -22.821 -14.644  0.00  0.00    +0.068 C 
ATOM     35  C   UNL     1      34.936 -22.790 -14.640  0.00  0.00    +0.016 C 
ATOM     36  C   UNL     1      34.278 -23.256 -13.507  0.00  0.00    +0.014 C 
ATOM     37  C   UNL     1      36.397 -23.722 -12.531  0.00  0.00    +0.110 C 
ATOM     38  C   UNL     1      35.014 -23.733 -12.429  0.00  0.00    +0.077 C 
ENDBRANCH  31  34
ENDBRANCH  29  31
ENDBRANCH  25  28
ENDBRANCH   2  22
TORSDOF 8
ENDMDL
MODEL 8
REMARK VINA RESULT:     -10.9      5.306     13.020
REMARK  Name = 66571548
REMARK  8 active torsions:
REMARK  status: ('A' for Active; 'I' for Inactive)
REMARK    1  A    between atoms: C_2  and  C_10
REMARK    2  A    between atoms: C_2  and  C_22
REMARK    3  A    between atoms: N_3  and  C_15
REMARK    4  A    between atoms: C_15  and  C_18
REMARK    5  A    between atoms: C_18  and  O_19
REMARK    6  A    between atoms: C_25  and  N_28
REMARK    7  A    between atoms: C_29  and  C_31
REMARK    8  A    between atoms: C_31  and  C_34
REMARK                            x       y       z     vdW  Elec       q    Type
REMARK                         _______ _______ _______ _____ _____    ______ ____
ROOT
ATOM      1  O   UNL     1      30.862 -12.648 -20.618  0.00  0.00    -0.286 OA
ATOM      2  C   UNL     1      31.660 -12.282 -21.508  0.00  0.00    +0.199 C 
ENDROOT
BRANCH   2  10
ATOM      3  N   UNL     1      31.730  -8.676 -21.610  0.00  0.00    -0.261 N 
ATOM      4  N   UNL     1      33.112  -7.999 -23.467  0.00  0.00    -0.322 NA
ATOM      5  N   UNL     1      34.031  -9.885 -24.703  0.00  0.00    -0.170 NA
ATOM      6  N   UNL     1      34.493  -7.677 -25.326  0.00  0.00    -0.293 N 
ATOM      7  C   UNL     1      32.534  -8.931 -22.689  0.00  0.00    +0.201 C 
ATOM      8  C   UNL     1      31.320  -9.859 -21.054  0.00  0.00    +0.071 C 
ATOM      9  C   UNL     1      32.638 -10.310 -22.828  0.00  0.00    +0.069 C 
ATOM     10  C   UNL     1      31.867 -10.890 -21.789  0.00  0.00    +0.059 C 
ATOM     11  C   UNL     1      33.422 -10.774 -23.883  0.00  0.00    +0.116 C 
ATOM     12  C   UNL     1      33.841  -8.571 -24.446  0.00  0.00    +0.143 C 
ATOM     13  H   UNL     1      34.399  -6.705 -25.198  0.00  0.00    +0.155 HD
ATOM     14  H   UNL     1      35.043  -8.025 -26.064  0.00  0.00    +0.155 HD
BRANCH   3  15
ATOM     15  C   UNL     1      31.339  -7.278 -21.090  0.00  0.00    +0.091 C 
ATOM     16  C   UNL     1      32.406  -6.192 -21.371  0.00  0.00    +0.023 C 
ATOM     17  C   UNL     1      30.039  -6.825 -21.794  0.00  0.00    +0.023 C 
BRANCH  15  18
ATOM     18  C   UNL     1      31.087  -7.324 -19.562  0.00  0.00    +0.155 C 
BRANCH  18  19
ATOM     19  O   UNL     1      32.205  -6.804 -18.851  0.00  0.00    -0.380 OA
ATOM     20  H   UNL     1      31.956  -6.649 -17.926  0.00  0.00    +0.211 HD
ENDBRANCH  18  19
ENDBRANCH  15  18
ENDBRANCH   3  15
ENDBRANCH   2  10
BRANCH   2  22
ATOM     21  N   UNL     1      32.946 -14.417 -24.355  0.00  0.00    -0.241 NA
ATOM     22  C   UNL     1      32.371 -13.383 -22.247  0.00  0.00    +0.059 C 
ATOM     23  C   UNL     1      33.085 -14.362 -21.564  0.00  0.00    +0.021 C 
ATOM     24  C   UNL     1      32.332 -13.456 -23.630  0.00  0.00    +0.102 C 
ATOM     25  C   UNL     1      33.730 -15.368 -22.275  0.00  0.00    +0.070 C 
ATOM     26  C   UNL     1      33.632 -15.351 -23.657  0.00  0.00    +0.113 C 
BRANCH  25  28
ATOM     27  O   UNL     1      34.053 -18.283 -22.917  0.00  0.00    -0.274 OA
ATOM     28  N   UNL     1      34.453 -16.361 -21.618  0.00  0.00    -0.282 N 
ATOM     29  C   UNL     1      34.575 -17.720 -21.959  0.00  0.00    +0.232 C 
ATOM     30  H   UNL     1      34.939 -16.075 -20.812  0.00  0.00    +0.155 HD
BRANCH  29  31
ATOM     31  C   UNL     1      35.462 -18.457 -20.968  0.00  0.00    +0.131 C 
BRANCH  31  34
ATOM     32 CL   UNL     1      32.656 -22.532 -17.666  0.00  0.00    -0.081 Cl
ATOM     33  N   UNL     1      35.471 -20.262 -19.338  0.00  0.00    -0.247 NA
ATOM     34  C   UNL     1      34.722 -19.479 -20.145  0.00  0.00    +0.068 C 
ATOM     35  C   UNL     1      33.343 -19.567 -20.251  0.00  0.00    +0.016 C 
ATOM     36  C   UNL     1      32.691 -20.520 -19.477  0.00  0.00    +0.014 C 
ATOM     37  C   UNL     1      34.802 -21.177 -18.600  0.00  0.00    +0.110 C 
ATOM     38  C   UNL     1      33.427 -21.345 -18.634  0.00  0.00    +0.077 C 
ENDBRANCH  31  34
ENDBRANCH  29  31
ENDBRANCH  25  28
ENDBRANCH   2  22
TORSDOF 8
ENDMDL
MODEL 9
REMARK VINA RESULT:     -10.8      3.706     10.931
REMARK  Name = 66571548
REMARK  8 active torsions:
REMARK  status: ('A' for Active; 'I' for Inactive)
REMARK    1  A    between atoms: C_2  and  C_10
REMARK    2  A    between atoms: C_2  and  C_22
REMARK    3  A    between atoms: N_3  and  C_15
REMARK    4  A    between atoms: C_15  and  C_18
REMARK    5  A    between atoms: C_18  and  O_19
REMARK    6  A    between atoms: C_25  and  N_28
REMARK    7  A    between atoms: C_29  and  C_31
REMARK    8  A    between atoms: C_31  and  C_34
REMARK                            x       y       z     vdW  Elec       q    Type
REMARK                         _______ _______ _______ _____ _____    ______ ____
ROOT
ATOM      1  O   UNL     1      33.587 -18.609 -23.747  0.00  0.00    -0.286 OA
ATOM      2  C   UNL     1      33.817 -17.861 -22.772  0.00  0.00    +0.199 C 
ENDROOT
BRANCH   2  10
ATOM      3  N   UNL     1      33.069 -14.396 -22.096  0.00  0.00    -0.261 N 
ATOM      4  N   UNL     1      32.228 -13.396 -24.122  0.00  0.00    -0.322 NA
ATOM      5  N   UNL     1      32.125 -14.963 -25.983  0.00  0.00    -0.170 NA
ATOM      6  N   UNL     1      31.454 -12.734 -26.227  0.00  0.00    -0.293 N 
ATOM      7  C   UNL     1      32.707 -14.434 -23.416  0.00  0.00    +0.201 C 
ATOM      8  C   UNL     1      33.516 -15.632 -21.707  0.00  0.00    +0.071 C 
ATOM      9  C   UNL     1      32.925 -15.726 -23.882  0.00  0.00    +0.069 C 
ATOM     10  C   UNL     1      33.437 -16.478 -22.794  0.00  0.00    +0.059 C 
ATOM     11  C   UNL     1      32.612 -15.968 -25.219  0.00  0.00    +0.116 C 
ATOM     12  C   UNL     1      31.966 -13.756 -25.394  0.00  0.00    +0.143 C 
ATOM     13  H   UNL     1      31.312 -11.829 -25.864  0.00  0.00    +0.155 HD
ATOM     14  H   UNL     1      31.240 -12.926 -27.168  0.00  0.00    +0.155 HD
BRANCH   3  15
ATOM     15  C   UNL     1      32.992 -13.161 -21.177  0.00  0.00    +0.091 C 
ATOM     16  C   UNL     1      31.578 -12.903 -20.604  0.00  0.00    +0.023 C 
ATOM     17  C   UNL     1      33.935 -13.371 -19.970  0.00  0.00    +0.023 C 
BRANCH  15  18
ATOM     18  C   UNL     1      33.442 -11.891 -21.944  0.00  0.00    +0.155 C 
BRANCH  18  19
ATOM     19  O   UNL     1      32.316 -11.106 -22.321  0.00  0.00    -0.380 OA
ATOM     20  H   UNL     1      31.563 -11.325 -21.750  0.00  0.00    +0.211 HD
ENDBRANCH  18  19
ENDBRANCH  15  18
ENDBRANCH   3  15
ENDBRANCH   2  10
BRANCH   2  22
ATOM     21  N   UNL     1      36.428 -18.595 -20.133  0.00  0.00    -0.241 NA
ATOM     22  C   UNL     1      34.509 -18.503 -21.600  0.00  0.00    +0.059 C 
ATOM     23  C   UNL     1      33.922 -19.559 -20.910  0.00  0.00    +0.021 C 
ATOM     24  C   UNL     1      35.752 -18.063 -21.176  0.00  0.00    +0.102 C 
ATOM     25  C   UNL     1      34.587 -20.132 -19.832  0.00  0.00    +0.070 C 
ATOM     26  C   UNL     1      35.826 -19.618 -19.486  0.00  0.00    +0.113 C 
BRANCH  25  28
ATOM     27  O   UNL     1      31.814 -20.481 -18.735  0.00  0.00    -0.274 OA
ATOM     28  N   UNL     1      34.024 -21.191 -19.123  0.00  0.00    -0.282 N 
ATOM     29  C   UNL     1      32.713 -21.309 -18.628  0.00  0.00    +0.232 C 
ATOM     30  H   UNL     1      34.620 -21.953 -18.945  0.00  0.00    +0.155 HD
BRANCH  29  31
ATOM     31  C   UNL     1      32.515 -22.634 -17.908  0.00  0.00    +0.131 C 
BRANCH  31  34
ATOM     32 CL   UNL     1      35.314 -22.838 -12.663  0.00  0.00    -0.081 Cl
ATOM     33  N   UNL     1      34.510 -22.385 -16.539  0.00  0.00    -0.247 NA
ATOM     34  C   UNL     1      33.195 -22.695 -16.566  0.00  0.00    +0.068 C 
ATOM     35  C   UNL     1      32.460 -23.058 -15.448  0.00  0.00    +0.016 C 
ATOM     36  C   UNL     1      33.118 -23.104 -14.224  0.00  0.00    +0.014 C 
ATOM     37  C   UNL     1      35.116 -22.441 -15.331  0.00  0.00    +0.110 C 
ATOM     38  C   UNL     1      34.471 -22.792 -14.156  0.00  0.00    +0.077 C 
ENDBRANCH  31  34
ENDBRANCH  29  31
ENDBRANCH  25  28
ENDBRANCH   2  22
TORSDOF 8
ENDMDL
