MODEL 1
REMARK VINA RESULT:     -11.3      0.000      0.000
REMARK  Name = 24812719
REMARK  3 active torsions:
REMARK  status: ('A' for Active; 'I' for Inactive)
REMARK    1  A    between atoms: N_2  and  C_22
REMARK    2  A    between atoms: C_3  and  C_12
REMARK    3  A    between atoms: C_25  and  C_31
REMARK                            x       y       z     vdW  Elec       q    Type
REMARK                         _______ _______ _______ _____ _____    ______ ____
ROOT
ATOM      1  O   UNL     1      34.013 -15.276 -20.975  0.00  0.00    -0.269 OA
ATOM      2  N   UNL     1      33.930 -17.157 -22.389  0.00  0.00    -0.233 N 
ATOM      3  C   UNL     1      33.054 -14.927 -23.098  0.00  0.00    +0.046 C 
ATOM      4  C   UNL     1      32.794 -15.427 -24.324  0.00  0.00    -0.016 C 
ATOM      5  C   UNL     1      33.697 -15.804 -22.043  0.00  0.00    +0.256 C 
ATOM      6  C   UNL     1      33.647 -17.597 -23.678  0.00  0.00    +0.072 C 
ATOM      7  C   UNL     1      33.118 -16.804 -24.613  0.00  0.00    +0.012 C 
ATOM      8  C   UNL     1      32.168 -14.681 -25.472  0.00  0.00    +0.031 C 
ENDROOT
BRANCH   3  12
ATOM      9  N   UNL     1      31.887  -9.564 -21.786  0.00  0.00    -0.342 NA
ATOM     10  N   UNL     1      30.335 -10.283 -20.088  0.00  0.00    -0.170 NA
ATOM     11  N   UNL     1      30.711  -8.005 -20.484  0.00  0.00    -0.293 N 
ATOM     12  C   UNL     1      32.744 -13.528 -22.751  0.00  0.00    -0.017 C 
ATOM     13  C   UNL     1      31.827 -13.243 -21.743  0.00  0.00    +0.056 C 
ATOM     14  C   UNL     1      33.366 -12.485 -23.427  0.00  0.00    -0.022 C 
ATOM     15  C   UNL     1      31.536 -11.908 -21.415  0.00  0.00    +0.029 C 
ATOM     16  C   UNL     1      32.158 -10.845 -22.091  0.00  0.00    +0.124 C 
ATOM     17  C   UNL     1      33.071 -11.159 -23.095  0.00  0.00    +0.085 C 
ATOM     18  C   UNL     1      30.630 -11.555 -20.419  0.00  0.00    +0.110 C 
ATOM     19  C   UNL     1      30.990  -9.354 -20.801  0.00  0.00    +0.141 C 
ATOM     20  H   UNL     1      31.163  -7.282 -20.975  0.00  0.00    +0.155 HD
ATOM     21  H   UNL     1      30.065  -7.790 -19.773  0.00  0.00    +0.155 HD
ENDBRANCH   3  12
BRANCH   2  22
ATOM     22  C   UNL     1      34.488 -18.070 -21.409  0.00  0.00    +0.058 C 
ATOM     23  C   UNL     1      33.681 -19.049 -20.830  0.00  0.00    +0.019 C 
ATOM     24  C   UNL     1      35.830 -17.966 -21.044  0.00  0.00    +0.015 C 
ATOM     25  C   UNL     1      34.217 -19.925 -19.887  0.00  0.00    +0.073 C 
ATOM     26  C   UNL     1      36.366 -18.843 -20.101  0.00  0.00    +0.001 C 
ATOM     27  C   UNL     1      35.559 -19.822 -19.521  0.00  0.00    +0.004 C 
BRANCH  25  31
ATOM     28  F   UNL     1      33.743 -22.248 -19.560  0.00  0.00    -0.166 F 
ATOM     29  F   UNL     1      33.324 -20.916 -17.901  0.00  0.00    -0.166 F 
ATOM     30  F   UNL     1      32.052 -20.884 -19.665  0.00  0.00    -0.166 F 
ATOM     31  C   UNL     1      33.354 -20.972 -19.266  0.00  0.00    +0.419 C 
ENDBRANCH  25  31
ENDBRANCH   2  22
TORSDOF 3
ENDMDL
MODEL 2
REMARK VINA RESULT:     -11.2      6.438     10.253
REMARK  Name = 24812719
REMARK  3 active torsions:
REMARK  status: ('A' for Active; 'I' for Inactive)
REMARK    1  A    between atoms: N_2  and  C_22
REMARK    2  A    between atoms: C_3  and  C_12
REMARK    3  A    between atoms: C_25  and  C_31
REMARK                            x       y       z     vdW  Elec       q    Type
REMARK                         _______ _______ _______ _____ _____    ______ ____
ROOT
ATOM      1  O   UNL     1      31.580 -10.172 -22.103  0.00  0.00    -0.269 OA
ATOM      2  N   UNL     1      32.685  -8.104 -22.324  0.00  0.00    -0.233 N 
ATOM      3  C   UNL     1      33.361 -10.115 -23.644  0.00  0.00    +0.046 C 
ATOM      4  C   UNL     1      34.269  -9.368 -24.305  0.00  0.00    -0.016 C 
ATOM      5  C   UNL     1      32.464  -9.475 -22.603  0.00  0.00    +0.256 C 
ATOM      6  C   UNL     1      33.631  -7.395 -23.056  0.00  0.00    +0.072 C 
ATOM      7  C   UNL     1      34.388  -7.961 -24.000  0.00  0.00    +0.012 C 
ATOM      8  C   UNL     1      35.220  -9.857 -25.364  0.00  0.00    +0.031 C 
ENDROOT
BRANCH   3  12
ATOM      9  N   UNL     1      32.722 -15.620 -24.710  0.00  0.00    -0.342 NA
ATOM     10  N   UNL     1      33.734 -16.180 -22.597  0.00  0.00    -0.170 NA
ATOM     11  N   UNL     1      32.989 -17.857 -24.054  0.00  0.00    -0.293 N 
ATOM     12  C   UNL     1      33.198 -11.555 -23.916  0.00  0.00    -0.017 C 
ATOM     13  C   UNL     1      33.627 -12.498 -22.987  0.00  0.00    +0.056 C 
ATOM     14  C   UNL     1      32.613 -11.980 -25.104  0.00  0.00    -0.022 C 
ATOM     15  C   UNL     1      33.468 -13.868 -23.251  0.00  0.00    +0.029 C 
ATOM     16  C   UNL     1      32.879 -14.310 -24.447  0.00  0.00    +0.124 C 
ATOM     17  C   UNL     1      32.458 -13.346 -25.359  0.00  0.00    +0.085 C 
ATOM     18  C   UNL     1      33.876 -14.861 -22.365  0.00  0.00    +0.110 C 
ATOM     19  C   UNL     1      33.158 -16.482 -23.771  0.00  0.00    +0.141 C 
ATOM     20  H   UNL     1      32.572 -18.136 -24.900  0.00  0.00    +0.155 HD
ATOM     21  H   UNL     1      33.288 -18.533 -23.404  0.00  0.00    +0.155 HD
ENDBRANCH   3  12
BRANCH   2  22
ATOM     22  C   UNL     1      31.904  -7.440 -21.297  0.00  0.00    +0.058 C 
ATOM     23  C   UNL     1      31.134  -6.324 -21.619  0.00  0.00    +0.019 C 
ATOM     24  C   UNL     1      31.928  -7.916 -19.987  0.00  0.00    +0.015 C 
ATOM     25  C   UNL     1      30.385  -5.685 -20.632  0.00  0.00    +0.073 C 
ATOM     26  C   UNL     1      31.179  -7.277 -18.999  0.00  0.00    +0.001 C 
ATOM     27  C   UNL     1      30.408  -6.161 -19.321  0.00  0.00    +0.004 C 
BRANCH  25  31
ATOM     28  F   UNL     1      30.174  -3.302 -20.695  0.00  0.00    -0.166 F 
ATOM     29  F   UNL     1      29.231  -4.415 -22.299  0.00  0.00    -0.166 F 
ATOM     30  F   UNL     1      28.375  -4.458 -20.301  0.00  0.00    -0.166 F 
ATOM     31  C   UNL     1      29.561  -4.490 -20.976  0.00  0.00    +0.419 C 
ENDBRANCH  25  31
ENDBRANCH   2  22
TORSDOF 3
ENDMDL
MODEL 3
REMARK VINA RESULT:     -11.0      6.021     10.149
REMARK  Name = 24812719
REMARK  3 active torsions:
REMARK  status: ('A' for Active; 'I' for Inactive)
REMARK    1  A    between atoms: N_2  and  C_22
REMARK    2  A    between atoms: C_3  and  C_12
REMARK    3  A    between atoms: C_25  and  C_31
REMARK                            x       y       z     vdW  Elec       q    Type
REMARK                         _______ _______ _______ _____ _____    ______ ____
ROOT
ATOM      1  O   UNL     1      33.581 -10.626 -23.746  0.00  0.00    -0.269 OA
ATOM      2  N   UNL     1      32.267  -9.072 -22.561  0.00  0.00    -0.233 N 
ATOM      3  C   UNL     1      32.182 -11.521 -22.076  0.00  0.00    +0.046 C 
ATOM      4  C   UNL     1      31.341 -11.282 -21.049  0.00  0.00    -0.016 C 
ATOM      5  C   UNL     1      32.735 -10.368 -22.889  0.00  0.00    +0.256 C 
ATOM      6  C   UNL     1      31.408  -8.902 -21.481  0.00  0.00    +0.072 C 
ATOM      7  C   UNL     1      30.960  -9.922 -20.746  0.00  0.00    +0.012 C 
ATOM      8  C   UNL     1      30.718 -12.317 -20.151  0.00  0.00    +0.031 C 
ENDROOT
BRANCH   3  12
ATOM      9  N   UNL     1      33.782 -16.756 -23.450  0.00  0.00    -0.342 NA
ATOM     10  N   UNL     1      34.597 -17.129 -21.214  0.00  0.00    -0.170 NA
ATOM     11  N   UNL     1      34.751 -18.805 -22.843  0.00  0.00    -0.293 N 
ATOM     12  C   UNL     1      32.604 -12.890 -22.428  0.00  0.00    -0.017 C 
ATOM     13  C   UNL     1      33.203 -13.706 -21.474  0.00  0.00    +0.056 C 
ATOM     14  C   UNL     1      32.403 -13.374 -23.717  0.00  0.00    -0.022 C 
ATOM     15  C   UNL     1      33.601 -15.010 -21.816  0.00  0.00    +0.029 C 
ATOM     16  C   UNL     1      33.404 -15.510 -23.113  0.00  0.00    +0.124 C 
ATOM     17  C   UNL     1      32.802 -14.671 -24.048  0.00  0.00    +0.085 C 
ATOM     18  C   UNL     1      34.207 -15.877 -20.909  0.00  0.00    +0.110 C 
ATOM     19  C   UNL     1      34.358 -17.497 -22.482  0.00  0.00    +0.141 C 
ATOM     20  H   UNL     1      34.599 -19.128 -23.760  0.00  0.00    +0.155 HD
ATOM     21  H   UNL     1      35.175 -19.393 -22.177  0.00  0.00    +0.155 HD
ENDBRANCH   3  12
BRANCH   2  22
ATOM     22  C   UNL     1      32.706  -7.927 -23.336  0.00  0.00    +0.058 C 
ATOM     23  C   UNL     1      32.031  -7.574 -24.503  0.00  0.00    +0.019 C 
ATOM     24  C   UNL     1      33.806  -7.181 -22.914  0.00  0.00    +0.015 C 
ATOM     25  C   UNL     1      32.454  -6.474 -25.248  0.00  0.00    +0.073 C 
ATOM     26  C   UNL     1      34.229  -6.080 -23.659  0.00  0.00    +0.001 C 
ATOM     27  C   UNL     1      33.554  -5.726 -24.827  0.00  0.00    +0.004 C 
BRANCH  25  31
ATOM     28  F   UNL     1      30.798  -7.012 -26.890  0.00  0.00    -0.166 F 
ATOM     29  F   UNL     1      31.052  -4.915 -26.401  0.00  0.00    -0.166 F 
ATOM     30  F   UNL     1      32.571  -5.948 -27.564  0.00  0.00    -0.166 F 
ATOM     31  C   UNL     1      31.732  -6.096 -26.498  0.00  0.00    +0.419 C 
ENDBRANCH  25  31
ENDBRANCH   2  22
TORSDOF 3
ENDMDL
MODEL 4
REMARK VINA RESULT:     -11.0      4.642      8.763
REMARK  Name = 24812719
REMARK  3 active torsions:
REMARK  status: ('A' for Active; 'I' for Inactive)
REMARK    1  A    between atoms: N_2  and  C_22
REMARK    2  A    between atoms: C_3  and  C_12
REMARK    3  A    between atoms: C_25  and  C_31
REMARK                            x       y       z     vdW  Elec       q    Type
REMARK                         _______ _______ _______ _____ _____    ______ ____
ROOT
ATOM      1  O   UNL     1      33.733 -15.198 -20.916  0.00  0.00    -0.269 OA
ATOM      2  N   UNL     1      33.000 -14.674 -23.092  0.00  0.00    -0.233 N 
ATOM      3  C   UNL     1      33.802 -16.960 -22.479  0.00  0.00    +0.046 C 
ATOM      4  C   UNL     1      33.485 -17.396 -23.715  0.00  0.00    -0.016 C 
ATOM      5  C   UNL     1      33.526 -15.522 -22.087  0.00  0.00    +0.256 C 
ATOM      6  C   UNL     1      32.687 -15.199 -24.341  0.00  0.00    +0.072 C 
ATOM      7  C   UNL     1      32.897 -16.477 -24.662  0.00  0.00    +0.012 C 
ATOM      8  C   UNL     1      33.691 -18.789 -24.246  0.00  0.00    +0.031 C 
ENDROOT
BRANCH   3  12
ATOM      9  N   UNL     1      36.129 -20.375 -18.636  0.00  0.00    -0.342 NA
ATOM     10  N   UNL     1      34.009 -21.458 -18.267  0.00  0.00    -0.170 NA
ATOM     11  N   UNL     1      35.920 -22.124 -17.086  0.00  0.00    -0.293 N 
ATOM     12  C   UNL     1      34.404 -17.855 -21.473  0.00  0.00    -0.017 C 
ATOM     13  C   UNL     1      33.623 -18.808 -20.826  0.00  0.00    +0.056 C 
ATOM     14  C   UNL     1      35.756 -17.753 -21.165  0.00  0.00    -0.022 C 
ATOM     15  C   UNL     1      34.202 -19.659 -19.870  0.00  0.00    +0.029 C 
ATOM     16  C   UNL     1      35.566 -19.566 -19.550  0.00  0.00    +0.124 C 
ATOM     17  C   UNL     1      36.324 -18.603 -20.212  0.00  0.00    +0.085 C 
ATOM     18  C   UNL     1      33.476 -20.632 -19.187  0.00  0.00    +0.110 C 
ATOM     19  C   UNL     1      35.320 -21.277 -18.045  0.00  0.00    +0.141 C 
ATOM     20  H   UNL     1      36.879 -22.036 -16.884  0.00  0.00    +0.155 HD
ATOM     21  H   UNL     1      35.378 -22.803 -16.623  0.00  0.00    +0.155 HD
ENDBRANCH   3  12
BRANCH   2  22
ATOM     22  C   UNL     1      32.767 -13.271 -22.807  0.00  0.00    +0.058 C 
ATOM     23  C   UNL     1      33.412 -12.290 -23.558  0.00  0.00    +0.019 C 
ATOM     24  C   UNL     1      31.900 -12.904 -21.778  0.00  0.00    +0.015 C 
ATOM     25  C   UNL     1      33.188 -10.941 -23.283  0.00  0.00    +0.073 C 
ATOM     26  C   UNL     1      31.676 -11.555 -21.503  0.00  0.00    +0.001 C 
ATOM     27  C   UNL     1      32.321 -10.573 -22.255  0.00  0.00    +0.004 C 
BRANCH  25  31
ATOM     28  F   UNL     1      34.768  -9.146 -23.366  0.00  0.00    -0.166 F 
ATOM     29  F   UNL     1      34.599 -10.389 -25.135  0.00  0.00    -0.166 F 
ATOM     30  F   UNL     1      33.009  -8.993 -24.635  0.00  0.00    -0.166 F 
ATOM     31  C   UNL     1      33.879  -9.891 -24.087  0.00  0.00    +0.419 C 
ENDBRANCH  25  31
ENDBRANCH   2  22
TORSDOF 3
ENDMDL
MODEL 5
REMARK VINA RESULT:     -10.9      3.897      8.366
REMARK  Name = 24812719
REMARK  3 active torsions:
REMARK  status: ('A' for Active; 'I' for Inactive)
REMARK    1  A    between atoms: N_2  and  C_22
REMARK    2  A    between atoms: C_3  and  C_12
REMARK    3  A    between atoms: C_25  and  C_31
REMARK                            x       y       z     vdW  Elec       q    Type
REMARK                         _______ _______ _______ _____ _____    ______ ____
ROOT
ATOM      1  O   UNL     1      33.786 -15.771 -20.668  0.00  0.00    -0.269 OA
ATOM      2  N   UNL     1      33.238 -15.349 -22.919  0.00  0.00    -0.233 N 
ATOM      3  C   UNL     1      34.014 -17.594 -22.143  0.00  0.00    +0.046 C 
ATOM      4  C   UNL     1      33.811 -18.085 -23.383  0.00  0.00    -0.016 C 
ATOM      5  C   UNL     1      33.685 -16.146 -21.837  0.00  0.00    +0.256 C 
ATOM      6  C   UNL     1      33.041 -15.930 -24.167  0.00  0.00    +0.072 C 
ATOM      7  C   UNL     1      33.295 -17.217 -24.415  0.00  0.00    +0.012 C 
ATOM      8  C   UNL     1      34.083 -19.495 -23.835  0.00  0.00    +0.031 C 
ENDROOT
BRANCH   3  12
ATOM      9  N   UNL     1      36.046 -20.809 -17.974  0.00  0.00    -0.342 NA
ATOM     10  N   UNL     1      33.923 -21.927 -17.757  0.00  0.00    -0.170 NA
ATOM     11  N   UNL     1      35.730 -22.504 -16.382  0.00  0.00    -0.293 N 
ATOM     12  C   UNL     1      34.539 -18.437 -21.052  0.00  0.00    -0.017 C 
ATOM     13  C   UNL     1      33.721 -19.383 -20.443  0.00  0.00    +0.056 C 
ATOM     14  C   UNL     1      35.855 -18.292 -20.627  0.00  0.00    -0.022 C 
ATOM     15  C   UNL     1      34.226 -20.184 -19.405  0.00  0.00    +0.029 C 
ATOM     16  C   UNL     1      35.553 -20.047 -18.966  0.00  0.00    +0.124 C 
ATOM     17  C   UNL     1      36.350 -19.093 -19.594  0.00  0.00    +0.085 C 
ATOM     18  C   UNL     1      33.461 -21.148 -18.754  0.00  0.00    +0.110 C 
ATOM     19  C   UNL     1      35.204 -21.706 -17.424  0.00  0.00    +0.141 C 
ATOM     20  H   UNL     1      36.664 -22.386 -16.097  0.00  0.00    +0.155 HD
ATOM     21  H   UNL     1      35.162 -23.177 -15.944  0.00  0.00    +0.155 HD
ENDBRANCH   3  12
BRANCH   2  22
ATOM     22  C   UNL     1      32.961 -13.940 -22.714  0.00  0.00    +0.058 C 
ATOM     23  C   UNL     1      32.140 -13.536 -21.663  0.00  0.00    +0.019 C 
ATOM     24  C   UNL     1      33.515 -12.989 -23.571  0.00  0.00    +0.015 C 
ATOM     25  C   UNL     1      31.873 -12.182 -21.466  0.00  0.00    +0.073 C 
ATOM     26  C   UNL     1      33.249 -11.634 -23.374  0.00  0.00    +0.001 C 
ATOM     27  C   UNL     1      32.427 -11.230 -22.323  0.00  0.00    +0.004 C 
BRANCH  25  31
ATOM     28  F   UNL     1      31.598 -10.885 -19.474  0.00  0.00    -0.166 F 
ATOM     29  F   UNL     1      29.860 -11.106 -20.752  0.00  0.00    -0.166 F 
ATOM     30  F   UNL     1      30.564 -12.796 -19.579  0.00  0.00    -0.166 F 
ATOM     31  C   UNL     1      30.993 -11.749 -20.342  0.00  0.00    +0.419 C 
ENDBRANCH  25  31
ENDBRANCH   2  22
TORSDOF 3
ENDMDL
MODEL 6
REMARK VINA RESULT:     -10.8      4.516      6.847
REMARK  Name = 24812719
REMARK  3 active torsions:
REMARK  status: ('A' for Active; 'I' for Inactive)
REMARK    1  A    between atoms: N_2  and  C_22
REMARK    2  A    between atoms: C_3  and  C_12
REMARK    3  A    between atoms: C_25  and  C_31
REMARK                            x       y       z     vdW  Elec       q    Type
REMARK                         _______ _______ _______ _____ _____    ______ ____
ROOT
ATOM      1  O   UNL     1      33.478 -10.623 -23.413  0.00  0.00    -0.269 OA
ATOM      2  N   UNL     1      32.079 -11.500 -21.733  0.00  0.00    -0.233 N 
ATOM      3  C   UNL     1      32.043  -9.081 -22.358  0.00  0.00    +0.046 C 
ATOM      4  C   UNL     1      31.020  -8.882 -21.502  0.00  0.00    -0.016 C 
ATOM      5  C   UNL     1      32.617 -10.471 -22.544  0.00  0.00    +0.256 C 
ATOM      6  C   UNL     1      31.015 -11.221 -20.882  0.00  0.00    +0.072 C 
ATOM      7  C   UNL     1      30.491 -10.000 -20.756  0.00  0.00    +0.012 C 
ATOM      8  C   UNL     1      30.344  -7.568 -21.216  0.00  0.00    +0.031 C 
ENDROOT
BRANCH   3  12
ATOM      9  N   UNL     1      34.271  -4.844 -25.346  0.00  0.00    -0.342 NA
ATOM     10  N   UNL     1      32.623  -5.154 -27.075  0.00  0.00    -0.170 NA
ATOM     11  N   UNL     1      34.256  -3.484 -27.258  0.00  0.00    -0.293 N 
ATOM     12  C   UNL     1      32.621  -7.975 -23.144  0.00  0.00    -0.017 C 
ATOM     13  C   UNL     1      32.064  -7.621 -24.369  0.00  0.00    +0.056 C 
ATOM     14  C   UNL     1      33.726  -7.280 -22.666  0.00  0.00    -0.022 C 
ATOM     15  C   UNL     1      32.618  -6.565 -25.113  0.00  0.00    +0.029 C 
ATOM     16  C   UNL     1      33.734  -5.855 -24.641  0.00  0.00    +0.124 C 
ATOM     17  C   UNL     1      34.271  -6.231 -23.413  0.00  0.00    +0.085 C 
ATOM     18  C   UNL     1      32.109  -6.161 -26.344  0.00  0.00    +0.110 C 
ATOM     19  C   UNL     1      33.687  -4.549 -26.524  0.00  0.00    +0.141 C 
ATOM     20  H   UNL     1      35.038  -3.005 -26.902  0.00  0.00    +0.155 HD
ATOM     21  H   UNL     1      33.871  -3.223 -28.125  0.00  0.00    +0.155 HD
ENDBRANCH   3  12
BRANCH   2  22
ATOM     22  C   UNL     1      32.620 -12.844 -21.814  0.00  0.00    +0.058 C 
ATOM     23  C   UNL     1      32.628 -13.520 -23.033  0.00  0.00    +0.019 C 
ATOM     24  C   UNL     1      33.130 -13.459 -20.671  0.00  0.00    +0.015 C 
ATOM     25  C   UNL     1      33.148 -14.812 -23.110  0.00  0.00    +0.073 C 
ATOM     26  C   UNL     1      33.650 -14.752 -20.748  0.00  0.00    +0.001 C 
ATOM     27  C   UNL     1      33.658 -15.429 -21.968  0.00  0.00    +0.004 C 
BRANCH  25  31
ATOM     28  F   UNL     1      32.171 -16.477 -24.524  0.00  0.00    -0.166 F 
ATOM     29  F   UNL     1      32.989 -14.719 -25.495  0.00  0.00    -0.166 F 
ATOM     30  F   UNL     1      34.326 -16.203 -24.637  0.00  0.00    -0.166 F 
ATOM     31  C   UNL     1      33.156 -15.537 -24.414  0.00  0.00    +0.419 C 
ENDBRANCH  25  31
ENDBRANCH   2  22
TORSDOF 3
ENDMDL
MODEL 7
REMARK VINA RESULT:     -10.8      3.892      5.984
REMARK  Name = 24812719
REMARK  3 active torsions:
REMARK  status: ('A' for Active; 'I' for Inactive)
REMARK    1  A    between atoms: N_2  and  C_22
REMARK    2  A    between atoms: C_3  and  C_12
REMARK    3  A    between atoms: C_25  and  C_31
REMARK                            x       y       z     vdW  Elec       q    Type
REMARK                         _______ _______ _______ _____ _____    ______ ____
ROOT
ATOM      1  O   UNL     1      33.393 -11.084 -24.034  0.00  0.00    -0.269 OA
ATOM      2  N   UNL     1      32.316 -12.330 -22.350  0.00  0.00    -0.233 N 
ATOM      3  C   UNL     1      32.243  -9.833 -22.403  0.00  0.00    +0.046 C 
ATOM      4  C   UNL     1      31.411  -9.842 -21.341  0.00  0.00    -0.016 C 
ATOM      5  C   UNL     1      32.722 -11.140 -23.002  0.00  0.00    +0.256 C 
ATOM      6  C   UNL     1      31.448 -12.260 -21.267  0.00  0.00    +0.072 C 
ATOM      7  C   UNL     1      30.999 -11.103 -20.773  0.00  0.00    +0.012 C 
ATOM      8  C   UNL     1      30.848  -8.632 -20.644  0.00  0.00    +0.031 C 
ENDROOT
BRANCH   3  12
ATOM      9  N   UNL     1      33.990  -5.009 -24.753  0.00  0.00    -0.342 NA
ATOM     10  N   UNL     1      32.229  -5.132 -26.392  0.00  0.00    -0.170 NA
ATOM     11  N   UNL     1      33.749  -3.348 -26.393  0.00  0.00    -0.293 N 
ATOM     12  C   UNL     1      32.694  -8.573 -23.023  0.00  0.00    -0.017 C 
ATOM     13  C   UNL     1      32.023  -8.054 -24.125  0.00  0.00    +0.056 C 
ATOM     14  C   UNL     1      33.794  -7.895 -22.507  0.00  0.00    -0.022 C 
ATOM     15  C   UNL     1      32.457  -6.853 -24.710  0.00  0.00    +0.029 C 
ATOM     16  C   UNL     1      33.566  -6.159 -24.200  0.00  0.00    +0.124 C 
ATOM     17  C   UNL     1      34.219  -6.701 -23.095  0.00  0.00    +0.085 C 
ATOM     18  C   UNL     1      31.831  -6.281 -25.815  0.00  0.00    +0.110 C 
ATOM     19  C   UNL     1      33.298  -4.558 -25.818  0.00  0.00    +0.141 C 
ATOM     20  H   UNL     1      34.529  -2.884 -26.013  0.00  0.00    +0.155 HD
ATOM     21  H   UNL     1      33.282  -2.971 -27.173  0.00  0.00    +0.155 HD
ENDBRANCH   3  12
BRANCH   2  22
ATOM     22  C   UNL     1      32.786 -13.615 -22.831  0.00  0.00    +0.058 C 
ATOM     23  C   UNL     1      33.324 -14.540 -21.938  0.00  0.00    +0.019 C 
ATOM     24  C   UNL     1      32.702 -13.924 -24.188  0.00  0.00    +0.015 C 
ATOM     25  C   UNL     1      33.777 -15.775 -22.400  0.00  0.00    +0.073 C 
ATOM     26  C   UNL     1      33.154 -15.160 -24.652  0.00  0.00    +0.001 C 
ATOM     27  C   UNL     1      33.692 -16.085 -23.758  0.00  0.00    +0.004 C 
BRANCH  25  31
ATOM     28  F   UNL     1      33.716 -17.973 -21.456  0.00  0.00    -0.166 F 
ATOM     29  F   UNL     1      35.667 -17.054 -21.685  0.00  0.00    -0.166 F 
ATOM     30  F   UNL     1      34.304 -16.336 -20.151  0.00  0.00    -0.166 F 
ATOM     31  C   UNL     1      34.354 -16.765 -21.445  0.00  0.00    +0.419 C 
ENDBRANCH  25  31
ENDBRANCH   2  22
TORSDOF 3
ENDMDL
MODEL 8
REMARK VINA RESULT:     -10.8      5.881     10.182
REMARK  Name = 24812719
REMARK  3 active torsions:
REMARK  status: ('A' for Active; 'I' for Inactive)
REMARK    1  A    between atoms: N_2  and  C_22
REMARK    2  A    between atoms: C_3  and  C_12
REMARK    3  A    between atoms: C_25  and  C_31
REMARK                            x       y       z     vdW  Elec       q    Type
REMARK                         _______ _______ _______ _____ _____    ______ ____
ROOT
ATOM      1  O   UNL     1      31.401  -9.387 -22.240  0.00  0.00    -0.269 OA
ATOM      2  N   UNL     1      32.449  -7.377 -22.880  0.00  0.00    -0.233 N 
ATOM      3  C   UNL     1      33.282  -9.607 -23.641  0.00  0.00    +0.046 C 
ATOM      4  C   UNL     1      34.208  -8.993 -24.406  0.00  0.00    -0.016 C 
ATOM      5  C   UNL     1      32.294  -8.784 -22.838  0.00  0.00    +0.256 C 
ATOM      6  C   UNL     1      33.420  -6.815 -23.702  0.00  0.00    +0.072 C 
ATOM      7  C   UNL     1      34.259  -7.550 -24.437  0.00  0.00    +0.012 C 
ATOM      8  C   UNL     1      35.246  -9.670 -25.260  0.00  0.00    +0.031 C 
ENDROOT
BRANCH   3  12
ATOM      9  N   UNL     1      32.925 -15.231 -23.355  0.00  0.00    -0.342 NA
ATOM     10  N   UNL     1      32.176 -15.333 -25.642  0.00  0.00    -0.170 NA
ATOM     11  N   UNL     1      32.432 -17.286 -24.375  0.00  0.00    -0.293 N 
ATOM     12  C   UNL     1      33.186 -11.077 -23.573  0.00  0.00    -0.017 C 
ATOM     13  C   UNL     1      32.768 -11.804 -24.683  0.00  0.00    +0.056 C 
ATOM     14  C   UNL     1      33.513 -11.745 -22.398  0.00  0.00    -0.022 C 
ATOM     15  C   UNL     1      32.680 -13.205 -24.613  0.00  0.00    +0.029 C 
ATOM     16  C   UNL     1      33.007 -13.891 -23.433  0.00  0.00    +0.124 C 
ATOM     17  C   UNL     1      33.422 -13.139 -22.337  0.00  0.00    +0.085 C 
ATOM     18  C   UNL     1      32.269 -13.990 -25.687  0.00  0.00    +0.110 C 
ATOM     19  C   UNL     1      32.514 -15.878 -24.464  0.00  0.00    +0.141 C 
ATOM     20  H   UNL     1      32.668 -17.740 -23.534  0.00  0.00    +0.155 HD
ATOM     21  H   UNL     1      32.139 -17.812 -25.153  0.00  0.00    +0.155 HD
ENDBRANCH   3  12
BRANCH   2  22
ATOM     22  C   UNL     1      31.578  -6.529 -22.089  0.00  0.00    +0.058 C 
ATOM     23  C   UNL     1      31.552  -6.657 -20.701  0.00  0.00    +0.019 C 
ATOM     24  C   UNL     1      30.764  -5.587 -22.718  0.00  0.00    +0.015 C 
ATOM     25  C   UNL     1      30.714  -5.842 -19.941  0.00  0.00    +0.073 C 
ATOM     26  C   UNL     1      29.926  -4.771 -21.957  0.00  0.00    +0.001 C 
ATOM     27  C   UNL     1      29.900  -4.900 -20.569  0.00  0.00    +0.004 C 
BRANCH  25  31
ATOM     28  F   UNL     1      31.614  -5.209 -17.816  0.00  0.00    -0.166 F 
ATOM     29  F   UNL     1      29.488  -5.631 -17.898  0.00  0.00    -0.166 F 
ATOM     30  F   UNL     1      30.922  -7.259 -18.042  0.00  0.00    -0.166 F 
ATOM     31  C   UNL     1      30.685  -5.980 -18.456  0.00  0.00    +0.419 C 
ENDBRANCH  25  31
ENDBRANCH   2  22
TORSDOF 3
ENDMDL
MODEL 9
REMARK VINA RESULT:     -10.4      5.662      9.459
REMARK  Name = 24812719
REMARK  3 active torsions:
REMARK  status: ('A' for Active; 'I' for Inactive)
REMARK    1  A    between atoms: N_2  and  C_22
REMARK    2  A    between atoms: C_3  and  C_12
REMARK    3  A    between atoms: C_25  and  C_31
REMARK                            x       y       z     vdW  Elec       q    Type
REMARK                         _______ _______ _______ _____ _____    ______ ____
ROOT
ATOM      1  O   UNL     1      31.584 -11.864 -21.440  0.00  0.00    -0.269 OA
ATOM      2  N   UNL     1      32.146  -9.628 -21.917  0.00  0.00    -0.233 N 
ATOM      3  C   UNL     1      32.883 -11.519 -23.374  0.00  0.00    +0.046 C 
ATOM      4  C   UNL     1      33.427 -10.635 -24.236  0.00  0.00    -0.016 C 
ATOM      5  C   UNL     1      32.154 -11.026 -22.140  0.00  0.00    +0.256 C 
ATOM      6  C   UNL     1      32.717  -8.777 -22.857  0.00  0.00    +0.072 C 
ATOM      7  C   UNL     1      33.321  -9.220 -23.962  0.00  0.00    +0.012 C 
ATOM      8  C   UNL     1      34.171 -10.969 -25.501  0.00  0.00    +0.031 C 
ENDROOT
BRANCH   3  12
ATOM      9  N   UNL     1      33.166 -17.081 -24.282  0.00  0.00    -0.342 NA
ATOM     10  N   UNL     1      34.394 -17.386 -22.232  0.00  0.00    -0.170 NA
ATOM     11  N   UNL     1      33.868 -19.214 -23.600  0.00  0.00    -0.293 N 
ATOM     12  C   UNL     1      32.962 -12.973 -23.606  0.00  0.00    -0.017 C 
ATOM     13  C   UNL     1      33.610 -13.795 -22.689  0.00  0.00    +0.056 C 
ATOM     14  C   UNL     1      32.387 -13.533 -24.742  0.00  0.00    -0.022 C 
ATOM     15  C   UNL     1      33.680 -15.180 -22.914  0.00  0.00    +0.029 C 
ATOM     16  C   UNL     1      33.104 -15.757 -24.057  0.00  0.00    +0.124 C 
ATOM     17  C   UNL     1      32.462 -14.911 -24.958  0.00  0.00    +0.085 C 
ATOM     18  C   UNL     1      34.314 -16.057 -22.037  0.00  0.00    +0.110 C 
ATOM     19  C   UNL     1      33.808 -17.823 -23.357  0.00  0.00    +0.141 C 
ATOM     20  H   UNL     1      33.454 -19.590 -24.410  0.00  0.00    +0.155 HD
ATOM     21  H   UNL     1      34.323 -19.806 -22.959  0.00  0.00    +0.155 HD
ENDBRANCH   3  12
BRANCH   2  22
ATOM     22  C   UNL     1      31.519  -9.088 -20.725  0.00  0.00    +0.058 C 
ATOM     23  C   UNL     1      31.533  -7.714 -20.491  0.00  0.00    +0.019 C 
ATOM     24  C   UNL     1      30.905  -9.945 -19.813  0.00  0.00    +0.015 C 
ATOM     25  C   UNL     1      30.931  -7.196 -19.345  0.00  0.00    +0.073 C 
ATOM     26  C   UNL     1      30.303  -9.427 -18.666  0.00  0.00    +0.001 C 
ATOM     27  C   UNL     1      30.317  -8.052 -18.431  0.00  0.00    +0.004 C 
BRANCH  25  31
ATOM     28  F   UNL     1      31.175  -5.396 -17.788  0.00  0.00    -0.166 F 
ATOM     29  F   UNL     1      31.906  -5.060 -19.802  0.00  0.00    -0.166 F 
ATOM     30  F   UNL     1      29.766  -5.125 -19.422  0.00  0.00    -0.166 F 
ATOM     31  C   UNL     1      30.946  -5.726 -19.093  0.00  0.00    +0.419 C 
ENDBRANCH  25  31
ENDBRANCH   2  22
TORSDOF 3
ENDMDL
