MODEL 1
REMARK VINA RESULT:     -12.4      0.000      0.000
REMARK  Name = 25025505
REMARK  6 active torsions:
REMARK  status: ('A' for Active; 'I' for Inactive)
REMARK    1  A    between atoms: C_3  and  C_9
REMARK    2  A    between atoms: C_4  and  C_20
REMARK    3  A    between atoms: C_17  and  C_18
REMARK    4  A    between atoms: C_20  and  O_21
REMARK    5  A    between atoms: O_21  and  C_22
REMARK    6  A    between atoms: C_25  and  N_28
REMARK                            x       y       z     vdW  Elec       q    Type
REMARK                         _______ _______ _______ _____ _____    ______ ____
ROOT
ATOM      1  S   UNL     1      35.738 -22.312 -14.471  0.00  0.00    -0.079 S 
ATOM      2  N   UNL     1      33.611 -23.642 -15.093  0.00  0.00    -0.404 NA
ATOM      3  C   UNL     1      34.536 -22.843 -15.575  0.00  0.00    +0.134 C 
ATOM      4  C   UNL     1      33.860 -23.857 -13.752  0.00  0.00    +0.142 C 
ATOM      5  C   UNL     1      34.969 -23.220 -13.236  0.00  0.00    +0.122 C 
ENDROOT
BRANCH   3   9
ATOM      6  N   UNL     1      34.405 -20.449 -19.167  0.00  0.00    -0.253 N 
ATOM      7  N   UNL     1      35.378 -18.691 -20.361  0.00  0.00    -0.203 NA
ATOM      8  N   UNL     1      33.285 -19.659 -21.060  0.00  0.00    -0.181 NA
ATOM      9  C   UNL     1      34.601 -22.376 -17.017  0.00  0.00    +0.062 C 
ATOM     10  C   UNL     1      33.243 -21.866 -17.521  0.00  0.00    +0.030 C 
ATOM     11  C   UNL     1      35.667 -21.290 -17.226  0.00  0.00    +0.030 C 
ATOM     12  C   UNL     1      33.321 -21.420 -18.982  0.00  0.00    +0.102 C 
ATOM     13  C   UNL     1      35.734 -20.853 -18.689  0.00  0.00    +0.102 C 
ATOM     14  C   UNL     1      34.354 -19.558 -20.247  0.00  0.00    +0.090 C 
ATOM     15  C   UNL     1      35.295 -17.848 -21.410  0.00  0.00    +0.161 C 
ATOM     16  C   UNL     1      33.267 -18.786 -22.088  0.00  0.00    +0.104 C 
ATOM     17  C   UNL     1      34.254 -17.848 -22.315  0.00  0.00    +0.001 C 
BRANCH  17  18
ATOM     18  C   UNL     1      34.200 -16.904 -23.457  0.00  0.00    +0.026 C 
ATOM     19  C   UNL     1      34.102 -15.444 -23.011  0.00  0.00    +0.005 C 
ENDBRANCH  17  18
ENDBRANCH   3   9
BRANCH   4  20
ATOM     20  C   UNL     1      32.940 -24.731 -12.998  0.00  0.00    +0.260 C 
BRANCH  20  21
ATOM     21  O   UNL     1      31.922 -23.947 -12.378  0.00  0.00    -0.468 OA
BRANCH  21  22
ATOM     22  C   UNL     1      30.826 -23.651 -13.141  0.00  0.00    +0.139 C 
ATOM     23  C   UNL     1      29.886 -24.642 -13.428  0.00  0.00    +0.038 C 
ATOM     24  C   UNL     1      30.647 -22.359 -13.634  0.00  0.00    +0.038 C 
ATOM     25  C   UNL     1      28.592 -23.048 -14.699  0.00  0.00    +0.078 C 
ATOM     26  C   UNL     1      28.770 -24.340 -14.207  0.00  0.00    +0.020 C 
ATOM     27  C   UNL     1      29.531 -22.056 -14.413  0.00  0.00    +0.020 C 
BRANCH  25  28
ATOM     28  N   UNL     1      27.484 -22.749 -15.472  0.00  0.00    -0.149 N 
ATOM     29  N   UNL     1      27.364 -23.158 -16.742  0.00  0.00    -0.048 NA
ATOM     30  N   UNL     1      25.569 -21.981 -16.139  0.00  0.00    -0.107 NA
ATOM     31  N   UNL     1      26.191 -22.686 -17.145  0.00  0.00    -0.024 NA
ATOM     32  C   UNL     1      26.386 -22.033 -15.113  0.00  0.00    +0.215 C 
ENDBRANCH  25  28
ENDBRANCH  21  22
ENDBRANCH  20  21
ENDBRANCH   4  20
TORSDOF 6
ENDMDL
MODEL 2
REMARK VINA RESULT:     -11.7      6.326     10.215
REMARK  Name = 25025505
REMARK  6 active torsions:
REMARK  status: ('A' for Active; 'I' for Inactive)
REMARK    1  A    between atoms: C_3  and  C_9
REMARK    2  A    between atoms: C_4  and  C_20
REMARK    3  A    between atoms: C_17  and  C_18
REMARK    4  A    between atoms: C_20  and  O_21
REMARK    5  A    between atoms: O_21  and  C_22
REMARK    6  A    between atoms: C_25  and  N_28
REMARK                            x       y       z     vdW  Elec       q    Type
REMARK                         _______ _______ _______ _____ _____    ______ ____
ROOT
ATOM      1  S   UNL     1      33.165 -15.367 -24.370  0.00  0.00    -0.079 S 
ATOM      2  N   UNL     1      33.589 -15.133 -21.831  0.00  0.00    -0.404 NA
ATOM      3  C   UNL     1      33.061 -14.532 -22.873  0.00  0.00    +0.134 C 
ATOM      4  C   UNL     1      34.118 -16.343 -22.233  0.00  0.00    +0.142 C 
ATOM      5  C   UNL     1      33.985 -16.644 -23.572  0.00  0.00    +0.122 C 
ENDROOT
BRANCH   3   9
ATOM      6  N   UNL     1      32.074 -10.414 -22.023  0.00  0.00    -0.253 N 
ATOM      7  N   UNL     1      32.685  -8.177 -22.306  0.00  0.00    -0.203 NA
ATOM      8  N   UNL     1      30.921  -8.800 -20.788  0.00  0.00    -0.181 NA
ATOM      9  C   UNL     1      32.381 -13.176 -22.830  0.00  0.00    +0.062 C 
ATOM     10  C   UNL     1      31.939 -12.797 -21.409  0.00  0.00    +0.030 C 
ATOM     11  C   UNL     1      33.272 -12.065 -23.405  0.00  0.00    +0.030 C 
ATOM     12  C   UNL     1      31.237 -11.438 -21.387  0.00  0.00    +0.102 C 
ATOM     13  C   UNL     1      32.558 -10.713 -23.378  0.00  0.00    +0.102 C 
ATOM     14  C   UNL     1      31.884  -9.067 -21.691  0.00  0.00    +0.090 C 
ATOM     15  C   UNL     1      32.477  -6.890 -21.962  0.00  0.00    +0.161 C 
ATOM     16  C   UNL     1      30.767  -7.493 -20.490  0.00  0.00    +0.104 C 
ATOM     17  C   UNL     1      31.523  -6.484 -21.051  0.00  0.00    +0.001 C 
BRANCH  17  18
ATOM     18  C   UNL     1      31.324  -5.058 -20.699  0.00  0.00    +0.026 C 
ATOM     19  C   UNL     1      29.846  -4.676 -20.599  0.00  0.00    +0.005 C 
ENDBRANCH  17  18
ENDBRANCH   3   9
BRANCH   4  20
ATOM     20  C   UNL     1      34.769 -17.196 -21.219  0.00  0.00    +0.260 C 
BRANCH  20  21
ATOM     21  O   UNL     1      34.628 -18.571 -21.574  0.00  0.00    -0.468 OA
BRANCH  21  22
ATOM     22  C   UNL     1      34.385 -19.446 -20.552  0.00  0.00    +0.139 C 
ATOM     23  C   UNL     1      35.449 -20.002 -19.841  0.00  0.00    +0.038 C 
ATOM     24  C   UNL     1      33.074 -19.783 -20.218  0.00  0.00    +0.038 C 
ATOM     25  C   UNL     1      33.890 -21.232 -18.466  0.00  0.00    +0.078 C 
ATOM     26  C   UNL     1      35.201 -20.895 -18.799  0.00  0.00    +0.020 C 
ATOM     27  C   UNL     1      32.825 -20.676 -19.176  0.00  0.00    +0.020 C 
BRANCH  25  28
ATOM     28  N   UNL     1      33.644 -22.117 -17.432  0.00  0.00    -0.149 N 
ATOM     29  N   UNL     1      34.564 -22.406 -16.501  0.00  0.00    -0.048 NA
ATOM     30  N   UNL     1      32.685 -23.540 -16.106  0.00  0.00    -0.107 NA
ATOM     31  N   UNL     1      33.972 -23.276 -15.693  0.00  0.00    -0.024 NA
ATOM     32  C   UNL     1      32.503 -22.812 -17.183  0.00  0.00    +0.215 C 
ENDBRANCH  25  28
ENDBRANCH  21  22
ENDBRANCH  20  21
ENDBRANCH   4  20
TORSDOF 6
ENDMDL
MODEL 3
REMARK VINA RESULT:     -11.5      6.430     10.409
REMARK  Name = 25025505
REMARK  6 active torsions:
REMARK  status: ('A' for Active; 'I' for Inactive)
REMARK    1  A    between atoms: C_3  and  C_9
REMARK    2  A    between atoms: C_4  and  C_20
REMARK    3  A    between atoms: C_17  and  C_18
REMARK    4  A    between atoms: C_20  and  O_21
REMARK    5  A    between atoms: O_21  and  C_22
REMARK    6  A    between atoms: C_25  and  N_28
REMARK                            x       y       z     vdW  Elec       q    Type
REMARK                         _______ _______ _______ _____ _____    ______ ____
ROOT
ATOM      1  S   UNL     1      32.792 -14.909 -24.398  0.00  0.00    -0.079 S 
ATOM      2  N   UNL     1      33.938 -15.287 -22.112  0.00  0.00    -0.404 NA
ATOM      3  C   UNL     1      33.414 -14.369 -22.892  0.00  0.00    +0.134 C 
ATOM      4  C   UNL     1      33.848 -16.513 -22.742  0.00  0.00    +0.142 C 
ATOM      5  C   UNL     1      33.257 -16.508 -23.989  0.00  0.00    +0.122 C 
ENDROOT
BRANCH   3   9
ATOM      6  N   UNL     1      32.174 -10.241 -22.611  0.00  0.00    -0.253 N 
ATOM      7  N   UNL     1      30.553  -8.755 -21.822  0.00  0.00    -0.203 NA
ATOM      8  N   UNL     1      32.295  -8.017 -23.314  0.00  0.00    -0.181 NA
ATOM      9  C   UNL     1      33.328 -12.894 -22.545  0.00  0.00    +0.062 C 
ATOM     10  C   UNL     1      33.433 -12.000 -23.789  0.00  0.00    +0.030 C 
ATOM     11  C   UNL     1      32.042 -12.556 -21.776  0.00  0.00    +0.030 C 
ATOM     12  C   UNL     1      33.367 -10.518 -23.419  0.00  0.00    +0.102 C 
ATOM     13  C   UNL     1      31.989 -11.072 -21.413  0.00  0.00    +0.102 C 
ATOM     14  C   UNL     1      31.650  -8.943 -22.580  0.00  0.00    +0.090 C 
ATOM     15  C   UNL     1      30.074  -7.493 -21.817  0.00  0.00    +0.161 C 
ATOM     16  C   UNL     1      31.762  -6.778 -23.263  0.00  0.00    +0.104 C 
ATOM     17  C   UNL     1      30.642  -6.454 -22.525  0.00  0.00    +0.001 C 
BRANCH  17  18
ATOM     18  C   UNL     1      30.086  -5.081 -22.494  0.00  0.00    +0.026 C 
ATOM     19  C   UNL     1      29.861  -4.568 -21.070  0.00  0.00    +0.005 C 
ENDBRANCH  17  18
ENDBRANCH   3   9
BRANCH   4  20
ATOM     20  C   UNL     1      34.380 -17.701 -22.045  0.00  0.00    +0.260 C 
BRANCH  20  21
ATOM     21  O   UNL     1      33.348 -18.672 -21.880  0.00  0.00    -0.468 OA
BRANCH  21  22
ATOM     22  C   UNL     1      33.445 -19.489 -20.788  0.00  0.00    +0.139 C 
ATOM     23  C   UNL     1      32.289 -19.973 -20.173  0.00  0.00    +0.038 C 
ATOM     24  C   UNL     1      34.698 -19.840 -20.288  0.00  0.00    +0.038 C 
ATOM     25  C   UNL     1      33.642 -21.155 -18.559  0.00  0.00    +0.078 C 
ATOM     26  C   UNL     1      32.388 -20.805 -19.058  0.00  0.00    +0.020 C 
ATOM     27  C   UNL     1      34.798 -20.672 -19.173  0.00  0.00    +0.020 C 
BRANCH  25  28
ATOM     28  N   UNL     1      33.740 -21.981 -17.453  0.00  0.00    -0.149 N 
ATOM     29  N   UNL     1      34.876 -22.112 -16.755  0.00  0.00    -0.048 NA
ATOM     30  N   UNL     1      33.276 -23.386 -15.869  0.00  0.00    -0.107 NA
ATOM     31  N   UNL     1      34.587 -22.972 -15.786  0.00  0.00    -0.024 NA
ATOM     32  C   UNL     1      32.771 -22.760 -16.906  0.00  0.00    +0.215 C 
ENDBRANCH  25  28
ENDBRANCH  21  22
ENDBRANCH  20  21
ENDBRANCH   4  20
TORSDOF 6
ENDMDL
MODEL 4
REMARK VINA RESULT:     -11.4      4.878     11.457
REMARK  Name = 25025505
REMARK  6 active torsions:
REMARK  status: ('A' for Active; 'I' for Inactive)
REMARK    1  A    between atoms: C_3  and  C_9
REMARK    2  A    between atoms: C_4  and  C_20
REMARK    3  A    between atoms: C_17  and  C_18
REMARK    4  A    between atoms: C_20  and  O_21
REMARK    5  A    between atoms: O_21  and  C_22
REMARK    6  A    between atoms: C_25  and  N_28
REMARK                            x       y       z     vdW  Elec       q    Type
REMARK                         _______ _______ _______ _____ _____    ______ ____
ROOT
ATOM      1  S   UNL     1      35.500 -18.132 -20.639  0.00  0.00    -0.079 S 
ATOM      2  N   UNL     1      33.602 -18.758 -22.279  0.00  0.00    -0.404 NA
ATOM      3  C   UNL     1      34.187 -19.110 -21.156  0.00  0.00    +0.134 C 
ATOM      4  C   UNL     1      34.230 -17.632 -22.776  0.00  0.00    +0.142 C 
ATOM      5  C   UNL     1      35.280 -17.147 -22.025  0.00  0.00    +0.122 C 
ENDROOT
BRANCH   3   9
ATOM      6  N   UNL     1      32.925 -21.642 -17.892  0.00  0.00    -0.253 N 
ATOM      7  N   UNL     1      31.190 -22.195 -16.429  0.00  0.00    -0.203 NA
ATOM      8  N   UNL     1      33.405 -23.092 -16.125  0.00  0.00    -0.181 NA
ATOM      9  C   UNL     1      33.778 -20.302 -20.312  0.00  0.00    +0.062 C 
ATOM     10  C   UNL     1      34.741 -20.537 -19.139  0.00  0.00    +0.030 C 
ATOM     11  C   UNL     1      32.343 -20.169 -19.780  0.00  0.00    +0.030 C 
ATOM     12  C   UNL     1      34.327 -21.755 -18.312  0.00  0.00    +0.102 C 
ATOM     13  C   UNL     1      31.942 -21.393 -18.956  0.00  0.00    +0.102 C 
ATOM     14  C   UNL     1      32.486 -22.343 -16.763  0.00  0.00    +0.090 C 
ATOM     15  C   UNL     1      30.801 -22.883 -15.336  0.00  0.00    +0.161 C 
ATOM     16  C   UNL     1      32.949 -23.753 -15.041  0.00  0.00    +0.104 C 
ATOM     17  C   UNL     1      31.645 -23.685 -14.594  0.00  0.00    +0.001 C 
BRANCH  17  18
ATOM     18  C   UNL     1      31.179 -24.426 -13.398  0.00  0.00    +0.026 C 
ATOM     19  C   UNL     1      29.671 -24.683 -13.413  0.00  0.00    +0.005 C 
ENDBRANCH  17  18
ENDBRANCH   3   9
BRANCH   4  20
ATOM     20  C   UNL     1      33.736 -17.055 -24.042  0.00  0.00    +0.260 C 
BRANCH  20  21
ATOM     21  O   UNL     1      32.586 -16.248 -23.793  0.00  0.00    -0.468 OA
BRANCH  21  22
ATOM     22  C   UNL     1      32.777 -14.893 -23.793  0.00  0.00    +0.139 C 
ATOM     23  C   UNL     1      32.507 -14.150 -24.942  0.00  0.00    +0.038 C 
ATOM     24  C   UNL     1      33.242 -14.254 -22.644  0.00  0.00    +0.038 C 
ATOM     25  C   UNL     1      33.167 -12.131 -23.793  0.00  0.00    +0.078 C 
ATOM     26  C   UNL     1      32.702 -12.769 -24.942  0.00  0.00    +0.020 C 
ATOM     27  C   UNL     1      33.437 -12.873 -22.643  0.00  0.00    +0.020 C 
BRANCH  25  28
ATOM     28  N   UNL     1      33.361 -10.761 -23.793  0.00  0.00    -0.149 N 
ATOM     29  N   UNL     1      32.635  -9.934 -23.028  0.00  0.00    -0.048 NA
ATOM     30  N   UNL     1      34.117  -8.775 -24.224  0.00  0.00    -0.107 NA
ATOM     31  N   UNL     1      33.101  -8.721 -23.296  0.00  0.00    -0.024 NA
ATOM     32  C   UNL     1      34.262 -10.047 -24.517  0.00  0.00    +0.215 C 
ENDBRANCH  25  28
ENDBRANCH  21  22
ENDBRANCH  20  21
ENDBRANCH   4  20
TORSDOF 6
ENDMDL
MODEL 5
REMARK VINA RESULT:     -11.3      5.993      9.738
REMARK  Name = 25025505
REMARK  6 active torsions:
REMARK  status: ('A' for Active; 'I' for Inactive)
REMARK    1  A    between atoms: C_3  and  C_9
REMARK    2  A    between atoms: C_4  and  C_20
REMARK    3  A    between atoms: C_17  and  C_18
REMARK    4  A    between atoms: C_20  and  O_21
REMARK    5  A    between atoms: O_21  and  C_22
REMARK    6  A    between atoms: C_25  and  N_28
REMARK                            x       y       z     vdW  Elec       q    Type
REMARK                         _______ _______ _______ _____ _____    ______ ____
ROOT
ATOM      1  S   UNL     1      33.077 -16.254 -24.369  0.00  0.00    -0.079 S 
ATOM      2  N   UNL     1      33.849 -15.585 -21.994  0.00  0.00    -0.404 NA
ATOM      3  C   UNL     1      33.267 -15.134 -23.083  0.00  0.00    +0.134 C 
ATOM      4  C   UNL     1      34.172 -16.915 -22.180  0.00  0.00    +0.142 C 
ATOM      5  C   UNL     1      33.833 -17.453 -23.404  0.00  0.00    +0.122 C 
ENDROOT
BRANCH   3   9
ATOM      6  N   UNL     1      33.003 -10.828 -23.307  0.00  0.00    -0.253 N 
ATOM      7  N   UNL     1      33.674  -8.903 -24.449  0.00  0.00    -0.203 NA
ATOM      8  N   UNL     1      32.497  -8.757 -22.351  0.00  0.00    -0.181 NA
ATOM      9  C   UNL     1      32.767 -13.712 -23.262  0.00  0.00    +0.062 C 
ATOM     10  C   UNL     1      32.880 -12.892 -21.968  0.00  0.00    +0.030 C 
ATOM     11  C   UNL     1      33.497 -12.981 -24.398  0.00  0.00    +0.030 C 
ATOM     12  C   UNL     1      32.351 -11.470 -22.160  0.00  0.00    +0.102 C 
ATOM     13  C   UNL     1      32.959 -11.562 -24.580  0.00  0.00    +0.102 C 
ATOM     14  C   UNL     1      33.060  -9.431 -23.373  0.00  0.00    +0.090 C 
ATOM     15  C   UNL     1      33.711  -7.555 -24.479  0.00  0.00    +0.161 C 
ATOM     16  C   UNL     1      32.571  -7.414 -22.446  0.00  0.00    +0.104 C 
ATOM     17  C   UNL     1      33.172  -6.750 -23.496  0.00  0.00    +0.001 C 
BRANCH  17  18
ATOM     18  C   UNL     1      33.234  -5.271 -23.565  0.00  0.00    +0.026 C 
ATOM     19  C   UNL     1      31.911  -4.646 -24.012  0.00  0.00    +0.005 C 
ENDBRANCH  17  18
ENDBRANCH   3   9
BRANCH   4  20
ATOM     20  C   UNL     1      34.840 -17.635 -21.078  0.00  0.00    +0.260 C 
BRANCH  20  21
ATOM     21  O   UNL     1      34.774 -19.043 -21.304  0.00  0.00    -0.468 OA
BRANCH  21  22
ATOM     22  C   UNL     1      34.197 -19.795 -20.318  0.00  0.00    +0.139 C 
ATOM     23  C   UNL     1      32.809 -19.814 -20.175  0.00  0.00    +0.038 C 
ATOM     24  C   UNL     1      34.996 -20.543 -19.454  0.00  0.00    +0.038 C 
ATOM     25  C   UNL     1      33.022 -21.328 -18.306  0.00  0.00    +0.078 C 
ATOM     26  C   UNL     1      32.222 -20.581 -19.169  0.00  0.00    +0.020 C 
ATOM     27  C   UNL     1      34.409 -21.310 -18.448  0.00  0.00    +0.020 C 
BRANCH  25  28
ATOM     28  N   UNL     1      32.439 -22.089 -17.308  0.00  0.00    -0.149 N 
ATOM     29  N   UNL     1      31.113 -22.133 -17.122  0.00  0.00    -0.048 NA
ATOM     30  N   UNL     1      32.144 -23.425 -15.626  0.00  0.00    -0.107 NA
ATOM     31  N   UNL     1      30.937 -22.952 -16.092  0.00  0.00    -0.024 NA
ATOM     32  C   UNL     1      33.059 -22.879 -16.393  0.00  0.00    +0.215 C 
ENDBRANCH  25  28
ENDBRANCH  21  22
ENDBRANCH  20  21
ENDBRANCH   4  20
TORSDOF 6
ENDMDL
MODEL 6
REMARK VINA RESULT:     -11.0      3.617      6.010
REMARK  Name = 25025505
REMARK  6 active torsions:
REMARK  status: ('A' for Active; 'I' for Inactive)
REMARK    1  A    between atoms: C_3  and  C_9
REMARK    2  A    between atoms: C_4  and  C_20
REMARK    3  A    between atoms: C_17  and  C_18
REMARK    4  A    between atoms: C_20  and  O_21
REMARK    5  A    between atoms: O_21  and  C_22
REMARK    6  A    between atoms: C_25  and  N_28
REMARK                            x       y       z     vdW  Elec       q    Type
REMARK                         _______ _______ _______ _____ _____    ______ ____
ROOT
ATOM      1  S   UNL     1      35.993 -20.732 -18.774  0.00  0.00    -0.079 S 
ATOM      2  N   UNL     1      33.421 -20.793 -19.020  0.00  0.00    -0.404 NA
ATOM      3  C   UNL     1      34.521 -20.301 -19.543  0.00  0.00    +0.134 C 
ATOM      4  C   UNL     1      33.755 -21.570 -17.928  0.00  0.00    +0.142 C 
ATOM      5  C   UNL     1      35.101 -21.658 -17.639  0.00  0.00    +0.122 C 
ENDROOT
BRANCH   3   9
ATOM      6  N   UNL     1      33.689 -17.203 -22.437  0.00  0.00    -0.253 N 
ATOM      7  N   UNL     1      33.681 -14.908 -22.868  0.00  0.00    -0.203 NA
ATOM      8  N   UNL     1      32.675 -16.464 -24.407  0.00  0.00    -0.181 NA
ATOM      9  C   UNL     1      34.562 -19.395 -20.760  0.00  0.00    +0.062 C 
ATOM     10  C   UNL     1      33.270 -19.477 -21.586  0.00  0.00    +0.030 C 
ATOM     11  C   UNL     1      34.837 -17.932 -20.382  0.00  0.00    +0.030 C 
ATOM     12  C   UNL     1      33.337 -18.576 -22.819  0.00  0.00    +0.102 C 
ATOM     13  C   UNL     1      34.902 -17.042 -21.623  0.00  0.00    +0.102 C 
ATOM     14  C   UNL     1      33.332 -16.142 -23.277  0.00  0.00    +0.090 C 
ATOM     15  C   UNL     1      33.321 -13.909 -23.701  0.00  0.00    +0.161 C 
ATOM     16  C   UNL     1      32.345 -15.418 -25.193  0.00  0.00    +0.104 C 
ATOM     17  C   UNL     1      32.645 -14.106 -24.887  0.00  0.00    +0.001 C 
BRANCH  17  18
ATOM     18  C   UNL     1      32.266 -12.981 -25.776  0.00  0.00    +0.026 C 
ATOM     19  C   UNL     1      32.918 -11.660 -25.365  0.00  0.00    +0.005 C 
ENDBRANCH  17  18
ENDBRANCH   3   9
BRANCH   4  20
ATOM     20  C   UNL     1      32.668 -22.230 -17.177  0.00  0.00    +0.260 C 
BRANCH  20  21
ATOM     21  O   UNL     1      33.102 -23.507 -16.711  0.00  0.00    -0.468 OA
BRANCH  21  22
ATOM     22  C   UNL     1      33.480 -23.583 -15.399  0.00  0.00    +0.139 C 
ATOM     23  C   UNL     1      34.827 -23.729 -15.067  0.00  0.00    +0.038 C 
ATOM     24  C   UNL     1      32.518 -23.516 -14.391  0.00  0.00    +0.038 C 
ATOM     25  C   UNL     1      34.250 -23.741 -12.723  0.00  0.00    +0.078 C 
ATOM     26  C   UNL     1      35.212 -23.809 -13.729  0.00  0.00    +0.020 C 
ATOM     27  C   UNL     1      32.903 -23.594 -13.053  0.00  0.00    +0.020 C 
BRANCH  25  28
ATOM     28  N   UNL     1      34.632 -23.819 -11.395  0.00  0.00    -0.149 N 
ATOM     29  N   UNL     1      34.028 -24.637 -10.522  0.00  0.00    -0.048 NA
ATOM     30  N   UNL     1      35.656 -23.497  -9.511  0.00  0.00    -0.107 NA
ATOM     31  N   UNL     1      34.658 -24.436  -9.371  0.00  0.00    -0.024 NA
ATOM     32  C   UNL     1      35.622 -23.129 -10.771  0.00  0.00    +0.215 C 
ENDBRANCH  25  28
ENDBRANCH  21  22
ENDBRANCH  20  21
ENDBRANCH   4  20
TORSDOF 6
ENDMDL
MODEL 7
REMARK VINA RESULT:     -10.9      6.978     11.525
REMARK  Name = 25025505
REMARK  6 active torsions:
REMARK  status: ('A' for Active; 'I' for Inactive)
REMARK    1  A    between atoms: C_3  and  C_9
REMARK    2  A    between atoms: C_4  and  C_20
REMARK    3  A    between atoms: C_17  and  C_18
REMARK    4  A    between atoms: C_20  and  O_21
REMARK    5  A    between atoms: O_21  and  C_22
REMARK    6  A    between atoms: C_25  and  N_28
REMARK                            x       y       z     vdW  Elec       q    Type
REMARK                         _______ _______ _______ _____ _____    ______ ____
ROOT
ATOM      1  S   UNL     1      32.303 -13.700 -25.398  0.00  0.00    -0.079 S 
ATOM      2  N   UNL     1      33.303 -14.775 -23.270  0.00  0.00    -0.404 NA
ATOM      3  C   UNL     1      32.942 -13.631 -23.806  0.00  0.00    +0.134 C 
ATOM      4  C   UNL     1      33.061 -15.789 -24.177  0.00  0.00    +0.142 C 
ATOM      5  C   UNL     1      32.520 -15.401 -25.385  0.00  0.00    +0.122 C 
ENDROOT
BRANCH   3   9
ATOM      6  N   UNL     1      32.262  -9.571 -22.498  0.00  0.00    -0.253 N 
ATOM      7  N   UNL     1      30.861  -8.128 -21.311  0.00  0.00    -0.203 NA
ATOM      8  N   UNL     1      32.669  -7.276 -22.656  0.00  0.00    -0.181 NA
ATOM      9  C   UNL     1      33.055 -12.285 -23.114  0.00  0.00    +0.062 C 
ATOM     10  C   UNL     1      33.266 -11.138 -24.113  0.00  0.00    +0.030 C 
ATOM     11  C   UNL     1      31.833 -11.983 -22.235  0.00  0.00    +0.030 C 
ATOM     12  C   UNL     1      33.400  -9.793 -23.398  0.00  0.00    +0.102 C 
ATOM     13  C   UNL     1      31.981 -10.637 -21.526  0.00  0.00    +0.102 C 
ATOM     14  C   UNL     1      31.915  -8.264 -22.138  0.00  0.00    +0.090 C 
ATOM     15  C   UNL     1      30.553  -6.855 -20.986  0.00  0.00    +0.161 C 
ATOM     16  C   UNL     1      32.306  -6.030 -22.290  0.00  0.00    +0.104 C 
ATOM     17  C   UNL     1      31.246  -5.756 -21.450  0.00  0.00    +0.001 C 
BRANCH  17  18
ATOM     18  C   UNL     1      30.876  -4.371 -21.069  0.00  0.00    +0.026 C 
ATOM     19  C   UNL     1      29.399  -4.238 -20.692  0.00  0.00    +0.005 C 
ENDBRANCH  17  18
ENDBRANCH   3   9
BRANCH   4  20
ATOM     20  C   UNL     1      33.393 -17.173 -23.786  0.00  0.00    +0.260 C 
BRANCH  20  21
ATOM     21  O   UNL     1      34.576 -17.184 -22.988  0.00  0.00    -0.468 OA
BRANCH  21  22
ATOM     22  C   UNL     1      34.607 -18.075 -21.951  0.00  0.00    +0.139 C 
ATOM     23  C   UNL     1      35.783 -18.261 -21.224  0.00  0.00    +0.038 C 
ATOM     24  C   UNL     1      33.461 -18.797 -21.617  0.00  0.00    +0.038 C 
ATOM     25  C   UNL     1      34.669 -19.891 -19.835  0.00  0.00    +0.078 C 
ATOM     26  C   UNL     1      35.814 -19.170 -20.167  0.00  0.00    +0.020 C 
ATOM     27  C   UNL     1      33.491 -19.705 -20.559  0.00  0.00    +0.020 C 
BRANCH  25  28
ATOM     28  N   UNL     1      34.699 -20.792 -18.785  0.00  0.00    -0.149 N 
ATOM     29  N   UNL     1      35.732 -20.868 -17.935  0.00  0.00    -0.048 NA
ATOM     30  N   UNL     1      34.171 -22.363 -17.386  0.00  0.00    -0.107 NA
ATOM     31  N   UNL     1      35.404 -21.830 -17.081  0.00  0.00    -0.024 NA
ATOM     32  C   UNL     1      33.753 -21.706 -18.443  0.00  0.00    +0.215 C 
ENDBRANCH  25  28
ENDBRANCH  21  22
ENDBRANCH  20  21
ENDBRANCH   4  20
TORSDOF 6
ENDMDL
MODEL 8
REMARK VINA RESULT:     -10.6      6.346     10.184
REMARK  Name = 25025505
REMARK  6 active torsions:
REMARK  status: ('A' for Active; 'I' for Inactive)
REMARK    1  A    between atoms: C_3  and  C_9
REMARK    2  A    between atoms: C_4  and  C_20
REMARK    3  A    between atoms: C_17  and  C_18
REMARK    4  A    between atoms: C_20  and  O_21
REMARK    5  A    between atoms: O_21  and  C_22
REMARK    6  A    between atoms: C_25  and  N_28
REMARK                            x       y       z     vdW  Elec       q    Type
REMARK                         _______ _______ _______ _____ _____    ______ ____
ROOT
ATOM      1  S   UNL     1      33.434 -14.541 -19.939  0.00  0.00    -0.079 S 
ATOM      2  N   UNL     1      33.475 -15.334 -22.399  0.00  0.00    -0.404 NA
ATOM      3  C   UNL     1      33.125 -14.339 -21.616  0.00  0.00    +0.134 C 
ATOM      4  C   UNL     1      34.030 -16.336 -21.628  0.00  0.00    +0.142 C 
ATOM      5  C   UNL     1      34.093 -16.089 -20.273  0.00  0.00    +0.122 C 
ENDROOT
BRANCH   3   9
ATOM      6  N   UNL     1      32.111 -10.185 -22.229  0.00  0.00    -0.253 N 
ATOM      7  N   UNL     1      32.813  -8.126 -23.080  0.00  0.00    -0.203 NA
ATOM      8  N   UNL     1      30.814  -8.304 -21.746  0.00  0.00    -0.181 NA
ATOM      9  C   UNL     1      32.479 -13.053 -22.097  0.00  0.00    +0.062 C 
ATOM     10  C   UNL     1      31.824 -12.270 -20.949  0.00  0.00    +0.030 C 
ATOM     11  C   UNL     1      33.476 -12.146 -22.833  0.00  0.00    +0.030 C 
ATOM     12  C   UNL     1      31.159 -10.989 -21.455  0.00  0.00    +0.102 C 
ATOM     13  C   UNL     1      32.799 -10.870 -23.333  0.00  0.00    +0.102 C 
ATOM     14  C   UNL     1      31.902  -8.807 -22.359  0.00  0.00    +0.090 C 
ATOM     15  C   UNL     1      32.582  -6.800 -23.182  0.00  0.00    +0.161 C 
ATOM     16  C   UNL     1      30.644  -6.973 -21.890  0.00  0.00    +0.104 C 
ATOM     17  C   UNL     1      31.504  -6.162 -22.603  0.00  0.00    +0.001 C 
BRANCH  17  18
ATOM     18  C   UNL     1      31.285  -4.703 -22.739  0.00  0.00    +0.026 C 
ATOM     19  C   UNL     1      30.205  -4.178 -21.790  0.00  0.00    +0.005 C 
ENDBRANCH  17  18
ENDBRANCH   3   9
BRANCH   4  20
ATOM     20  C   UNL     1      34.499 -17.563 -22.303  0.00  0.00    +0.260 C 
BRANCH  20  21
ATOM     21  O   UNL     1      33.504 -18.582 -22.208  0.00  0.00    -0.468 OA
BRANCH  21  22
ATOM     22  C   UNL     1      33.550 -19.380 -21.098  0.00  0.00    +0.139 C 
ATOM     23  C   UNL     1      34.780 -19.802 -20.592  0.00  0.00    +0.038 C 
ATOM     24  C   UNL     1      32.368 -19.774 -20.472  0.00  0.00    +0.038 C 
ATOM     25  C   UNL     1      33.645 -21.010 -18.836  0.00  0.00    +0.078 C 
ATOM     26  C   UNL     1      34.827 -20.617 -19.461  0.00  0.00    +0.020 C 
ATOM     27  C   UNL     1      32.414 -20.589 -19.341  0.00  0.00    +0.020 C 
BRANCH  25  28
ATOM     28  N   UNL     1      33.691 -21.818 -17.714  0.00  0.00    -0.149 N 
ATOM     29  N   UNL     1      34.809 -21.982 -16.994  0.00  0.00    -0.048 NA
ATOM     30  N   UNL     1      33.143 -23.173 -16.112  0.00  0.00    -0.107 NA
ATOM     31  N   UNL     1      34.468 -22.811 -16.015  0.00  0.00    -0.024 NA
ATOM     32  C   UNL     1      32.681 -22.547 -17.170  0.00  0.00    +0.215 C 
ENDBRANCH  25  28
ENDBRANCH  21  22
ENDBRANCH  20  21
ENDBRANCH   4  20
TORSDOF 6
ENDMDL
MODEL 9
REMARK VINA RESULT:     -10.6      6.728     10.718
REMARK  Name = 25025505
REMARK  6 active torsions:
REMARK  status: ('A' for Active; 'I' for Inactive)
REMARK    1  A    between atoms: C_3  and  C_9
REMARK    2  A    between atoms: C_4  and  C_20
REMARK    3  A    between atoms: C_17  and  C_18
REMARK    4  A    between atoms: C_20  and  O_21
REMARK    5  A    between atoms: O_21  and  C_22
REMARK    6  A    between atoms: C_25  and  N_28
REMARK                            x       y       z     vdW  Elec       q    Type
REMARK                         _______ _______ _______ _____ _____    ______ ____
ROOT
ATOM      1  S   UNL     1      33.445 -14.113 -20.248  0.00  0.00    -0.079 S 
ATOM      2  N   UNL     1      33.211 -14.827 -22.721  0.00  0.00    -0.404 NA
ATOM      3  C   UNL     1      32.972 -13.849 -21.877  0.00  0.00    +0.134 C 
ATOM      4  C   UNL     1      33.813 -15.867 -22.041  0.00  0.00    +0.142 C 
ATOM      5  C   UNL     1      34.022 -15.665 -20.693  0.00  0.00    +0.122 C 
ENDROOT
BRANCH   3   9
ATOM      6  N   UNL     1      31.916  -9.669 -22.133  0.00  0.00    -0.253 N 
ATOM      7  N   UNL     1      32.604  -7.534 -22.786  0.00  0.00    -0.203 NA
ATOM      8  N   UNL     1      30.590  -7.852 -21.503  0.00  0.00    -0.181 NA
ATOM      9  C   UNL     1      32.317 -12.533 -22.251  0.00  0.00    +0.062 C 
ATOM     10  C   UNL     1      31.637 -11.863 -21.048  0.00  0.00    +0.030 C 
ATOM     11  C   UNL     1      33.312 -11.553 -22.889  0.00  0.00    +0.030 C 
ATOM     12  C   UNL     1      30.964 -10.549 -21.447  0.00  0.00    +0.102 C 
ATOM     13  C   UNL     1      32.627 -10.244 -23.283  0.00  0.00    +0.102 C 
ATOM     14  C   UNL     1      31.692  -8.287 -22.142  0.00  0.00    +0.090 C 
ATOM     15  C   UNL     1      32.358  -6.207 -22.773  0.00  0.00    +0.161 C 
ATOM     16  C   UNL     1      30.406  -6.515 -21.529  0.00  0.00    +0.104 C 
ATOM     17  C   UNL     1      31.266  -5.635 -22.155  0.00  0.00    +0.001 C 
BRANCH  17  18
ATOM     18  C   UNL     1      31.030  -4.172 -22.163  0.00  0.00    +0.026 C 
ATOM     19  C   UNL     1      29.760  -3.774 -21.409  0.00  0.00    +0.005 C 
ENDBRANCH  17  18
ENDBRANCH   3   9
BRANCH   4  20
ATOM     20  C   UNL     1      34.175 -17.083 -22.797  0.00  0.00    +0.260 C 
BRANCH  20  21
ATOM     21  O   UNL     1      35.258 -17.753 -22.152  0.00  0.00    -0.468 OA
BRANCH  21  22
ATOM     22  C   UNL     1      34.926 -18.683 -21.206  0.00  0.00    +0.139 C 
ATOM     23  C   UNL     1      33.620 -19.169 -21.132  0.00  0.00    +0.038 C 
ATOM     24  C   UNL     1      35.893 -19.147 -20.315  0.00  0.00    +0.038 C 
ATOM     25  C   UNL     1      34.250 -20.580 -19.275  0.00  0.00    +0.078 C 
ATOM     26  C   UNL     1      33.282 -20.117 -20.166  0.00  0.00    +0.020 C 
ATOM     27  C   UNL     1      35.556 -20.095 -19.349  0.00  0.00    +0.020 C 
BRANCH  25  28
ATOM     28  N   UNL     1      33.915 -21.520 -18.318  0.00  0.00    -0.149 N 
ATOM     29  N   UNL     1      34.708 -21.794 -17.273  0.00  0.00    -0.048 NA
ATOM     30  N   UNL     1      32.867 -23.050 -17.193  0.00  0.00    -0.107 NA
ATOM     31  N   UNL     1      34.063 -22.730 -16.588  0.00  0.00    -0.024 NA
ATOM     32  C   UNL     1      32.796 -22.289 -18.261  0.00  0.00    +0.215 C 
ENDBRANCH  25  28
ENDBRANCH  21  22
ENDBRANCH  20  21
ENDBRANCH   4  20
TORSDOF 6
ENDMDL
