MODEL 1
REMARK VINA RESULT:     -11.9      0.000      0.000
REMARK  Name = 11538455
REMARK  6 active torsions:
REMARK  status: ('A' for Active; 'I' for Inactive)
REMARK    1  A    between atoms: C_4  and  C_19
REMARK    2  A    between atoms: C_12  and  C_15
REMARK    3  A    between atoms: N_14  and  O_17
REMARK    4  A    between atoms: C_19  and  N_20
REMARK    5  A    between atoms: N_20  and  C_23
REMARK    6  A    between atoms: C_23  and  C_25
REMARK                            x       y       z     vdW  Elec       q    Type
REMARK                         _______ _______ _______ _____ _____    ______ ____
ROOT
ATOM      1  N   UNL     1      34.105 -21.739 -17.395  0.00  0.00    -0.253 N 
ATOM      2  N   UNL     1      35.459 -22.692 -15.712  0.00  0.00    -0.203 NA
ATOM      3  N   UNL     1      33.057 -22.696 -15.508  0.00  0.00    -0.180 NA
ATOM      4  C   UNL     1      33.862 -20.507 -20.003  0.00  0.00    -0.018 C 
ATOM      5  C   UNL     1      35.061 -20.231 -19.090  0.00  0.00    +0.020 C 
ATOM      6  C   UNL     1      32.633 -20.830 -19.148  0.00  0.00    +0.020 C 
ATOM      7  C   UNL     1      35.323 -21.397 -18.137  0.00  0.00    +0.101 C 
ATOM      8  C   UNL     1      32.902 -21.996 -18.199  0.00  0.00    +0.101 C 
ATOM      9  C   UNL     1      34.210 -22.398 -16.164  0.00  0.00    +0.090 C 
ATOM     10  C   UNL     1      35.524 -23.324 -14.522  0.00  0.00    +0.170 C 
ATOM     11  C   UNL     1      33.196 -23.328 -14.324  0.00  0.00    +0.113 C 
ATOM     12  C   UNL     1      34.415 -23.671 -13.777  0.00  0.00    +0.078 C 
ENDROOT
BRANCH  12  15
ATOM     13  O   UNL     1      33.729 -24.104 -11.573  0.00  0.00    -0.268 OA
ATOM     14  N   UNL     1      35.553 -25.275 -12.357  0.00  0.00    -0.194 N 
ATOM     15  C   UNL     1      34.524 -24.352 -12.501  0.00  0.00    +0.267 C 
ATOM     16  H   UNL     1      36.177 -25.468 -13.094  0.00  0.00    +0.183 HD
BRANCH  14  17
ATOM     17  O   UNL     1      35.659 -25.920 -11.117  0.00  0.00    -0.295 OA
ATOM     18  H   UNL     1      35.544 -25.272 -10.404  0.00  0.00    +0.241 HD
ENDBRANCH  14  17
ENDBRANCH  12  15
BRANCH   4  19
ATOM     19  C   UNL     1      33.590 -19.316 -20.919  0.00  0.00    -0.081 C 
BRANCH  19  20
ATOM     20  N   UNL     1      34.424 -18.181 -20.555  0.00  0.00    +0.386 N 
ATOM     21  H   UNL     1      35.120 -18.483 -19.872  0.00  0.00    -0.084 HD
ATOM     22  H   UNL     1      33.829 -17.452 -20.161  0.00  0.00    -0.084 HD
BRANCH  20  23
ATOM     23  C   UNL     1      35.108 -17.639 -21.723  0.00  0.00    -0.053 C 
BRANCH  23  25
ATOM     24  N   UNL     1      33.225 -15.342 -23.847  0.00  0.00    -0.284 N 
ATOM     25  C   UNL     1      34.291 -16.546 -22.354  0.00  0.00    -0.028 C 
ATOM     26  C   UNL     1      33.735 -15.444 -21.678  0.00  0.00    +0.009 C 
ATOM     27  C   UNL     1      33.974 -16.475 -23.675  0.00  0.00    +0.059 C 
ATOM     28  C   UNL     1      33.064 -14.692 -22.644  0.00  0.00    +0.051 C 
ATOM     29  C   UNL     1      33.727 -14.995 -20.343  0.00  0.00    +0.001 C 
ATOM     30  C   UNL     1      32.381 -13.508 -22.340  0.00  0.00    +0.015 C 
ATOM     31  C   UNL     1      32.687 -14.905 -25.117  0.00  0.00    +0.117 C 
ATOM     32  C   UNL     1      33.048 -13.812 -20.023  0.00  0.00    +0.000 C 
ATOM     33  C   UNL     1      32.386 -13.082 -21.009  0.00  0.00    +0.001 C 
ENDBRANCH  23  25
ENDBRANCH  20  23
ENDBRANCH  19  20
ENDBRANCH   4  19
TORSDOF 6
ENDMDL
MODEL 2
REMARK VINA RESULT:     -11.7      2.230      2.578
REMARK  Name = 11538455
REMARK  6 active torsions:
REMARK  status: ('A' for Active; 'I' for Inactive)
REMARK    1  A    between atoms: C_4  and  C_19
REMARK    2  A    between atoms: C_12  and  C_15
REMARK    3  A    between atoms: N_14  and  O_17
REMARK    4  A    between atoms: C_19  and  N_20
REMARK    5  A    between atoms: N_20  and  C_23
REMARK    6  A    between atoms: C_23  and  C_25
REMARK                            x       y       z     vdW  Elec       q    Type
REMARK                         _______ _______ _______ _____ _____    ______ ____
ROOT
ATOM      1  N   UNL     1      32.841 -21.556 -17.950  0.00  0.00    -0.253 N 
ATOM      2  N   UNL     1      32.823 -23.155 -16.213  0.00  0.00    -0.203 NA
ATOM      3  N   UNL     1      30.817 -21.958 -16.804  0.00  0.00    -0.180 NA
ATOM      4  C   UNL     1      34.247 -20.226 -20.103  0.00  0.00    -0.018 C 
ATOM      5  C   UNL     1      34.959 -20.644 -18.813  0.00  0.00    +0.020 C 
ATOM      6  C   UNL     1      32.774 -19.932 -19.801  0.00  0.00    +0.020 C 
ATOM      7  C   UNL     1      34.267 -21.834 -18.148  0.00  0.00    +0.101 C 
ATOM      8  C   UNL     1      32.090 -21.126 -19.138  0.00  0.00    +0.101 C 
ATOM      9  C   UNL     1      32.136 -22.246 -16.956  0.00  0.00    +0.090 C 
ATOM     10  C   UNL     1      32.114 -23.799 -15.263  0.00  0.00    +0.170 C 
ATOM     11  C   UNL     1      30.169 -22.638 -15.836  0.00  0.00    +0.113 C 
ATOM     12  C   UNL     1      30.772 -23.580 -15.027  0.00  0.00    +0.078 C 
ENDROOT
BRANCH  12  15
ATOM     13  O   UNL     1      29.188 -25.152 -14.295  0.00  0.00    -0.268 OA
ATOM     14  N   UNL     1      30.326 -23.970 -12.676  0.00  0.00    -0.194 N 
ATOM     15  C   UNL     1      30.043 -24.293 -13.997  0.00  0.00    +0.267 C 
ATOM     16  H   UNL     1      31.002 -23.292 -12.446  0.00  0.00    +0.183 HD
BRANCH  14  17
ATOM     17  O   UNL     1      29.607 -24.655 -11.685  0.00  0.00    -0.295 OA
ATOM     18  H   UNL     1      29.527 -24.094 -10.898  0.00  0.00    +0.241 HD
ENDBRANCH  14  17
ENDBRANCH  12  15
BRANCH   4  19
ATOM     19  C   UNL     1      34.926 -19.011 -20.731  0.00  0.00    -0.081 C 
BRANCH  19  20
ATOM     20  N   UNL     1      34.128 -18.476 -21.822  0.00  0.00    +0.386 N 
ATOM     21  H   UNL     1      33.339 -17.956 -21.435  0.00  0.00    -0.084 HD
ATOM     22  H   UNL     1      33.797 -19.252 -22.395  0.00  0.00    -0.084 HD
BRANCH  20  23
ATOM     23  C   UNL     1      34.919 -17.584 -22.661  0.00  0.00    -0.053 C 
BRANCH  23  25
ATOM     24  N   UNL     1      33.039 -14.855 -24.194  0.00  0.00    -0.284 N 
ATOM     25  C   UNL     1      34.127 -16.359 -23.024  0.00  0.00    -0.028 C 
ATOM     26  C   UNL     1      33.679 -15.375 -22.122  0.00  0.00    +0.009 C 
ATOM     27  C   UNL     1      33.731 -16.032 -24.284  0.00  0.00    +0.059 C 
ATOM     28  C   UNL     1      32.992 -14.430 -22.885  0.00  0.00    +0.051 C 
ATOM     29  C   UNL     1      33.781 -15.179 -20.731  0.00  0.00    +0.001 C 
ATOM     30  C   UNL     1      32.399 -13.293 -22.325  0.00  0.00    +0.015 C 
ATOM     31  C   UNL     1      32.447 -14.169 -25.323  0.00  0.00    +0.117 C 
ATOM     32  C   UNL     1      33.193 -14.046 -20.155  0.00  0.00    +0.000 C 
ATOM     33  C   UNL     1      32.512 -13.119 -20.943  0.00  0.00    +0.001 C 
ENDBRANCH  23  25
ENDBRANCH  20  23
ENDBRANCH  19  20
ENDBRANCH   4  19
TORSDOF 6
ENDMDL
MODEL 3
REMARK VINA RESULT:     -11.6      0.738      1.913
REMARK  Name = 11538455
REMARK  6 active torsions:
REMARK  status: ('A' for Active; 'I' for Inactive)
REMARK    1  A    between atoms: C_4  and  C_19
REMARK    2  A    between atoms: C_12  and  C_15
REMARK    3  A    between atoms: N_14  and  O_17
REMARK    4  A    between atoms: C_19  and  N_20
REMARK    5  A    between atoms: N_20  and  C_23
REMARK    6  A    between atoms: C_23  and  C_25
REMARK                            x       y       z     vdW  Elec       q    Type
REMARK                         _______ _______ _______ _____ _____    ______ ____
ROOT
ATOM      1  N   UNL     1      34.173 -21.763 -17.301  0.00  0.00    -0.253 N 
ATOM      2  N   UNL     1      35.500 -22.752 -15.617  0.00  0.00    -0.203 NA
ATOM      3  N   UNL     1      33.101 -22.662 -15.399  0.00  0.00    -0.180 NA
ATOM      4  C   UNL     1      33.963 -20.546 -19.919  0.00  0.00    -0.018 C 
ATOM      5  C   UNL     1      35.177 -20.308 -19.015  0.00  0.00    +0.020 C 
ATOM      6  C   UNL     1      32.727 -20.814 -19.054  0.00  0.00    +0.020 C 
ATOM      7  C   UNL     1      35.399 -21.474 -18.052  0.00  0.00    +0.101 C 
ATOM      8  C   UNL     1      32.958 -21.981 -18.096  0.00  0.00    +0.101 C 
ATOM      9  C   UNL     1      34.260 -22.415 -16.064  0.00  0.00    +0.090 C 
ATOM     10  C   UNL     1      35.547 -23.375 -14.421  0.00  0.00    +0.170 C 
ATOM     11  C   UNL     1      33.222 -23.288 -14.211  0.00  0.00    +0.113 C 
ATOM     12  C   UNL     1      34.431 -23.673 -13.667  0.00  0.00    +0.078 C 
ENDROOT
BRANCH  12  15
ATOM     13  O   UNL     1      33.693 -24.115 -11.481  0.00  0.00    -0.268 OA
ATOM     14  N   UNL     1      35.569 -25.241 -12.208  0.00  0.00    -0.194 N 
ATOM     15  C   UNL     1      34.521 -24.345 -12.386  0.00  0.00    +0.267 C 
ATOM     16  H   UNL     1      36.219 -25.420 -12.926  0.00  0.00    +0.183 HD
BRANCH  14  17
ATOM     17  O   UNL     1      35.657 -25.878 -10.962  0.00  0.00    -0.295 OA
ATOM     18  H   UNL     1      36.477 -26.395 -10.920  0.00  0.00    +0.241 HD
ENDBRANCH  14  17
ENDBRANCH  12  15
BRANCH   4  19
ATOM     19  C   UNL     1      33.732 -19.353 -20.844  0.00  0.00    -0.081 C 
BRANCH  19  20
ATOM     20  N   UNL     1      34.594 -18.239 -20.480  0.00  0.00    +0.386 N 
ATOM     21  H   UNL     1      35.452 -18.603 -20.064  0.00  0.00    -0.084 HD
ATOM     22  H   UNL     1      34.097 -17.648 -19.814  0.00  0.00    -0.084 HD
BRANCH  20  23
ATOM     23  C   UNL     1      34.934 -17.438 -21.649  0.00  0.00    -0.053 C 
BRANCH  23  25
ATOM     24  N   UNL     1      33.129 -14.339 -20.964  0.00  0.00    -0.284 N 
ATOM     25  C   UNL     1      34.156 -16.152 -21.652  0.00  0.00    -0.028 C 
ATOM     26  C   UNL     1      33.650 -15.503 -22.794  0.00  0.00    +0.009 C 
ATOM     27  C   UNL     1      33.834 -15.434 -20.542  0.00  0.00    +0.059 C 
ATOM     28  C   UNL     1      33.002 -14.355 -22.334  0.00  0.00    +0.051 C 
ATOM     29  C   UNL     1      33.669 -15.763 -24.178  0.00  0.00    +0.001 C 
ATOM     30  C   UNL     1      32.369 -13.449 -23.194  0.00  0.00    +0.015 C 
ATOM     31  C   UNL     1      32.603 -13.319 -20.082  0.00  0.00    +0.117 C 
ATOM     32  C   UNL     1      33.040 -14.866 -25.051  0.00  0.00    +0.000 C 
ATOM     33  C   UNL     1      32.400 -13.727 -24.563  0.00  0.00    +0.001 C 
ENDBRANCH  23  25
ENDBRANCH  20  23
ENDBRANCH  19  20
ENDBRANCH   4  19
TORSDOF 6
ENDMDL
MODEL 4
REMARK VINA RESULT:     -10.5      7.473     11.337
REMARK  Name = 11538455
REMARK  6 active torsions:
REMARK  status: ('A' for Active; 'I' for Inactive)
REMARK    1  A    between atoms: C_4  and  C_19
REMARK    2  A    between atoms: C_12  and  C_15
REMARK    3  A    between atoms: N_14  and  O_17
REMARK    4  A    between atoms: C_19  and  N_20
REMARK    5  A    between atoms: N_20  and  C_23
REMARK    6  A    between atoms: C_23  and  C_25
REMARK                            x       y       z     vdW  Elec       q    Type
REMARK                         _______ _______ _______ _____ _____    ______ ____
ROOT
ATOM      1  N   UNL     1      31.789 -11.755 -20.848  0.00  0.00    -0.253 N 
ATOM      2  N   UNL     1      32.377 -12.941 -22.802  0.00  0.00    -0.203 NA
ATOM      3  N   UNL     1      32.909 -13.821 -20.623  0.00  0.00    -0.180 NA
ATOM      4  C   UNL     1      30.450  -9.514 -19.596  0.00  0.00    -0.018 C 
ATOM      5  C   UNL     1      31.156  -9.377 -20.949  0.00  0.00    +0.020 C 
ATOM      6  C   UNL     1      31.138 -10.604 -18.769  0.00  0.00    +0.020 C 
ATOM      7  C   UNL     1      31.205 -10.710 -21.696  0.00  0.00    +0.101 C 
ATOM      8  C   UNL     1      31.182 -11.933 -19.522  0.00  0.00    +0.101 C 
ATOM      9  C   UNL     1      32.378 -12.877 -21.444  0.00  0.00    +0.090 C 
ATOM     10  C   UNL     1      32.954 -14.034 -23.343  0.00  0.00    +0.170 C 
ATOM     11  C   UNL     1      33.470 -14.886 -21.230  0.00  0.00    +0.113 C 
ATOM     12  C   UNL     1      33.522 -15.048 -22.600  0.00  0.00    +0.078 C 
ENDROOT
BRANCH  12  15
ATOM     13  O   UNL     1      34.113 -16.362 -24.454  0.00  0.00    -0.268 OA
ATOM     14  N   UNL     1      34.725 -17.142 -22.373  0.00  0.00    -0.194 N 
ATOM     15  C   UNL     1      34.133 -16.209 -23.217  0.00  0.00    +0.267 C 
ATOM     16  H   UNL     1      34.739 -17.016 -21.397  0.00  0.00    +0.183 HD
BRANCH  14  17
ATOM     17  O   UNL     1      35.303 -18.268 -22.977  0.00  0.00    -0.295 OA
ATOM     18  H   UNL     1      34.605 -18.830 -23.348  0.00  0.00    +0.241 HD
ENDBRANCH  14  17
ENDBRANCH  12  15
BRANCH   4  19
ATOM     19  C   UNL     1      30.448  -8.183 -18.847  0.00  0.00    -0.081 C 
BRANCH  19  20
ATOM     20  N   UNL     1      31.713  -7.486 -19.023  0.00  0.00    +0.386 N 
ATOM     21  H   UNL     1      32.161  -7.819 -19.878  0.00  0.00    -0.084 HD
ATOM     22  H   UNL     1      32.304  -7.674 -18.214  0.00  0.00    -0.084 HD
BRANCH  20  23
ATOM     23  C   UNL     1      31.507  -6.047 -19.124  0.00  0.00    -0.053 C 
BRANCH  23  25
ATOM     24  N   UNL     1      30.772  -4.680 -22.429  0.00  0.00    -0.284 N 
ATOM     25  C   UNL     1      31.444  -5.621 -20.564  0.00  0.00    -0.028 C 
ATOM     26  C   UNL     1      32.373  -5.968 -21.562  0.00  0.00    +0.009 C 
ATOM     27  C   UNL     1      30.472  -4.836 -21.102  0.00  0.00    +0.059 C 
ATOM     28  C   UNL     1      31.927  -5.360 -22.738  0.00  0.00    +0.051 C 
ATOM     29  C   UNL     1      33.554  -6.736 -21.601  0.00  0.00    +0.001 C 
ATOM     30  C   UNL     1      32.606  -5.483 -23.956  0.00  0.00    +0.015 C 
ATOM     31  C   UNL     1      29.977  -3.906 -23.359  0.00  0.00    +0.117 C 
ATOM     32  C   UNL     1      34.244  -6.868 -22.813  0.00  0.00    +0.000 C 
ATOM     33  C   UNL     1      33.775  -6.250 -23.971  0.00  0.00    +0.001 C 
ENDBRANCH  23  25
ENDBRANCH  20  23
ENDBRANCH  19  20
ENDBRANCH   4  19
TORSDOF 6
ENDMDL
MODEL 5
REMARK VINA RESULT:     -10.2      5.843     10.015
REMARK  Name = 11538455
REMARK  6 active torsions:
REMARK  status: ('A' for Active; 'I' for Inactive)
REMARK    1  A    between atoms: C_4  and  C_19
REMARK    2  A    between atoms: C_12  and  C_15
REMARK    3  A    between atoms: N_14  and  O_17
REMARK    4  A    between atoms: C_19  and  N_20
REMARK    5  A    between atoms: N_20  and  C_23
REMARK    6  A    between atoms: C_23  and  C_25
REMARK                            x       y       z     vdW  Elec       q    Type
REMARK                         _______ _______ _______ _____ _____    ______ ____
ROOT
ATOM      1  N   UNL     1      33.239 -13.286 -23.577  0.00  0.00    -0.253 N 
ATOM      2  N   UNL     1      33.168 -15.582 -24.120  0.00  0.00    -0.203 NA
ATOM      3  N   UNL     1      33.975 -14.851 -21.970  0.00  0.00    -0.180 NA
ATOM      4  C   UNL     1      32.637 -10.539 -24.264  0.00  0.00    -0.018 C 
ATOM      5  C   UNL     1      33.053 -11.562 -25.325  0.00  0.00    +0.020 C 
ATOM      6  C   UNL     1      33.268 -10.912 -22.919  0.00  0.00    +0.020 C 
ATOM      7  C   UNL     1      32.694 -12.987 -24.905  0.00  0.00    +0.101 C 
ATOM      8  C   UNL     1      32.903 -12.337 -22.506  0.00  0.00    +0.101 C 
ATOM      9  C   UNL     1      33.468 -14.617 -23.209  0.00  0.00    +0.090 C 
ATOM     10  C   UNL     1      33.404 -16.853 -23.734  0.00  0.00    +0.170 C 
ATOM     11  C   UNL     1      34.186 -16.144 -21.650  0.00  0.00    +0.113 C 
ATOM     12  C   UNL     1      33.916 -17.197 -22.500  0.00  0.00    +0.078 C 
ENDROOT
BRANCH  12  15
ATOM     13  O   UNL     1      34.191 -19.480 -22.978  0.00  0.00    -0.268 OA
ATOM     14  N   UNL     1      34.330 -18.843 -20.768  0.00  0.00    -0.194 N 
ATOM     15  C   UNL     1      34.156 -18.576 -22.120  0.00  0.00    +0.267 C 
ATOM     16  H   UNL     1      34.303 -18.125 -20.094  0.00  0.00    +0.183 HD
BRANCH  14  17
ATOM     17  O   UNL     1      34.548 -20.181 -20.406  0.00  0.00    -0.295 OA
ATOM     18  H   UNL     1      34.477 -20.744 -21.193  0.00  0.00    +0.241 HD
ENDBRANCH  14  17
ENDBRANCH  12  15
BRANCH   4  19
ATOM     19  C   UNL     1      33.041  -9.127 -24.682  0.00  0.00    -0.081 C 
BRANCH  19  20
ATOM     20  N   UNL     1      33.038  -8.227 -23.539  0.00  0.00    +0.386 N 
ATOM     21  H   UNL     1      33.640  -7.428 -23.742  0.00  0.00    -0.084 HD
ATOM     22  H   UNL     1      33.381  -8.734 -22.724  0.00  0.00    -0.084 HD
BRANCH  20  23
ATOM     23  C   UNL     1      31.691  -7.748 -23.255  0.00  0.00    -0.053 C 
BRANCH  23  25
ATOM     24  N   UNL     1      31.476  -6.570 -19.805  0.00  0.00    -0.284 N 
ATOM     25  C   UNL     1      31.509  -7.529 -21.779  0.00  0.00    -0.028 C 
ATOM     26  C   UNL     1      31.047  -8.489 -20.859  0.00  0.00    +0.009 C 
ATOM     27  C   UNL     1      31.767  -6.363 -21.127  0.00  0.00    +0.059 C 
ATOM     28  C   UNL     1      31.034  -7.859 -19.613  0.00  0.00    +0.051 C 
ATOM     29  C   UNL     1      30.635  -9.833 -20.944  0.00  0.00    +0.001 C 
ATOM     30  C   UNL     1      30.628  -8.510 -18.441  0.00  0.00    +0.015 C 
ATOM     31  C   UNL     1      31.617  -5.566 -18.772  0.00  0.00    +0.117 C 
ATOM     32  C   UNL     1      30.226 -10.498 -19.781  0.00  0.00    +0.000 C 
ATOM     33  C   UNL     1      30.223  -9.844 -18.550  0.00  0.00    +0.001 C 
ENDBRANCH  23  25
ENDBRANCH  20  23
ENDBRANCH  19  20
ENDBRANCH   4  19
TORSDOF 6
ENDMDL
MODEL 6
REMARK VINA RESULT:     -10.0      6.082     10.404
REMARK  Name = 11538455
REMARK  6 active torsions:
REMARK  status: ('A' for Active; 'I' for Inactive)
REMARK    1  A    between atoms: C_4  and  C_19
REMARK    2  A    between atoms: C_12  and  C_15
REMARK    3  A    between atoms: N_14  and  O_17
REMARK    4  A    between atoms: C_19  and  N_20
REMARK    5  A    between atoms: N_20  and  C_23
REMARK    6  A    between atoms: C_23  and  C_25
REMARK                            x       y       z     vdW  Elec       q    Type
REMARK                         _______ _______ _______ _____ _____    ______ ____
ROOT
ATOM      1  N   UNL     1      33.207 -12.765 -22.909  0.00  0.00    -0.253 N 
ATOM      2  N   UNL     1      33.867 -14.963 -23.461  0.00  0.00    -0.203 NA
ATOM      3  N   UNL     1      33.547 -14.315 -21.162  0.00  0.00    -0.180 NA
ATOM      4  C   UNL     1      32.353 -10.130 -23.750  0.00  0.00    -0.018 C 
ATOM      5  C   UNL     1      33.378 -10.938 -24.551  0.00  0.00    +0.020 C 
ATOM      6  C   UNL     1      32.446 -10.511 -22.270  0.00  0.00    +0.020 C 
ATOM      7  C   UNL     1      33.200 -12.442 -24.339  0.00  0.00    +0.101 C 
ATOM      8  C   UNL     1      32.265 -12.014 -22.067  0.00  0.00    +0.101 C 
ATOM      9  C   UNL     1      33.551 -14.058 -22.496  0.00  0.00    +0.090 C 
ATOM     10  C   UNL     1      34.197 -16.197 -23.028  0.00  0.00    +0.170 C 
ATOM     11  C   UNL     1      33.887 -15.570 -20.799  0.00  0.00    +0.113 C 
ATOM     12  C   UNL     1      34.224 -16.562 -21.697  0.00  0.00    +0.078 C 
ENDROOT
BRANCH  12  15
ATOM     13  O   UNL     1      34.213 -18.900 -21.917  0.00  0.00    -0.268 OA
ATOM     14  N   UNL     1      35.338 -18.017 -20.109  0.00  0.00    -0.194 N 
ATOM     15  C   UNL     1      34.583 -17.900 -21.270  0.00  0.00    +0.267 C 
ATOM     16  H   UNL     1      35.628 -17.224 -19.602  0.00  0.00    +0.183 HD
BRANCH  14  17
ATOM     17  O   UNL     1      35.670 -19.315 -19.695  0.00  0.00    -0.295 OA
ATOM     18  H   UNL     1      36.445 -19.625 -20.191  0.00  0.00    +0.241 HD
ENDBRANCH  14  17
ENDBRANCH  12  15
BRANCH   4  19
ATOM     19  C   UNL     1      32.573  -8.631 -23.941  0.00  0.00    -0.081 C 
BRANCH  19  20
ATOM     20  N   UNL     1      33.992  -8.315 -23.978  0.00  0.00    +0.386 N 
ATOM     21  H   UNL     1      34.217  -7.893 -24.879  0.00  0.00    -0.084 HD
ATOM     22  H   UNL     1      34.521  -9.178 -23.846  0.00  0.00    -0.084 HD
BRANCH  20  23
ATOM     23  C   UNL     1      34.348  -7.385 -22.913  0.00  0.00    -0.053 C 
BRANCH  23  25
ATOM     24  N   UNL     1      31.955  -4.635 -23.116  0.00  0.00    -0.284 N 
ATOM     25  C   UNL     1      33.276  -6.346 -22.739  0.00  0.00    -0.028 C 
ATOM     26  C   UNL     1      32.420  -6.230 -21.628  0.00  0.00    +0.009 C 
ATOM     27  C   UNL     1      32.984  -5.370 -23.641  0.00  0.00    +0.059 C 
ATOM     28  C   UNL     1      31.591  -5.137 -21.888  0.00  0.00    +0.051 C 
ATOM     29  C   UNL     1      32.255  -6.935 -20.420  0.00  0.00    +0.001 C 
ATOM     30  C   UNL     1      30.599  -4.712 -20.996  0.00  0.00    +0.015 C 
ATOM     31  C   UNL     1      31.348  -3.497 -23.774  0.00  0.00    +0.117 C 
ATOM     32  C   UNL     1      31.268  -6.521 -19.517  0.00  0.00    +0.000 C 
ATOM     33  C   UNL     1      30.453  -5.426 -19.803  0.00  0.00    +0.001 C 
ENDBRANCH  23  25
ENDBRANCH  20  23
ENDBRANCH  19  20
ENDBRANCH   4  19
TORSDOF 6
ENDMDL
MODEL 7
REMARK VINA RESULT:     -10.0      2.118      3.346
REMARK  Name = 11538455
REMARK  6 active torsions:
REMARK  status: ('A' for Active; 'I' for Inactive)
REMARK    1  A    between atoms: C_4  and  C_19
REMARK    2  A    between atoms: C_12  and  C_15
REMARK    3  A    between atoms: N_14  and  O_17
REMARK    4  A    between atoms: C_19  and  N_20
REMARK    5  A    between atoms: N_20  and  C_23
REMARK    6  A    between atoms: C_23  and  C_25
REMARK                            x       y       z     vdW  Elec       q    Type
REMARK                         _______ _______ _______ _____ _____    ______ ____
ROOT
ATOM      1  N   UNL     1      32.855 -21.283 -18.355  0.00  0.00    -0.253 N 
ATOM      2  N   UNL     1      31.078 -21.862 -16.913  0.00  0.00    -0.203 NA
ATOM      3  N   UNL     1      33.256 -22.855 -16.640  0.00  0.00    -0.180 NA
ATOM      4  C   UNL     1      33.889 -19.652 -20.512  0.00  0.00    -0.018 C 
ATOM      5  C   UNL     1      32.433 -20.127 -20.488  0.00  0.00    +0.020 C 
ATOM      6  C   UNL     1      34.769 -20.667 -19.777  0.00  0.00    +0.020 C 
ATOM      7  C   UNL     1      31.944 -20.375 -19.061  0.00  0.00    +0.101 C 
ATOM      8  C   UNL     1      34.275 -20.908 -18.351  0.00  0.00    +0.101 C 
ATOM      9  C   UNL     1      32.381 -22.025 -17.265  0.00  0.00    +0.090 C 
ATOM     10  C   UNL     1      30.654 -22.593 -15.861  0.00  0.00    +0.170 C 
ATOM     11  C   UNL     1      32.766 -23.556 -15.597  0.00  0.00    +0.113 C 
ATOM     12  C   UNL     1      31.461 -23.465 -15.159  0.00  0.00    +0.078 C 
ENDROOT
BRANCH  12  15
ATOM     13  O   UNL     1      31.755 -24.862 -13.294  0.00  0.00    -0.268 OA
ATOM     14  N   UNL     1      29.596 -24.250 -13.821  0.00  0.00    -0.194 N 
ATOM     15  C   UNL     1      30.970 -24.234 -14.032  0.00  0.00    +0.267 C 
ATOM     16  H   UNL     1      28.980 -23.752 -14.406  0.00  0.00    +0.183 HD
BRANCH  14  17
ATOM     17  O   UNL     1      29.128 -25.007 -12.737  0.00  0.00    -0.295 OA
ATOM     18  H   UNL     1      28.894 -25.898 -13.041  0.00  0.00    +0.241 HD
ENDBRANCH  14  17
ENDBRANCH  12  15
BRANCH   4  19
ATOM     19  C   UNL     1      34.372 -19.450 -21.946  0.00  0.00    -0.081 C 
BRANCH  19  20
ATOM     20  N   UNL     1      33.436 -18.629 -22.698  0.00  0.00    +0.386 N 
ATOM     21  H   UNL     1      32.787 -18.183 -22.049  0.00  0.00    -0.084 HD
ATOM     22  H   UNL     1      32.932 -19.226 -23.353  0.00  0.00    -0.084 HD
BRANCH  20  23
ATOM     23  C   UNL     1      34.136 -17.598 -23.454  0.00  0.00    -0.053 C 
BRANCH  23  25
ATOM     24  N   UNL     1      33.582 -14.568 -21.494  0.00  0.00    -0.284 N 
ATOM     25  C   UNL     1      33.830 -16.235 -22.898  0.00  0.00    -0.028 C 
ATOM     26  C   UNL     1      33.373 -15.131 -23.642  0.00  0.00    +0.009 C 
ATOM     27  C   UNL     1      33.954 -15.882 -21.590  0.00  0.00    +0.059 C 
ATOM     28  C   UNL     1      33.222 -14.084 -22.730  0.00  0.00    +0.051 C 
ATOM     29  C   UNL     1      33.068 -14.900 -24.997  0.00  0.00    +0.001 C 
ATOM     30  C   UNL     1      32.779 -12.811 -23.109  0.00  0.00    +0.015 C 
ATOM     31  C   UNL     1      33.575 -13.811 -20.260  0.00  0.00    +0.117 C 
ATOM     32  C   UNL     1      32.623 -13.631 -25.391  0.00  0.00    +0.000 C 
ATOM     33  C   UNL     1      32.482 -12.604 -24.459  0.00  0.00    +0.001 C 
ENDBRANCH  23  25
ENDBRANCH  20  23
ENDBRANCH  19  20
ENDBRANCH   4  19
TORSDOF 6
ENDMDL
MODEL 8
REMARK VINA RESULT:     -10.0      5.257     11.169
REMARK  Name = 11538455
REMARK  6 active torsions:
REMARK  status: ('A' for Active; 'I' for Inactive)
REMARK    1  A    between atoms: C_4  and  C_19
REMARK    2  A    between atoms: C_12  and  C_15
REMARK    3  A    between atoms: N_14  and  O_17
REMARK    4  A    between atoms: C_19  and  N_20
REMARK    5  A    between atoms: N_20  and  C_23
REMARK    6  A    between atoms: C_23  and  C_25
REMARK                            x       y       z     vdW  Elec       q    Type
REMARK                         _______ _______ _______ _____ _____    ______ ____
ROOT
ATOM      1  N   UNL     1      34.181 -17.811 -21.776  0.00  0.00    -0.253 N 
ATOM      2  N   UNL     1      34.222 -15.567 -22.509  0.00  0.00    -0.203 NA
ATOM      3  N   UNL     1      33.030 -17.248 -23.759  0.00  0.00    -0.180 NA
ATOM      4  C   UNL     1      34.843 -19.795 -19.774  0.00  0.00    -0.018 C 
ATOM      5  C   UNL     1      35.779 -18.623 -20.088  0.00  0.00    +0.020 C 
ATOM      6  C   UNL     1      34.036 -20.153 -21.026  0.00  0.00    +0.020 C 
ATOM      7  C   UNL     1      35.011 -17.419 -20.632  0.00  0.00    +0.101 C 
ATOM      8  C   UNL     1      33.271 -18.944 -21.563  0.00  0.00    +0.101 C 
ATOM      9  C   UNL     1      33.797 -16.843 -22.713  0.00  0.00    +0.090 C 
ATOM     10  C   UNL     1      33.837 -14.662 -23.432  0.00  0.00    +0.170 C 
ATOM     11  C   UNL     1      32.681 -16.291 -24.643  0.00  0.00    +0.113 C 
ATOM     12  C   UNL     1      33.059 -14.969 -24.530  0.00  0.00    +0.078 C 
ENDROOT
BRANCH  12  15
ATOM     13  O   UNL     1      33.516 -13.347 -26.165  0.00  0.00    -0.268 OA
ATOM     14  N   UNL     1      31.302 -13.724 -25.646  0.00  0.00    -0.194 N 
ATOM     15  C   UNL     1      32.663 -13.968 -25.500  0.00  0.00    +0.267 C 
ATOM     16  H   UNL     1      30.632 -14.217 -25.119  0.00  0.00    +0.183 HD
BRANCH  14  17
ATOM     17  O   UNL     1      30.928 -12.745 -26.578  0.00  0.00    -0.295 OA
ATOM     18  H   UNL     1      31.616 -12.062 -26.625  0.00  0.00    +0.241 HD
ENDBRANCH  14  17
ENDBRANCH  12  15
BRANCH   4  19
ATOM     19  C   UNL     1      35.632 -21.002 -19.272  0.00  0.00    -0.081 C 
BRANCH  19  20
ATOM     20  N   UNL     1      35.349 -21.260 -17.869  0.00  0.00    +0.386 N 
ATOM     21  H   UNL     1      35.295 -20.371 -17.371  0.00  0.00    -0.084 HD
ATOM     22  H   UNL     1      36.096 -21.840 -17.487  0.00  0.00    -0.084 HD
BRANCH  20  23
ATOM     23  C   UNL     1      34.085 -21.970 -17.713  0.00  0.00    -0.053 C 
BRANCH  23  25
ATOM     24  N   UNL     1      34.300 -22.922 -14.194  0.00  0.00    -0.284 N 
ATOM     25  C   UNL     1      33.888 -22.389 -16.283  0.00  0.00    -0.028 C 
ATOM     26  C   UNL     1      32.653 -22.694 -15.681  0.00  0.00    +0.009 C 
ATOM     27  C   UNL     1      34.886 -22.530 -15.368  0.00  0.00    +0.059 C 
ATOM     28  C   UNL     1      32.938 -23.029 -14.356  0.00  0.00    +0.051 C 
ATOM     29  C   UNL     1      31.314 -22.723 -16.115  0.00  0.00    +0.001 C 
ATOM     30  C   UNL     1      31.945 -23.395 -13.439  0.00  0.00    +0.015 C 
ATOM     31  C   UNL     1      35.025 -23.179 -12.968  0.00  0.00    +0.117 C 
ATOM     32  C   UNL     1      30.309 -23.087 -15.209  0.00  0.00    +0.000 C 
ATOM     33  C   UNL     1      30.623 -23.417 -13.892  0.00  0.00    +0.001 C 
ENDBRANCH  23  25
ENDBRANCH  20  23
ENDBRANCH  19  20
ENDBRANCH   4  19
TORSDOF 6
ENDMDL
MODEL 9
REMARK VINA RESULT:      -9.9      4.538     11.292
REMARK  Name = 11538455
REMARK  6 active torsions:
REMARK  status: ('A' for Active; 'I' for Inactive)
REMARK    1  A    between atoms: C_4  and  C_19
REMARK    2  A    between atoms: C_12  and  C_15
REMARK    3  A    between atoms: N_14  and  O_17
REMARK    4  A    between atoms: C_19  and  N_20
REMARK    5  A    between atoms: N_20  and  C_23
REMARK    6  A    between atoms: C_23  and  C_25
REMARK                            x       y       z     vdW  Elec       q    Type
REMARK                         _______ _______ _______ _____ _____    ______ ____
ROOT
ATOM      1  N   UNL     1      34.274 -20.573 -18.988  0.00  0.00    -0.253 N 
ATOM      2  N   UNL     1      33.132 -19.883 -20.935  0.00  0.00    -0.203 NA
ATOM      3  N   UNL     1      35.208 -18.842 -20.293  0.00  0.00    -0.180 NA
ATOM      4  C   UNL     1      34.511 -22.386 -16.743  0.00  0.00    -0.018 C 
ATOM      5  C   UNL     1      33.146 -21.928 -17.269  0.00  0.00    +0.020 C 
ATOM      6  C   UNL     1      35.553 -21.296 -17.011  0.00  0.00    +0.020 C 
ATOM      7  C   UNL     1      33.210 -21.554 -18.749  0.00  0.00    +0.101 C 
ATOM      8  C   UNL     1      35.611 -20.929 -18.492  0.00  0.00    +0.101 C 
ATOM      9  C   UNL     1      34.203 -19.738 -20.110  0.00  0.00    +0.090 C 
ATOM     10  C   UNL     1      33.094 -19.062 -22.005  0.00  0.00    +0.170 C 
ATOM     11  C   UNL     1      35.107 -18.053 -21.382  0.00  0.00    +0.113 C 
ATOM     12  C   UNL     1      34.062 -18.119 -22.282  0.00  0.00    +0.078 C 
ENDROOT
BRANCH  12  15
ATOM     13  O   UNL     1      33.357 -17.601 -24.461  0.00  0.00    -0.268 OA
ATOM     14  N   UNL     1      34.656 -16.037 -23.375  0.00  0.00    -0.194 N 
ATOM     15  C   UNL     1      33.988 -17.254 -23.443  0.00  0.00    +0.267 C 
ATOM     16  H   UNL     1      35.152 -15.767 -22.568  0.00  0.00    +0.183 HD
BRANCH  14  17
ATOM     17  O   UNL     1      34.591 -15.211 -24.506  0.00  0.00    -0.295 OA
ATOM     18  H   UNL     1      33.675 -15.167 -24.822  0.00  0.00    +0.241 HD
ENDBRANCH  14  17
ENDBRANCH  12  15
BRANCH   4  19
ATOM     19  C   UNL     1      34.438 -22.716 -15.254  0.00  0.00    -0.081 C 
BRANCH  19  20
ATOM     20  N   UNL     1      33.082 -23.075 -14.868  0.00  0.00    +0.386 N 
ATOM     21  H   UNL     1      32.503 -23.143 -15.706  0.00  0.00    -0.084 HD
ATOM     22  H   UNL     1      32.720 -22.356 -14.242  0.00  0.00    -0.084 HD
BRANCH  20  23
ATOM     23  C   UNL     1      33.060 -24.354 -14.169  0.00  0.00    -0.053 C 
BRANCH  23  25
ATOM     24  N   UNL     1      34.957 -24.077 -11.062  0.00  0.00    -0.284 N 
ATOM     25  C   UNL     1      34.055 -24.358 -13.042  0.00  0.00    -0.028 C 
ATOM     26  C   UNL     1      35.378 -24.829 -13.119  0.00  0.00    +0.009 C 
ATOM     27  C   UNL     1      33.808 -23.902 -11.784  0.00  0.00    +0.059 C 
ATOM     28  C   UNL     1      35.933 -24.642 -11.851  0.00  0.00    +0.051 C 
ATOM     29  C   UNL     1      36.175 -25.400 -14.131  0.00  0.00    +0.001 C 
ATOM     30  C   UNL     1      37.252 -24.998 -11.543  0.00  0.00    +0.015 C 
ATOM     31  C   UNL     1      35.107 -23.717  -9.668  0.00  0.00    +0.117 C 
ATOM     32  C   UNL     1      37.497 -25.761 -13.838  0.00  0.00    +0.000 C 
ATOM     33  C   UNL     1      38.024 -25.562 -12.563  0.00  0.00    +0.001 C 
ENDBRANCH  23  25
ENDBRANCH  20  23
ENDBRANCH  19  20
ENDBRANCH   4  19
TORSDOF 6
ENDMDL
