MODEL 1
REMARK VINA RESULT:     -11.7      0.000      0.000
REMARK  Name = 24779724
REMARK  3 active torsions:
REMARK  status: ('A' for Active; 'I' for Inactive)
REMARK    1  A    between atoms: C_5  and  C_12
REMARK    2  A    between atoms: C_7  and  S_16
REMARK    3  A    between atoms: S_16  and  C_19
REMARK                            x       y       z     vdW  Elec       q    Type
REMARK                         _______ _______ _______ _____ _____    ______ ____
ROOT
ATOM      1  N   UNL     1      33.640 -21.346 -18.155  0.00  0.00    -0.186 N 
ATOM      2  N   UNL     1      34.659 -21.701 -17.334  0.00  0.00    -0.162 NA
ATOM      3  N   UNL     1      31.635 -21.143 -19.029  0.00  0.00    -0.126 NA
ATOM      4  N   UNL     1      32.528 -20.439 -19.812  0.00  0.00    -0.120 NA
ATOM      5  C   UNL     1      34.290 -22.443 -16.328  0.00  0.00    +0.104 C 
ATOM      6  C   UNL     1      32.312 -21.683 -18.038  0.00  0.00    +0.187 A 
ATOM      7  C   UNL     1      33.720 -20.573 -19.277  0.00  0.00    +0.217 A 
ATOM      8  C   UNL     1      32.883 -22.901 -16.084  0.00  0.00    +0.024 C 
ATOM      9  C   UNL     1      31.945 -22.500 -16.951  0.00  0.00    +0.042 C 
ENDROOT
BRANCH   5  12
ATOM     10  N   UNL     1      36.347 -23.965 -13.752  0.00  0.00    -0.208 N 
ATOM     11  N   UNL     1      37.261 -23.073 -14.169  0.00  0.00    -0.176 NA
ATOM     12  C   UNL     1      35.315 -22.893 -15.352  0.00  0.00    +0.056 C 
ATOM     13  C   UNL     1      35.163 -23.898 -14.428  0.00  0.00    +0.087 C 
ATOM     14  C   UNL     1      36.626 -22.422 -15.147  0.00  0.00    +0.121 C 
ATOM     15  C   UNL     1      36.670 -24.874 -12.679  0.00  0.00    +0.140 C 
ENDBRANCH   5  12
BRANCH   7  16
ATOM     16  S   UNL     1      35.246 -19.869 -19.883  0.00  0.00    -0.051 S 
BRANCH  16  19
ATOM     17  N   UNL     1      33.265 -16.492 -24.361  0.00  0.00    -0.248 NA
ATOM     18  C   UNL     1      34.107 -16.659 -22.110  0.00  0.00    -0.003 C 
ATOM     19  C   UNL     1      34.655 -18.849 -21.217  0.00  0.00    +0.011 C 
ATOM     20  C   UNL     1      33.716 -17.238 -23.336  0.00  0.00    +0.060 C 
ATOM     21  C   UNL     1      34.573 -17.468 -21.060  0.00  0.00    +0.060 C 
ATOM     22  C   UNL     1      34.272 -19.425 -22.421  0.00  0.00    -0.017 C 
ATOM     23  C   UNL     1      33.808 -18.621 -23.465  0.00  0.00    +0.072 C 
ATOM     24  C   UNL     1      34.015 -15.267 -21.979  0.00  0.00    -0.001 C 
ATOM     25  C   UNL     1      33.550 -14.496 -23.035  0.00  0.00    +0.020 C 
ATOM     26  C   UNL     1      33.191 -15.153 -24.194  0.00  0.00    +0.098 C 
ENDBRANCH  16  19
ENDBRANCH   7  16
TORSDOF 3
ENDMDL
MODEL 2
REMARK VINA RESULT:     -10.9      1.061      1.705
REMARK  Name = 24779724
REMARK  3 active torsions:
REMARK  status: ('A' for Active; 'I' for Inactive)
REMARK    1  A    between atoms: C_5  and  C_12
REMARK    2  A    between atoms: C_7  and  S_16
REMARK    3  A    between atoms: S_16  and  C_19
REMARK                            x       y       z     vdW  Elec       q    Type
REMARK                         _______ _______ _______ _____ _____    ______ ____
ROOT
ATOM      1  N   UNL     1      33.558 -21.915 -17.501  0.00  0.00    -0.186 N 
ATOM      2  N   UNL     1      34.545 -22.332 -16.670  0.00  0.00    -0.162 NA
ATOM      3  N   UNL     1      31.572 -21.518 -18.351  0.00  0.00    -0.126 NA
ATOM      4  N   UNL     1      32.526 -21.014 -19.212  0.00  0.00    -0.120 NA
ATOM      5  C   UNL     1      34.111 -22.926 -15.594  0.00  0.00    +0.104 C 
ATOM      6  C   UNL     1      32.201 -22.056 -17.328  0.00  0.00    +0.187 A 
ATOM      7  C   UNL     1      33.706 -21.261 -18.690  0.00  0.00    +0.217 A 
ATOM      8  C   UNL     1      32.664 -23.165 -15.282  0.00  0.00    +0.024 C 
ATOM      9  C   UNL     1      31.762 -22.717 -16.164  0.00  0.00    +0.042 C 
ENDROOT
BRANCH   5  12
ATOM     10  N   UNL     1      36.113 -24.639 -13.096  0.00  0.00    -0.208 N 
ATOM     11  N   UNL     1      36.940 -23.592 -13.262  0.00  0.00    -0.176 NA
ATOM     12  C   UNL     1      35.097 -23.424 -14.600  0.00  0.00    +0.056 C 
ATOM     13  C   UNL     1      34.994 -24.585 -13.874  0.00  0.00    +0.087 C 
ATOM     14  C   UNL     1      36.315 -22.854 -14.182  0.00  0.00    +0.121 C 
ATOM     15  C   UNL     1      36.455 -25.681 -12.157  0.00  0.00    +0.140 C 
ENDBRANCH   5  12
BRANCH   7  16
ATOM     16  S   UNL     1      35.293 -20.827 -19.385  0.00  0.00    -0.051 S 
BRANCH  16  19
ATOM     17  N   UNL     1      33.876 -16.088 -22.690  0.00  0.00    -0.248 NA
ATOM     18  C   UNL     1      33.853 -18.478 -22.379  0.00  0.00    -0.003 C 
ATOM     19  C   UNL     1      34.863 -19.415 -20.382  0.00  0.00    +0.011 C 
ATOM     20  C   UNL     1      34.186 -17.174 -21.957  0.00  0.00    +0.060 C 
ATOM     21  C   UNL     1      34.193 -19.588 -21.589  0.00  0.00    +0.060 C 
ATOM     22  C   UNL     1      35.195 -18.134 -19.960  0.00  0.00    -0.017 C 
ATOM     23  C   UNL     1      34.857 -17.030 -20.745  0.00  0.00    +0.072 C 
ATOM     24  C   UNL     1      33.178 -18.623 -23.599  0.00  0.00    -0.001 C 
ATOM     25  C   UNL     1      32.856 -17.506 -24.356  0.00  0.00    +0.020 C 
ATOM     26  C   UNL     1      33.224 -16.272 -23.861  0.00  0.00    +0.098 C 
ENDBRANCH  16  19
ENDBRANCH   7  16
TORSDOF 3
ENDMDL
MODEL 3
REMARK VINA RESULT:     -10.6      2.768      4.012
REMARK  Name = 24779724
REMARK  3 active torsions:
REMARK  status: ('A' for Active; 'I' for Inactive)
REMARK    1  A    between atoms: C_5  and  C_12
REMARK    2  A    between atoms: C_7  and  S_16
REMARK    3  A    between atoms: S_16  and  C_19
REMARK                            x       y       z     vdW  Elec       q    Type
REMARK                         _______ _______ _______ _____ _____    ______ ____
ROOT
ATOM      1  N   UNL     1      32.023 -23.090 -15.216  0.00  0.00    -0.186 N 
ATOM      2  N   UNL     1      33.093 -23.597 -14.555  0.00  0.00    -0.162 NA
ATOM      3  N   UNL     1      30.055 -22.214 -15.643  0.00  0.00    -0.126 NA
ATOM      4  N   UNL     1      30.719 -22.404 -16.838  0.00  0.00    -0.120 NA
ATOM      5  C   UNL     1      32.946 -23.627 -13.261  0.00  0.00    +0.104 C 
ATOM      6  C   UNL     1      30.846 -22.629 -14.676  0.00  0.00    +0.187 A 
ATOM      7  C   UNL     1      31.892 -22.929 -16.565  0.00  0.00    +0.217 A 
ATOM      8  C   UNL     1      31.714 -23.175 -12.536  0.00  0.00    +0.024 C 
ATOM      9  C   UNL     1      30.708 -22.690 -13.275  0.00  0.00    +0.042 C 
ENDROOT
BRANCH   5  12
ATOM     10  N   UNL     1      35.956 -25.010 -11.773  0.00  0.00    -0.208 N 
ATOM     11  N   UNL     1      35.294 -24.812 -10.621  0.00  0.00    -0.176 NA
ATOM     12  C   UNL     1      34.053 -24.156 -12.423  0.00  0.00    +0.056 C 
ATOM     13  C   UNL     1      35.256 -24.634 -12.882  0.00  0.00    +0.087 C 
ATOM     14  C   UNL     1      34.133 -24.289 -11.023  0.00  0.00    +0.121 C 
ATOM     15  C   UNL     1      37.284 -25.575 -11.750  0.00  0.00    +0.140 C 
ENDBRANCH   5  12
BRANCH   7  16
ATOM     16  S   UNL     1      33.159 -23.380 -17.740  0.00  0.00    -0.051 S 
BRANCH  16  19
ATOM     17  N   UNL     1      33.728 -18.311 -20.802  0.00  0.00    -0.248 NA
ATOM     18  C   UNL     1      34.756 -20.147 -19.627  0.00  0.00    -0.003 C 
ATOM     19  C   UNL     1      33.341 -21.863 -18.657  0.00  0.00    +0.011 C 
ATOM     20  C   UNL     1      33.622 -19.459 -20.108  0.00  0.00    +0.060 C 
ATOM     21  C   UNL     1      34.607 -21.343 -18.906  0.00  0.00    +0.060 C 
ATOM     22  C   UNL     1      32.220 -21.191 -19.126  0.00  0.00    -0.017 C 
ATOM     23  C   UNL     1      32.367 -20.002 -19.843  0.00  0.00    +0.072 C 
ATOM     24  C   UNL     1      36.019 -19.602 -19.893  0.00  0.00    -0.001 C 
ATOM     25  C   UNL     1      36.132 -18.418 -20.609  0.00  0.00    +0.020 C 
ATOM     26  C   UNL     1      34.965 -17.818 -21.037  0.00  0.00    +0.098 C 
ENDBRANCH  16  19
ENDBRANCH   7  16
TORSDOF 3
ENDMDL
MODEL 4
REMARK VINA RESULT:     -10.4      2.230      9.339
REMARK  Name = 24779724
REMARK  3 active torsions:
REMARK  status: ('A' for Active; 'I' for Inactive)
REMARK    1  A    between atoms: C_5  and  C_12
REMARK    2  A    between atoms: C_7  and  S_16
REMARK    3  A    between atoms: S_16  and  C_19
REMARK                            x       y       z     vdW  Elec       q    Type
REMARK                         _______ _______ _______ _____ _____    ______ ____
ROOT
ATOM      1  N   UNL     1      34.465 -19.933 -19.833  0.00  0.00    -0.186 N 
ATOM      2  N   UNL     1      33.757 -19.371 -20.844  0.00  0.00    -0.162 NA
ATOM      3  N   UNL     1      36.098 -20.431 -18.451  0.00  0.00    -0.126 NA
ATOM      4  N   UNL     1      34.985 -21.167 -18.098  0.00  0.00    -0.120 NA
ATOM      5  C   UNL     1      34.436 -18.507 -21.545  0.00  0.00    +0.104 C 
ATOM      6  C   UNL     1      35.776 -19.694 -19.493  0.00  0.00    +0.187 A 
ATOM      7  C   UNL     1      34.020 -20.859 -18.935  0.00  0.00    +0.217 A 
ATOM      8  C   UNL     1      35.875 -18.160 -21.301  0.00  0.00    +0.024 C 
ATOM      9  C   UNL     1      36.490 -18.768 -20.279  0.00  0.00    +0.042 C 
ENDROOT
BRANCH   5  12
ATOM     10  N   UNL     1      33.037 -16.281 -24.050  0.00  0.00    -0.208 N 
ATOM     11  N   UNL     1      32.567 -17.423 -24.581  0.00  0.00    -0.176 NA
ATOM     12  C   UNL     1      33.769 -17.817 -22.678  0.00  0.00    +0.056 C 
ATOM     13  C   UNL     1      33.763 -16.463 -22.909  0.00  0.00    +0.087 C 
ATOM     14  C   UNL     1      33.017 -18.357 -23.740  0.00  0.00    +0.121 C 
ATOM     15  C   UNL     1      32.752 -15.021 -24.692  0.00  0.00    +0.140 C 
ENDBRANCH   5  12
BRANCH   7  16
ATOM     16  S   UNL     1      32.360 -21.518 -18.938  0.00  0.00    -0.051 S 
BRANCH  16  19
ATOM     17  N   UNL     1      32.014 -23.745 -13.433  0.00  0.00    -0.248 NA
ATOM     18  C   UNL     1      30.916 -22.781 -15.349  0.00  0.00    -0.003 C 
ATOM     19  C   UNL     1      32.245 -22.184 -17.291  0.00  0.00    +0.011 C 
ATOM     20  C   UNL     1      32.070 -23.239 -14.679  0.00  0.00    +0.060 C 
ATOM     21  C   UNL     1      31.012 -22.257 -16.649  0.00  0.00    +0.060 C 
ATOM     22  C   UNL     1      33.385 -22.633 -16.636  0.00  0.00    -0.017 C 
ATOM     23  C   UNL     1      33.291 -23.153 -15.344  0.00  0.00    +0.072 C 
ATOM     24  C   UNL     1      29.688 -22.867 -14.681  0.00  0.00    -0.001 C 
ATOM     25  C   UNL     1      29.627 -23.389 -13.397  0.00  0.00    +0.020 C 
ATOM     26  C   UNL     1      30.809 -23.811 -12.823  0.00  0.00    +0.098 C 
ENDBRANCH  16  19
ENDBRANCH   7  16
TORSDOF 3
ENDMDL
MODEL 5
REMARK VINA RESULT:     -10.4      2.834      4.219
REMARK  Name = 24779724
REMARK  3 active torsions:
REMARK  status: ('A' for Active; 'I' for Inactive)
REMARK    1  A    between atoms: C_5  and  C_12
REMARK    2  A    between atoms: C_7  and  S_16
REMARK    3  A    between atoms: S_16  and  C_19
REMARK                            x       y       z     vdW  Elec       q    Type
REMARK                         _______ _______ _______ _____ _____    ______ ____
ROOT
ATOM      1  N   UNL     1      32.904 -23.399 -15.288  0.00  0.00    -0.186 N 
ATOM      2  N   UNL     1      34.059 -24.108 -15.316  0.00  0.00    -0.162 NA
ATOM      3  N   UNL     1      31.169 -22.260 -14.570  0.00  0.00    -0.126 NA
ATOM      4  N   UNL     1      31.094 -22.351 -15.945  0.00  0.00    -0.120 NA
ATOM      5  C   UNL     1      34.585 -24.304 -14.140  0.00  0.00    +0.104 C 
ATOM      6  C   UNL     1      32.258 -22.891 -14.186  0.00  0.00    +0.187 A 
ATOM      7  C   UNL     1      32.137 -23.035 -16.358  0.00  0.00    +0.217 A 
ATOM      8  C   UNL     1      33.984 -23.826 -12.852  0.00  0.00    +0.024 C 
ATOM      9  C   UNL     1      32.840 -23.133 -12.926  0.00  0.00    +0.042 C 
ENDROOT
BRANCH   5  12
ATOM     10  N   UNL     1      37.967 -25.584 -13.814  0.00  0.00    -0.208 N 
ATOM     11  N   UNL     1      37.369 -26.776 -13.978  0.00  0.00    -0.176 NA
ATOM     12  C   UNL     1      35.857 -25.064 -14.038  0.00  0.00    +0.056 C 
ATOM     13  C   UNL     1      37.106 -24.526 -13.843  0.00  0.00    +0.087 C 
ATOM     14  C   UNL     1      36.080 -26.452 -14.113  0.00  0.00    +0.121 C 
ATOM     15  C   UNL     1      39.398 -25.519 -13.631  0.00  0.00    +0.140 C 
ENDBRANCH   5  12
BRANCH   7  16
ATOM     16  S   UNL     1      32.540 -23.452 -18.047  0.00  0.00    -0.051 S 
BRANCH  16  19
ATOM     17  N   UNL     1      36.129 -18.944 -19.525  0.00  0.00    -0.248 NA
ATOM     18  C   UNL     1      34.048 -20.121 -19.832  0.00  0.00    -0.003 C 
ATOM     19  C   UNL     1      33.606 -22.099 -18.496  0.00  0.00    +0.011 C 
ATOM     20  C   UNL     1      35.301 -19.957 -19.205  0.00  0.00    +0.060 C 
ATOM     21  C   UNL     1      33.210 -21.190 -19.473  0.00  0.00    +0.060 C 
ATOM     22  C   UNL     1      34.839 -21.944 -17.876  0.00  0.00    -0.017 C 
ATOM     23  C   UNL     1      35.673 -20.881 -18.232  0.00  0.00    +0.072 C 
ATOM     24  C   UNL     1      33.675 -19.191 -20.811  0.00  0.00    -0.001 C 
ATOM     25  C   UNL     1      34.525 -18.146 -21.143  0.00  0.00    +0.020 C 
ATOM     26  C   UNL     1      35.731 -18.069 -20.475  0.00  0.00    +0.098 C 
ENDBRANCH  16  19
ENDBRANCH   7  16
TORSDOF 3
ENDMDL
MODEL 6
REMARK VINA RESULT:     -10.3      6.132     11.921
REMARK  Name = 24779724
REMARK  3 active torsions:
REMARK  status: ('A' for Active; 'I' for Inactive)
REMARK    1  A    between atoms: C_5  and  C_12
REMARK    2  A    between atoms: C_7  and  S_16
REMARK    3  A    between atoms: S_16  and  C_19
REMARK                            x       y       z     vdW  Elec       q    Type
REMARK                         _______ _______ _______ _____ _____    ______ ____
ROOT
ATOM      1  N   UNL     1      31.617 -11.297 -21.293  0.00  0.00    -0.186 N 
ATOM      2  N   UNL     1      31.694 -10.096 -21.918  0.00  0.00    -0.162 NA
ATOM      3  N   UNL     1      31.139 -12.864 -19.831  0.00  0.00    -0.126 NA
ATOM      4  N   UNL     1      31.861 -13.432 -20.861  0.00  0.00    -0.120 NA
ATOM      5  C   UNL     1      31.094  -9.131 -21.279  0.00  0.00    +0.104 C 
ATOM      6  C   UNL     1      30.997 -11.583 -20.100  0.00  0.00    +0.187 A 
ATOM      7  C   UNL     1      32.140 -12.482 -21.724  0.00  0.00    +0.217 A 
ATOM      8  C   UNL     1      30.395  -9.293 -19.962  0.00  0.00    +0.024 C 
ATOM      9  C   UNL     1      30.372 -10.518 -19.423  0.00  0.00    +0.042 C 
ENDROOT
BRANCH   5  12
ATOM     10  N   UNL     1      31.731  -5.921 -22.852  0.00  0.00    -0.208 N 
ATOM     11  N   UNL     1      30.445  -5.685 -22.539  0.00  0.00    -0.176 NA
ATOM     12  C   UNL     1      31.103  -7.766 -21.864  0.00  0.00    +0.056 C 
ATOM     13  C   UNL     1      32.173  -7.153 -22.468  0.00  0.00    +0.087 C 
ATOM     14  C   UNL     1      30.067  -6.815 -21.937  0.00  0.00    +0.121 C 
ATOM     15  C   UNL     1      32.502  -4.907 -23.531  0.00  0.00    +0.140 C 
ENDBRANCH   5  12
BRANCH   7  16
ATOM     16  S   UNL     1      33.057 -12.660 -23.247  0.00  0.00    -0.051 S 
BRANCH  16  19
ATOM     17  N   UNL     1      33.509 -18.576 -23.674  0.00  0.00    -0.248 NA
ATOM     18  C   UNL     1      34.030 -16.539 -22.496  0.00  0.00    -0.003 C 
ATOM     19  C   UNL     1      33.197 -14.431 -23.365  0.00  0.00    +0.011 C 
ATOM     20  C   UNL     1      33.418 -17.238 -23.559  0.00  0.00    +0.060 C 
ATOM     21  C   UNL     1      33.915 -15.142 -22.407  0.00  0.00    +0.060 C 
ATOM     22  C   UNL     1      32.594 -15.112 -24.414  0.00  0.00    -0.017 C 
ATOM     23  C   UNL     1      32.708 -16.502 -24.503  0.00  0.00    +0.072 C 
ATOM     24  C   UNL     1      34.745 -17.279 -21.546  0.00  0.00    -0.001 C 
ATOM     25  C   UNL     1      34.840 -18.659 -21.662  0.00  0.00    +0.020 C 
ATOM     26  C   UNL     1      34.209 -19.253 -22.736  0.00  0.00    +0.098 C 
ENDBRANCH  16  19
ENDBRANCH   7  16
TORSDOF 3
ENDMDL
MODEL 7
REMARK VINA RESULT:      -9.9      4.062      7.578
REMARK  Name = 24779724
REMARK  3 active torsions:
REMARK  status: ('A' for Active; 'I' for Inactive)
REMARK    1  A    between atoms: C_5  and  C_12
REMARK    2  A    between atoms: C_7  and  S_16
REMARK    3  A    between atoms: S_16  and  C_19
REMARK                            x       y       z     vdW  Elec       q    Type
REMARK                         _______ _______ _______ _____ _____    ______ ____
ROOT
ATOM      1  N   UNL     1      33.378 -15.837 -22.932  0.00  0.00    -0.186 N 
ATOM      2  N   UNL     1      33.983 -16.473 -21.898  0.00  0.00    -0.162 NA
ATOM      3  N   UNL     1      32.409 -15.444 -24.863  0.00  0.00    -0.126 NA
ATOM      4  N   UNL     1      32.483 -14.258 -24.161  0.00  0.00    -0.120 NA
ATOM      5  C   UNL     1      34.151 -17.751 -22.093  0.00  0.00    +0.104 C 
ATOM      6  C   UNL     1      32.949 -16.385 -24.118  0.00  0.00    +0.187 A 
ATOM      7  C   UNL     1      33.066 -14.511 -23.011  0.00  0.00    +0.217 A 
ATOM      8  C   UNL     1      33.750 -18.479 -23.340  0.00  0.00    +0.024 C 
ATOM      9  C   UNL     1      33.159 -17.765 -24.307  0.00  0.00    +0.042 C 
ENDROOT
BRANCH   5  12
ATOM     10  N   UNL     1      35.185 -20.070 -19.497  0.00  0.00    -0.208 N 
ATOM     11  N   UNL     1      36.316 -19.345 -19.512  0.00  0.00    -0.176 NA
ATOM     12  C   UNL     1      34.798 -18.562 -21.029  0.00  0.00    +0.056 C 
ATOM     13  C   UNL     1      34.244 -19.641 -20.387  0.00  0.00    +0.087 C 
ATOM     14  C   UNL     1      36.075 -18.425 -20.450  0.00  0.00    +0.121 C 
ATOM     15  C   UNL     1      35.060 -21.185 -18.589  0.00  0.00    +0.140 C 
ENDBRANCH   5  12
BRANCH   7  16
ATOM     16  S   UNL     1      33.418 -13.336 -21.712  0.00  0.00    -0.051 S 
BRANCH  16  19
ATOM     17  N   UNL     1      32.147  -8.205 -24.440  0.00  0.00    -0.248 NA
ATOM     18  C   UNL     1      31.893  -9.653 -22.531  0.00  0.00    -0.003 C 
ATOM     19  C   UNL     1      33.032 -11.797 -22.519  0.00  0.00    +0.011 C 
ATOM     20  C   UNL     1      32.422  -9.359 -23.805  0.00  0.00    +0.060 C 
ATOM     21  C   UNL     1      32.201 -10.869 -21.898  0.00  0.00    +0.060 C 
ATOM     22  C   UNL     1      33.556 -11.514 -23.774  0.00  0.00    -0.017 C 
ATOM     23  C   UNL     1      33.250 -10.306 -24.404  0.00  0.00    +0.072 C 
ATOM     24  C   UNL     1      31.060  -8.701 -21.928  0.00  0.00    -0.001 C 
ATOM     25  C   UNL     1      30.774  -7.510 -22.579  0.00  0.00    +0.020 C 
ATOM     26  C   UNL     1      31.339  -7.313 -23.824  0.00  0.00    +0.098 C 
ENDBRANCH  16  19
ENDBRANCH   7  16
TORSDOF 3
ENDMDL
MODEL 8
REMARK VINA RESULT:      -9.9      6.187     12.573
REMARK  Name = 24779724
REMARK  3 active torsions:
REMARK  status: ('A' for Active; 'I' for Inactive)
REMARK    1  A    between atoms: C_5  and  C_12
REMARK    2  A    between atoms: C_7  and  S_16
REMARK    3  A    between atoms: S_16  and  C_19
REMARK                            x       y       z     vdW  Elec       q    Type
REMARK                         _______ _______ _______ _____ _____    ______ ____
ROOT
ATOM      1  N   UNL     1      31.742 -10.472 -21.709  0.00  0.00    -0.186 N 
ATOM      2  N   UNL     1      32.351  -9.506 -22.441  0.00  0.00    -0.162 NA
ATOM      3  N   UNL     1      30.487 -11.484 -20.218  0.00  0.00    -0.126 NA
ATOM      4  N   UNL     1      31.130 -12.444 -20.973  0.00  0.00    -0.120 NA
ATOM      5  C   UNL     1      32.030  -8.294 -22.083  0.00  0.00    +0.104 C 
ATOM      6  C   UNL     1      30.860 -10.305 -20.668  0.00  0.00    +0.187 A 
ATOM      7  C   UNL     1      31.877 -11.822 -21.858  0.00  0.00    +0.217 A 
ATOM      8  C   UNL     1      31.098  -7.962 -20.957  0.00  0.00    +0.024 C 
ATOM      9  C   UNL     1      30.545  -8.984 -20.292  0.00  0.00    +0.042 C 
ENDROOT
BRANCH   5  12
ATOM     10  N   UNL     1      32.881  -5.332 -24.003  0.00  0.00    -0.208 N 
ATOM     11  N   UNL     1      34.142  -5.686 -23.703  0.00  0.00    -0.176 NA
ATOM     12  C   UNL     1      32.627  -7.146 -22.812  0.00  0.00    +0.056 C 
ATOM     13  C   UNL     1      31.936  -6.174 -23.493  0.00  0.00    +0.087 C 
ATOM     14  C   UNL     1      33.981  -6.794 -22.975  0.00  0.00    +0.121 C 
ATOM     15  C   UNL     1      32.637  -4.152 -24.798  0.00  0.00    +0.140 C 
ENDBRANCH   5  12
BRANCH   7  16
ATOM     16  S   UNL     1      32.925 -12.579 -23.090  0.00  0.00    -0.051 S 
BRANCH  16  19
ATOM     17  N   UNL     1      34.468 -17.616 -20.328  0.00  0.00    -0.248 NA
ATOM     18  C   UNL     1      33.984 -16.442 -22.376  0.00  0.00    -0.003 C 
ATOM     19  C   UNL     1      33.388 -14.092 -22.273  0.00  0.00    +0.011 C 
ATOM     20  C   UNL     1      34.121 -16.487 -20.972  0.00  0.00    +0.060 C 
ATOM     21  C   UNL     1      33.619 -15.246 -23.016  0.00  0.00    +0.060 C 
ATOM     22  C   UNL     1      33.520 -14.128 -20.891  0.00  0.00    -0.017 C 
ATOM     23  C   UNL     1      33.883 -15.317 -20.254  0.00  0.00    +0.072 C 
ATOM     24  C   UNL     1      34.223 -17.619 -23.098  0.00  0.00    -0.001 C 
ATOM     25  C   UNL     1      34.582 -18.784 -22.437  0.00  0.00    +0.020 C 
ATOM     26  C   UNL     1      34.690 -18.729 -21.062  0.00  0.00    +0.098 C 
ENDBRANCH  16  19
ENDBRANCH   7  16
TORSDOF 3
ENDMDL
MODEL 9
REMARK VINA RESULT:      -9.8      1.955      9.476
REMARK  Name = 24779724
REMARK  3 active torsions:
REMARK  status: ('A' for Active; 'I' for Inactive)
REMARK    1  A    between atoms: C_5  and  C_12
REMARK    2  A    between atoms: C_7  and  S_16
REMARK    3  A    between atoms: S_16  and  C_19
REMARK                            x       y       z     vdW  Elec       q    Type
REMARK                         _______ _______ _______ _____ _____    ______ ____
ROOT
ATOM      1  N   UNL     1      34.075 -21.472 -17.774  0.00  0.00    -0.186 N 
ATOM      2  N   UNL     1      34.645 -20.591 -18.633  0.00  0.00    -0.162 NA
ATOM      3  N   UNL     1      32.615 -22.788 -16.795  0.00  0.00    -0.126 NA
ATOM      4  N   UNL     1      33.809 -22.872 -16.108  0.00  0.00    -0.120 NA
ATOM      5  C   UNL     1      33.841 -20.176 -19.571  0.00  0.00    +0.104 C 
ATOM      6  C   UNL     1      32.785 -21.946 -17.792  0.00  0.00    +0.187 A 
ATOM      7  C   UNL     1      34.670 -22.079 -16.705  0.00  0.00    +0.217 A 
ATOM      8  C   UNL     1      32.407 -20.592 -19.704  0.00  0.00    +0.024 C 
ATOM      9  C   UNL     1      31.933 -21.466 -18.807  0.00  0.00    +0.042 C 
ENDROOT
BRANCH   5  12
ATOM     10  N   UNL     1      34.494 -17.862 -22.292  0.00  0.00    -0.208 N 
ATOM     11  N   UNL     1      35.716 -17.792 -21.736  0.00  0.00    -0.176 NA
ATOM     12  C   UNL     1      34.350 -19.211 -20.579  0.00  0.00    +0.056 C 
ATOM     13  C   UNL     1      33.639 -18.699 -21.637  0.00  0.00    +0.087 C 
ATOM     14  C   UNL     1      35.622 -18.617 -20.691  0.00  0.00    +0.121 C 
ATOM     15  C   UNL     1      34.199 -17.089 -23.475  0.00  0.00    +0.140 C 
ENDBRANCH   5  12
BRANCH   7  16
ATOM     16  S   UNL     1      36.370 -21.802 -16.234  0.00  0.00    -0.051 S 
BRANCH  16  19
ATOM     17  N   UNL     1      36.819 -25.179 -11.358  0.00  0.00    -0.248 NA
ATOM     18  C   UNL     1      35.690 -23.427 -12.566  0.00  0.00    -0.003 C 
ATOM     19  C   UNL     1      36.495 -22.808 -14.770  0.00  0.00    +0.011 C 
ATOM     20  C   UNL     1      36.700 -24.405 -12.452  0.00  0.00    +0.060 C 
ATOM     21  C   UNL     1      35.595 -22.636 -13.723  0.00  0.00    +0.060 C 
ATOM     22  C   UNL     1      37.493 -23.769 -14.665  0.00  0.00    -0.017 C 
ATOM     23  C   UNL     1      37.588 -24.556 -13.515  0.00  0.00    +0.072 C 
ATOM     24  C   UNL     1      34.797 -23.275 -11.497  0.00  0.00    -0.001 C 
ATOM     25  C   UNL     1      34.917 -24.071 -10.367  0.00  0.00    +0.020 C 
ATOM     26  C   UNL     1      35.937 -25.001 -10.349  0.00  0.00    +0.098 C 
ENDBRANCH  16  19
ENDBRANCH   7  16
TORSDOF 3
ENDMDL
