MODEL 1
REMARK VINA RESULT:     -11.8      0.000      0.000
REMARK  Name = 24779675
REMARK  4 active torsions:
REMARK  status: ('A' for Active; 'I' for Inactive)
REMARK    1  A    between atoms: N_1  and  C_22
REMARK    2  A    between atoms: N_5  and  C_14
REMARK    3  A    between atoms: C_10  and  C_21
REMARK    4  A    between atoms: C_22  and  C_23
REMARK                            x       y       z     vdW  Elec       q    Type
REMARK                         _______ _______ _______ _____ _____    ______ ____
ROOT
ATOM      1  N   UNL     1      33.050 -22.486 -16.618  0.00  0.00    -0.259 N 
ATOM      2  N   UNL     1      31.124 -23.214 -15.597  0.00  0.00    -0.314 NA
ATOM      3  N   UNL     1      33.224 -23.408 -14.475  0.00  0.00    -0.295 NA
ATOM      4  N   UNL     1      31.316 -24.138 -13.442  0.00  0.00    -0.123 N 
ATOM      5  N   UNL     1      33.375 -24.346 -12.303  0.00  0.00    -0.274 N 
ATOM      6  N   UNL     1      30.626 -24.686 -12.426  0.00  0.00    -0.170 NA
ATOM      7  C   UNL     1      32.428 -23.044 -15.558  0.00  0.00    +0.203 C 
ATOM      8  C   UNL     1      30.548 -23.776 -14.510  0.00  0.00    +0.219 C 
ATOM      9  C   UNL     1      32.690 -23.951 -13.420  0.00  0.00    +0.279 C 
ATOM     10  C   UNL     1      29.258 -24.111 -14.165  0.00  0.00    +0.203 C 
ATOM     11  C   UNL     1      29.368 -24.666 -12.874  0.00  0.00    +0.116 C 
ATOM     12  H   UNL     1      34.025 -22.364 -16.576  0.00  0.00    +0.160 HD
ATOM     13  H   UNL     1      32.842 -24.743 -11.577  0.00  0.00    +0.156 HD
ENDROOT
BRANCH   5  14
ATOM     14  C   UNL     1      34.750 -24.244 -12.084  0.00  0.00    +0.051 C 
ATOM     15  C   UNL     1      35.265 -23.161 -11.372  0.00  0.00    +0.015 C 
ATOM     16  C   UNL     1      35.609 -25.227 -12.578  0.00  0.00    +0.015 C 
ATOM     17  C   UNL     1      36.639 -23.058 -11.154  0.00  0.00    +0.001 C 
ATOM     18  C   UNL     1      36.983 -25.124 -12.359  0.00  0.00    +0.001 C 
ATOM     19  C   UNL     1      37.498 -24.040 -11.647  0.00  0.00    +0.000 C 
ENDBRANCH   5  14
BRANCH  10  21
ATOM     20  N   UNL     1      27.139 -23.780 -15.602  0.00  0.00    -0.195 NA
ATOM     21  C   UNL     1      28.092 -23.928 -14.956  0.00  0.00    +0.087 C 
ENDBRANCH  10  21
BRANCH   1  22
ATOM     22  C   UNL     1      32.357 -22.061 -17.805  0.00  0.00    +0.099 C 
BRANCH  22  23
ATOM     23  C   UNL     1      33.365 -21.558 -18.837  0.00  0.00    +0.020 C 
ATOM     24  C   UNL     1      32.851 -20.282 -19.518  0.00  0.00    +0.002 C 
ATOM     25  C   UNL     1      34.733 -21.316 -18.185  0.00  0.00    +0.002 C 
ATOM     26  C   UNL     1      33.865 -19.728 -20.517  0.00  0.00    +0.000 C 
ATOM     27  C   UNL     1      35.743 -20.760 -19.186  0.00  0.00    +0.000 C 
ATOM     28  C   UNL     1      35.225 -19.497 -19.868  0.00  0.00    +0.000 C 
ENDBRANCH  22  23
ENDBRANCH   1  22
TORSDOF 4
ENDMDL
MODEL 2
REMARK VINA RESULT:     -11.1      1.458      5.597
REMARK  Name = 24779675
REMARK  4 active torsions:
REMARK  status: ('A' for Active; 'I' for Inactive)
REMARK    1  A    between atoms: N_1  and  C_22
REMARK    2  A    between atoms: N_5  and  C_14
REMARK    3  A    between atoms: C_10  and  C_21
REMARK    4  A    between atoms: C_22  and  C_23
REMARK                            x       y       z     vdW  Elec       q    Type
REMARK                         _______ _______ _______ _____ _____    ______ ____
ROOT
ATOM      1  N   UNL     1      33.456 -22.191 -17.202  0.00  0.00    -0.259 N 
ATOM      2  N   UNL     1      34.372 -22.939 -15.232  0.00  0.00    -0.314 NA
ATOM      3  N   UNL     1      32.000 -22.883 -15.507  0.00  0.00    -0.295 NA
ATOM      4  N   UNL     1      32.894 -23.633 -13.538  0.00  0.00    -0.123 N 
ATOM      5  N   UNL     1      30.545 -23.591 -13.775  0.00  0.00    -0.274 N 
ATOM      6  N   UNL     1      32.823 -24.123 -12.287  0.00  0.00    -0.170 NA
ATOM      7  C   UNL     1      33.304 -22.681 -15.954  0.00  0.00    +0.203 C 
ATOM      8  C   UNL     1      34.166 -23.431 -13.989  0.00  0.00    +0.219 C 
ATOM      9  C   UNL     1      31.780 -23.354 -14.314  0.00  0.00    +0.279 C 
ATOM     10  C   UNL     1      34.989 -23.818 -12.955  0.00  0.00    +0.203 C 
ATOM     11  C   UNL     1      34.108 -24.235 -11.937  0.00  0.00    +0.116 C 
ATOM     12  H   UNL     1      32.648 -22.002 -17.731  0.00  0.00    +0.160 HD
ATOM     13  H   UNL     1      30.527 -23.949 -12.858  0.00  0.00    +0.156 HD
ENDROOT
BRANCH   5  14
ATOM     14  C   UNL     1      29.309 -23.380 -14.387  0.00  0.00    +0.051 C 
ATOM     15  C   UNL     1      28.713 -24.402 -15.127  0.00  0.00    +0.015 C 
ATOM     16  C   UNL     1      28.669 -22.147 -14.260  0.00  0.00    +0.015 C 
ATOM     17  C   UNL     1      27.478 -24.190 -15.740  0.00  0.00    +0.001 C 
ATOM     18  C   UNL     1      27.434 -21.936 -14.873  0.00  0.00    +0.001 C 
ATOM     19  C   UNL     1      26.838 -22.957 -15.613  0.00  0.00    +0.000 C 
ENDBRANCH   5  14
BRANCH  10  21
ATOM     20  N   UNL     1      37.570 -23.774 -12.934  0.00  0.00    -0.195 NA
ATOM     21  C   UNL     1      36.409 -23.793 -12.944  0.00  0.00    +0.087 C 
ENDBRANCH  10  21
BRANCH   1  22
ATOM     22  C   UNL     1      34.741 -21.931 -17.796  0.00  0.00    +0.099 C 
BRANCH  22  23
ATOM     23  C   UNL     1      34.558 -21.157 -19.099  0.00  0.00    +0.020 C 
ATOM     24  C   UNL     1      33.146 -20.561 -19.181  0.00  0.00    +0.002 C 
ATOM     25  C   UNL     1      35.622 -20.059 -19.232  0.00  0.00    +0.002 C 
ATOM     26  C   UNL     1      32.954 -19.736 -20.452  0.00  0.00    +0.000 C 
ATOM     27  C   UNL     1      35.427 -19.235 -20.503  0.00  0.00    +0.000 C 
ATOM     28  C   UNL     1      34.019 -18.652 -20.586  0.00  0.00    +0.000 C 
ENDBRANCH  22  23
ENDBRANCH   1  22
TORSDOF 4
ENDMDL
MODEL 3
REMARK VINA RESULT:     -10.6      1.584      5.584
REMARK  Name = 24779675
REMARK  4 active torsions:
REMARK  status: ('A' for Active; 'I' for Inactive)
REMARK    1  A    between atoms: N_1  and  C_22
REMARK    2  A    between atoms: N_5  and  C_14
REMARK    3  A    between atoms: C_10  and  C_21
REMARK    4  A    between atoms: C_22  and  C_23
REMARK                            x       y       z     vdW  Elec       q    Type
REMARK                         _______ _______ _______ _____ _____    ______ ____
ROOT
ATOM      1  N   UNL     1      33.445 -22.024 -17.587  0.00  0.00    -0.259 N 
ATOM      2  N   UNL     1      34.595 -22.910 -15.805  0.00  0.00    -0.314 NA
ATOM      3  N   UNL     1      32.208 -22.846 -15.780  0.00  0.00    -0.295 NA
ATOM      4  N   UNL     1      33.336 -23.733 -13.997  0.00  0.00    -0.123 N 
ATOM      5  N   UNL     1      30.975 -23.687 -13.938  0.00  0.00    -0.274 N 
ATOM      6  N   UNL     1      33.418 -24.313 -12.786  0.00  0.00    -0.170 NA
ATOM      7  C   UNL     1      33.447 -22.605 -16.369  0.00  0.00    +0.203 C 
ATOM      8  C   UNL     1      34.543 -23.491 -14.585  0.00  0.00    +0.219 C 
ATOM      9  C   UNL     1      32.136 -23.404 -14.606  0.00  0.00    +0.279 C 
ATOM     10  C   UNL     1      35.486 -23.949 -13.693  0.00  0.00    +0.203 C 
ATOM     11  C   UNL     1      34.736 -24.444 -12.606  0.00  0.00    +0.116 C 
ATOM     12  H   UNL     1      32.579 -21.801 -17.997  0.00  0.00    +0.160 HD
ATOM     13  H   UNL     1      31.069 -24.111 -13.054  0.00  0.00    +0.156 HD
ENDROOT
BRANCH   5  14
ATOM     14  C   UNL     1      29.674 -23.437 -14.375  0.00  0.00    +0.051 C 
ATOM     15  C   UNL     1      29.097 -22.184 -14.169  0.00  0.00    +0.015 C 
ATOM     16  C   UNL     1      28.950 -24.441 -15.019  0.00  0.00    +0.015 C 
ATOM     17  C   UNL     1      27.795 -21.934 -14.605  0.00  0.00    +0.001 C 
ATOM     18  C   UNL     1      27.649 -24.191 -15.456  0.00  0.00    +0.001 C 
ATOM     19  C   UNL     1      27.071 -22.939 -15.249  0.00  0.00    +0.000 C 
ENDBRANCH   5  14
BRANCH  10  21
ATOM     20  N   UNL     1      38.049 -23.892 -13.989  0.00  0.00    -0.195 NA
ATOM     21  C   UNL     1      36.897 -23.917 -13.855  0.00  0.00    +0.087 C 
ENDBRANCH  10  21
BRANCH   1  22
ATOM     22  C   UNL     1      34.648 -21.715 -18.314  0.00  0.00    +0.099 C 
BRANCH  22  23
ATOM     23  C   UNL     1      34.483 -20.379 -19.037  0.00  0.00    +0.020 C 
ATOM     24  C   UNL     1      35.778 -19.993 -19.764  0.00  0.00    +0.002 C 
ATOM     25  C   UNL     1      33.303 -20.435 -20.017  0.00  0.00    +0.002 C 
ATOM     26  C   UNL     1      35.622 -18.687 -20.539  0.00  0.00    +0.000 C 
ATOM     27  C   UNL     1      33.151 -19.128 -20.792  0.00  0.00    +0.000 C 
ATOM     28  C   UNL     1      34.443 -18.743 -21.505  0.00  0.00    +0.000 C 
ENDBRANCH  22  23
ENDBRANCH   1  22
TORSDOF 4
ENDMDL
MODEL 4
REMARK VINA RESULT:     -10.6      1.857      7.311
REMARK  Name = 24779675
REMARK  4 active torsions:
REMARK  status: ('A' for Active; 'I' for Inactive)
REMARK    1  A    between atoms: N_1  and  C_22
REMARK    2  A    between atoms: N_5  and  C_14
REMARK    3  A    between atoms: C_10  and  C_21
REMARK    4  A    between atoms: C_22  and  C_23
REMARK                            x       y       z     vdW  Elec       q    Type
REMARK                         _______ _______ _______ _____ _____    ______ ____
ROOT
ATOM      1  N   UNL     1      32.217 -22.777 -14.160  0.00  0.00    -0.259 N 
ATOM      2  N   UNL     1      34.290 -23.498 -13.479  0.00  0.00    -0.314 NA
ATOM      3  N   UNL     1      34.045 -22.340 -15.553  0.00  0.00    -0.295 NA
ATOM      4  N   UNL     1      36.118 -23.050 -14.891  0.00  0.00    -0.123 N 
ATOM      5  N   UNL     1      35.912 -21.908 -16.948  0.00  0.00    -0.274 N 
ATOM      6  N   UNL     1      37.447 -23.200 -15.034  0.00  0.00    -0.170 NA
ATOM      7  C   UNL     1      33.545 -22.889 -14.374  0.00  0.00    +0.203 C 
ATOM      8  C   UNL     1      35.615 -23.583 -13.740  0.00  0.00    +0.219 C 
ATOM      9  C   UNL     1      35.316 -22.412 -15.824  0.00  0.00    +0.279 C 
ATOM     10  C   UNL     1      36.697 -24.120 -13.080  0.00  0.00    +0.203 C 
ATOM     11  C   UNL     1      37.795 -23.854 -13.922  0.00  0.00    +0.116 C 
ATOM     12  H   UNL     1      31.671 -22.319 -14.837  0.00  0.00    +0.160 HD
ATOM     13  H   UNL     1      36.885 -22.034 -17.023  0.00  0.00    +0.156 HD
ENDROOT
BRANCH   5  14
ATOM     14  C   UNL     1      35.286 -21.235 -17.999  0.00  0.00    +0.051 C 
ATOM     15  C   UNL     1      36.011 -20.335 -18.781  0.00  0.00    +0.015 C 
ATOM     16  C   UNL     1      33.936 -21.462 -18.267  0.00  0.00    +0.015 C 
ATOM     17  C   UNL     1      35.386 -19.661 -19.830  0.00  0.00    +0.001 C 
ATOM     18  C   UNL     1      33.312 -20.788 -19.317  0.00  0.00    +0.001 C 
ATOM     19  C   UNL     1      34.036 -19.888 -20.098  0.00  0.00    +0.000 C 
ENDBRANCH   5  14
BRANCH  10  21
ATOM     20  N   UNL     1      36.670 -25.340 -10.805  0.00  0.00    -0.195 NA
ATOM     21  C   UNL     1      36.682 -24.790 -11.828  0.00  0.00    +0.087 C 
ENDBRANCH  10  21
BRANCH   1  22
ATOM     22  C   UNL     1      31.562 -23.296 -12.988  0.00  0.00    +0.099 C 
BRANCH  22  23
ATOM     23  C   UNL     1      30.057 -23.383 -13.237  0.00  0.00    +0.020 C 
ATOM     24  C   UNL     1      29.631 -22.394 -14.330  0.00  0.00    +0.002 C 
ATOM     25  C   UNL     1      29.651 -24.816 -13.607  0.00  0.00    +0.002 C 
ATOM     26  C   UNL     1      28.139 -22.499 -14.635  0.00  0.00    +0.000 C 
ATOM     27  C   UNL     1      28.158 -24.917 -13.913  0.00  0.00    +0.000 C 
ATOM     28  C   UNL     1      27.736 -23.926 -14.994  0.00  0.00    +0.000 C 
ENDBRANCH  22  23
ENDBRANCH   1  22
TORSDOF 4
ENDMDL
MODEL 5
REMARK VINA RESULT:      -9.7      1.383      6.428
REMARK  Name = 24779675
REMARK  4 active torsions:
REMARK  status: ('A' for Active; 'I' for Inactive)
REMARK    1  A    between atoms: N_1  and  C_22
REMARK    2  A    between atoms: N_5  and  C_14
REMARK    3  A    between atoms: C_10  and  C_21
REMARK    4  A    between atoms: C_22  and  C_23
REMARK                            x       y       z     vdW  Elec       q    Type
REMARK                         _______ _______ _______ _____ _____    ______ ____
ROOT
ATOM      1  N   UNL     1      34.738 -23.115 -14.453  0.00  0.00    -0.259 N 
ATOM      2  N   UNL     1      32.489 -23.466 -14.139  0.00  0.00    -0.314 NA
ATOM      3  N   UNL     1      33.268 -22.370 -16.113  0.00  0.00    -0.295 NA
ATOM      4  N   UNL     1      31.024 -22.712 -15.818  0.00  0.00    -0.123 N 
ATOM      5  N   UNL     1      31.759 -21.625 -17.782  0.00  0.00    -0.274 N 
ATOM      6  N   UNL     1      29.732 -22.630 -16.180  0.00  0.00    -0.170 NA
ATOM      7  C   UNL     1      33.465 -22.996 -14.884  0.00  0.00    +0.203 C 
ATOM      8  C   UNL     1      31.231 -23.323 -14.616  0.00  0.00    +0.219 C 
ATOM      9  C   UNL     1      32.066 -22.222 -16.589  0.00  0.00    +0.279 C 
ATOM     10  C   UNL     1      29.980 -23.668 -14.158  0.00  0.00    +0.203 C 
ATOM     11  C   UNL     1      29.098 -23.218 -15.161  0.00  0.00    +0.116 C 
ATOM     12  H   UNL     1      35.459 -22.759 -15.020  0.00  0.00    +0.160 HD
ATOM     13  H   UNL     1      30.804 -21.581 -18.019  0.00  0.00    +0.156 HD
ENDROOT
BRANCH   5  14
ATOM     14  C   UNL     1      32.655 -21.073 -18.699  0.00  0.00    +0.051 C 
ATOM     15  C   UNL     1      34.011 -21.397 -18.630  0.00  0.00    +0.015 C 
ATOM     16  C   UNL     1      32.196 -20.197 -19.683  0.00  0.00    +0.015 C 
ATOM     17  C   UNL     1      34.907 -20.844 -19.545  0.00  0.00    +0.001 C 
ATOM     18  C   UNL     1      33.093 -19.646 -20.598  0.00  0.00    +0.001 C 
ATOM     19  C   UNL     1      34.448 -19.968 -20.529  0.00  0.00    +0.000 C 
ENDBRANCH   5  14
BRANCH  10  21
ATOM     20  N   UNL     1      29.422 -24.871 -11.943  0.00  0.00    -0.195 NA
ATOM     21  C   UNL     1      29.673 -24.331 -12.940  0.00  0.00    +0.087 C 
ENDBRANCH  10  21
BRANCH   1  22
ATOM     22  C   UNL     1      35.092 -23.737 -13.204  0.00  0.00    +0.099 C 
BRANCH  22  23
ATOM     23  C   UNL     1      36.602 -23.967 -13.155  0.00  0.00    +0.020 C 
ATOM     24  C   UNL     1      36.920 -25.344 -12.557  0.00  0.00    +0.002 C 
ATOM     25  C   UNL     1      37.219 -23.823 -14.552  0.00  0.00    +0.002 C 
ATOM     26  C   UNL     1      38.422 -25.621 -12.545  0.00  0.00    +0.000 C 
ATOM     27  C   UNL     1      38.720 -24.103 -14.537  0.00  0.00    +0.000 C 
ATOM     28  C   UNL     1      39.033 -25.468 -13.934  0.00  0.00    +0.000 C 
ENDBRANCH  22  23
ENDBRANCH   1  22
TORSDOF 4
ENDMDL
MODEL 6
REMARK VINA RESULT:      -9.5      1.306      6.602
REMARK  Name = 24779675
REMARK  4 active torsions:
REMARK  status: ('A' for Active; 'I' for Inactive)
REMARK    1  A    between atoms: N_1  and  C_22
REMARK    2  A    between atoms: N_5  and  C_14
REMARK    3  A    between atoms: C_10  and  C_21
REMARK    4  A    between atoms: C_22  and  C_23
REMARK                            x       y       z     vdW  Elec       q    Type
REMARK                         _______ _______ _______ _____ _____    ______ ____
ROOT
ATOM      1  N   UNL     1      34.426 -23.917 -15.202  0.00  0.00    -0.259 N 
ATOM      2  N   UNL     1      32.171 -23.849 -14.767  0.00  0.00    -0.314 NA
ATOM      3  N   UNL     1      33.078 -22.612 -16.598  0.00  0.00    -0.295 NA
ATOM      4  N   UNL     1      30.828 -22.532 -16.181  0.00  0.00    -0.123 N 
ATOM      5  N   UNL     1      31.690 -21.297 -18.000  0.00  0.00    -0.274 N 
ATOM      6  N   UNL     1      29.569 -22.126 -16.420  0.00  0.00    -0.170 NA
ATOM      7  C   UNL     1      33.191 -23.467 -15.505  0.00  0.00    +0.203 C 
ATOM      8  C   UNL     1      30.954 -23.371 -15.112  0.00  0.00    +0.219 C 
ATOM      9  C   UNL     1      31.916 -22.140 -16.946  0.00  0.00    +0.279 C 
ATOM     10  C   UNL     1      29.679 -23.526 -14.615  0.00  0.00    +0.203 C 
ATOM     11  C   UNL     1      28.870 -22.739 -15.459  0.00  0.00    +0.116 C 
ATOM     12  H   UNL     1      35.181 -23.624 -15.762  0.00  0.00    +0.160 HD
ATOM     13  H   UNL     1      30.758 -21.018 -18.148  0.00  0.00    +0.156 HD
ENDROOT
BRANCH   5  14
ATOM     14  C   UNL     1      32.642 -20.790 -18.886  0.00  0.00    +0.051 C 
ATOM     15  C   UNL     1      33.990 -21.111 -18.721  0.00  0.00    +0.015 C 
ATOM     16  C   UNL     1      32.246 -19.962 -19.937  0.00  0.00    +0.015 C 
ATOM     17  C   UNL     1      34.941 -20.604 -19.606  0.00  0.00    +0.001 C 
ATOM     18  C   UNL     1      33.198 -19.456 -20.822  0.00  0.00    +0.001 C 
ATOM     19  C   UNL     1      34.545 -19.776 -20.657  0.00  0.00    +0.000 C 
ENDBRANCH   5  14
BRANCH  10  21
ATOM     20  N   UNL     1      28.978 -24.954 -12.582  0.00  0.00    -0.195 NA
ATOM     21  C   UNL     1      29.293 -24.312 -13.497  0.00  0.00    +0.087 C 
ENDBRANCH  10  21
BRANCH   1  22
ATOM     22  C   UNL     1      34.695 -24.805 -14.102  0.00  0.00    +0.099 C 
BRANCH  22  23
ATOM     23  C   UNL     1      35.820 -24.232 -13.242  0.00  0.00    +0.020 C 
ATOM     24  C   UNL     1      35.283 -23.150 -12.296  0.00  0.00    +0.002 C 
ATOM     25  C   UNL     1      36.522 -25.347 -12.455  0.00  0.00    +0.002 C 
ATOM     26  C   UNL     1      36.379 -22.599 -11.388  0.00  0.00    +0.000 C 
ATOM     27  C   UNL     1      37.616 -24.792 -11.546  0.00  0.00    +0.000 C 
ATOM     28  C   UNL     1      37.080 -23.710 -10.613  0.00  0.00    +0.000 C 
ENDBRANCH  22  23
ENDBRANCH   1  22
TORSDOF 4
ENDMDL
MODEL 7
REMARK VINA RESULT:      -9.5      1.807      7.119
REMARK  Name = 24779675
REMARK  4 active torsions:
REMARK  status: ('A' for Active; 'I' for Inactive)
REMARK    1  A    between atoms: N_1  and  C_22
REMARK    2  A    between atoms: N_5  and  C_14
REMARK    3  A    between atoms: C_10  and  C_21
REMARK    4  A    between atoms: C_22  and  C_23
REMARK                            x       y       z     vdW  Elec       q    Type
REMARK                         _______ _______ _______ _____ _____    ______ ____
ROOT
ATOM      1  N   UNL     1      34.978 -23.100 -14.934  0.00  0.00    -0.259 N 
ATOM      2  N   UNL     1      34.620 -21.958 -16.895  0.00  0.00    -0.314 NA
ATOM      3  N   UNL     1      32.779 -22.911 -15.708  0.00  0.00    -0.295 NA
ATOM      4  N   UNL     1      32.402 -21.776 -17.660  0.00  0.00    -0.123 N 
ATOM      5  N   UNL     1      30.559 -22.706 -16.513  0.00  0.00    -0.274 N 
ATOM      6  N   UNL     1      31.625 -21.282 -18.640  0.00  0.00    -0.170 NA
ATOM      7  C   UNL     1      34.134 -22.635 -15.878  0.00  0.00    +0.203 C 
ATOM      8  C   UNL     1      33.732 -21.513 -17.814  0.00  0.00    +0.219 C 
ATOM      9  C   UNL     1      31.909 -22.493 -16.581  0.00  0.00    +0.279 C 
ATOM     10  C   UNL     1      33.831 -20.790 -18.982  0.00  0.00    +0.203 C 
ATOM     11  C   UNL     1      32.505 -20.679 -19.445  0.00  0.00    +0.116 C 
ATOM     12  H   UNL     1      34.602 -23.605 -14.178  0.00  0.00    +0.160 HD
ATOM     13  H   UNL     1      30.017 -22.332 -17.245  0.00  0.00    +0.156 HD
ENDROOT
BRANCH   5  14
ATOM     14  C   UNL     1      29.869 -23.398 -15.516  0.00  0.00    +0.051 C 
ATOM     15  C   UNL     1      28.491 -23.589 -15.626  0.00  0.00    +0.015 C 
ATOM     16  C   UNL     1      30.557 -23.897 -14.410  0.00  0.00    +0.015 C 
ATOM     17  C   UNL     1      27.801 -24.279 -14.629  0.00  0.00    +0.001 C 
ATOM     18  C   UNL     1      29.866 -24.587 -13.413  0.00  0.00    +0.001 C 
ATOM     19  C   UNL     1      28.489 -24.778 -13.523  0.00  0.00    +0.000 C 
ENDBRANCH   5  14
BRANCH  10  21
ATOM     20  N   UNL     1      35.992 -19.866 -20.049  0.00  0.00    -0.195 NA
ATOM     21  C   UNL     1      35.021 -20.282 -19.569  0.00  0.00    +0.087 C 
ENDBRANCH  10  21
BRANCH   1  22
ATOM     22  C   UNL     1      36.402 -22.892 -14.978  0.00  0.00    +0.099 C 
BRANCH  22  23
ATOM     23  C   UNL     1      37.042 -23.442 -13.704  0.00  0.00    +0.020 C 
ATOM     24  C   UNL     1      36.067 -23.344 -12.523  0.00  0.00    +0.002 C 
ATOM     25  C   UNL     1      37.505 -24.890 -13.912  0.00  0.00    +0.002 C 
ATOM     26  C   UNL     1      36.664 -23.936 -11.248  0.00  0.00    +0.000 C 
ATOM     27  C   UNL     1      38.099 -25.480 -12.635  0.00  0.00    +0.000 C 
ATOM     28  C   UNL     1      37.131 -25.372 -11.460  0.00  0.00    +0.000 C 
ENDBRANCH  22  23
ENDBRANCH   1  22
TORSDOF 4
ENDMDL
