MODEL 1
REMARK VINA RESULT:     -13.6      0.000      0.000
REMARK  Name = 21081761
REMARK  5 active torsions:
REMARK  status: ('A' for Active; 'I' for Inactive)
REMARK    1  A    between atoms: N_2  and  C_6
REMARK    2  A    between atoms: C_3  and  C_25
REMARK    3  A    between atoms: C_7  and  O_12
REMARK    4  A    between atoms: O_12  and  C_16
REMARK    5  A    between atoms: N_24  and  C_31
REMARK                            x       y       z     vdW  Elec       q    Type
REMARK                         _______ _______ _______ _____ _____    ______ ____
ROOT
ATOM      1  O   UNL     1      35.486 -17.575 -20.315  0.00  0.00    -0.270 OA
ATOM      2  N   UNL     1      33.500 -18.752 -20.797  0.00  0.00    -0.280 N 
ATOM      3  C   UNL     1      34.447 -17.736 -20.942  0.00  0.00    +0.254 C 
ATOM      4  H   UNL     1      32.722 -18.709 -21.400  0.00  0.00    +0.155 HD
ENDROOT
BRANCH   2   6
ATOM      5  F   UNL     1      35.928 -21.812 -18.039  0.00  0.00    -0.201 F 
ATOM      6  C   UNL     1      33.520 -19.822 -19.902  0.00  0.00    +0.053 C 
ATOM      7  C   UNL     1      33.562 -21.962 -18.113  0.00  0.00    +0.173 C 
ATOM      8  C   UNL     1      34.736 -20.294 -19.406  0.00  0.00    +0.047 C 
ATOM      9  C   UNL     1      32.325 -20.420 -19.502  0.00  0.00    +0.018 C 
ATOM     10  C   UNL     1      34.757 -21.364 -18.512  0.00  0.00    +0.176 C 
ATOM     11  C   UNL     1      32.346 -21.490 -18.608  0.00  0.00    +0.041 C 
BRANCH   7  12
ATOM     12  O   UNL     1      33.582 -23.023 -17.228  0.00  0.00    -0.451 OA
BRANCH  12  16
ATOM     13  N   UNL     1      32.934 -23.312 -12.627  0.00  0.00    -0.297 N 
ATOM     14  N   UNL     1      30.964 -22.815 -13.921  0.00  0.00    -0.229 NA
ATOM     15  C   UNL     1      33.211 -23.167 -14.837  0.00  0.00    +0.067 C 
ATOM     16  C   UNL     1      32.748 -22.959 -16.147  0.00  0.00    +0.150 C 
ATOM     17  C   UNL     1      32.280 -23.080 -13.808  0.00  0.00    +0.135 C 
ATOM     18  C   UNL     1      34.463 -23.464 -14.235  0.00  0.00    +0.022 C 
ATOM     19  C   UNL     1      34.262 -23.548 -12.875  0.00  0.00    +0.063 C 
ATOM     20  C   UNL     1      31.393 -22.682 -16.321  0.00  0.00    +0.058 C 
ATOM     21  C   UNL     1      30.574 -22.625 -15.202  0.00  0.00    +0.103 C 
ATOM     22  H   UNL     1      32.516 -23.311 -11.735  0.00  0.00    +0.154 HD
ENDBRANCH  12  16
ENDBRANCH   7  12
ENDBRANCH   2   6
BRANCH   3  25
ATOM     23  O   UNL     1      33.459 -15.074 -20.517  0.00  0.00    -0.269 OA
ATOM     24  N   UNL     1      33.353 -14.556 -22.823  0.00  0.00    -0.233 N 
ATOM     25  C   UNL     1      34.086 -16.779 -21.995  0.00  0.00    +0.108 C 
ATOM     26  C   UNL     1      33.619 -15.383 -21.699  0.00  0.00    +0.261 C 
ATOM     27  C   UNL     1      33.461 -15.082 -24.110  0.00  0.00    +0.072 C 
ATOM     28  C   UNL     1      34.174 -17.209 -23.259  0.00  0.00    +0.010 C 
ATOM     29  C   UNL     1      33.843 -16.340 -24.349  0.00  0.00    +0.017 C 
BRANCH  24  31
ATOM     30  F   UNL     1      31.795  -9.254 -22.059  0.00  0.00    -0.204 F 
ATOM     31  C   UNL     1      32.948 -13.178 -22.624  0.00  0.00    +0.059 C 
ATOM     32  C   UNL     1      32.040 -12.856 -21.615  0.00  0.00    +0.018 C 
ATOM     33  C   UNL     1      33.467 -12.173 -23.442  0.00  0.00    +0.018 C 
ATOM     34  C   UNL     1      31.650 -11.531 -21.424  0.00  0.00    +0.031 C 
ATOM     35  C   UNL     1      33.078 -10.848 -23.251  0.00  0.00    +0.031 C 
ATOM     36  C   UNL     1      32.170 -10.526 -22.242  0.00  0.00    +0.140 C 
ENDBRANCH  24  31
ENDBRANCH   3  25
TORSDOF 5
ENDMDL
MODEL 2
REMARK VINA RESULT:     -13.4      3.168      5.573
REMARK  Name = 21081761
REMARK  5 active torsions:
REMARK  status: ('A' for Active; 'I' for Inactive)
REMARK    1  A    between atoms: N_2  and  C_6
REMARK    2  A    between atoms: C_3  and  C_25
REMARK    3  A    between atoms: C_7  and  O_12
REMARK    4  A    between atoms: O_12  and  C_16
REMARK    5  A    between atoms: N_24  and  C_31
REMARK                            x       y       z     vdW  Elec       q    Type
REMARK                         _______ _______ _______ _____ _____    ______ ____
ROOT
ATOM      1  O   UNL     1      31.547 -13.359 -21.498  0.00  0.00    -0.270 OA
ATOM      2  N   UNL     1      33.614 -13.781 -22.554  0.00  0.00    -0.280 N 
ATOM      3  C   UNL     1      32.516 -13.012 -22.162  0.00  0.00    +0.254 C 
ATOM      4  H   UNL     1      34.297 -13.319 -23.092  0.00  0.00    +0.155 HD
ENDROOT
BRANCH   2   6
ATOM      5  F   UNL     1      33.952 -18.326 -24.004  0.00  0.00    -0.201 F 
ATOM      6  C   UNL     1      33.861 -15.126 -22.277  0.00  0.00    +0.053 C 
ATOM      7  C   UNL     1      34.353 -17.815 -21.722  0.00  0.00    +0.173 C 
ATOM      8  C   UNL     1      33.782 -16.075 -23.297  0.00  0.00    +0.047 C 
ATOM      9  C   UNL     1      34.187 -15.522 -20.980  0.00  0.00    +0.018 C 
ATOM     10  C   UNL     1      34.028 -17.420 -23.020  0.00  0.00    +0.176 C 
ATOM     11  C   UNL     1      34.432 -16.867 -20.702  0.00  0.00    +0.041 C 
BRANCH   7  12
ATOM     12  O   UNL     1      34.596 -19.148 -21.446  0.00  0.00    -0.451 OA
BRANCH  12  16
ATOM     13  N   UNL     1      34.142 -21.703 -17.581  0.00  0.00    -0.297 N 
ATOM     14  N   UNL     1      32.079 -21.012 -18.614  0.00  0.00    -0.229 NA
ATOM     15  C   UNL     1      34.326 -20.476 -19.437  0.00  0.00    +0.067 C 
ATOM     16  C   UNL     1      33.796 -19.756 -20.521  0.00  0.00    +0.150 C 
ATOM     17  C   UNL     1      33.423 -21.057 -18.553  0.00  0.00    +0.135 C 
ATOM     18  C   UNL     1      35.628 -20.794 -18.966  0.00  0.00    +0.022 C 
ATOM     19  C   UNL     1      35.484 -21.549 -17.823  0.00  0.00    +0.063 C 
ATOM     20  C   UNL     1      32.408 -19.677 -20.633  0.00  0.00    +0.058 C 
ATOM     21  C   UNL     1      31.624 -20.308 -19.676  0.00  0.00    +0.103 C 
ATOM     22  H   UNL     1      33.756 -22.201 -16.824  0.00  0.00    +0.154 HD
ENDBRANCH  12  16
ENDBRANCH   7  12
ENDBRANCH   2   6
BRANCH   3  25
ATOM     23  O   UNL     1      31.212 -10.747 -20.974  0.00  0.00    -0.269 OA
ATOM     24  N   UNL     1      32.141  -9.192 -22.495  0.00  0.00    -0.233 N 
ATOM     25  C   UNL     1      32.601 -11.628 -22.642  0.00  0.00    +0.108 C 
ATOM     26  C   UNL     1      31.928 -10.482 -21.941  0.00  0.00    +0.261 C 
ATOM     27  C   UNL     1      32.879  -9.057 -23.672  0.00  0.00    +0.072 C 
ATOM     28  C   UNL     1      33.301 -11.418 -23.762  0.00  0.00    +0.010 C 
ATOM     29  C   UNL     1      33.438 -10.096 -24.299  0.00  0.00    +0.017 C 
BRANCH  24  31
ATOM     30  F   UNL     1      29.943  -4.707 -20.010  0.00  0.00    -0.204 F 
ATOM     31  C   UNL     1      31.570  -8.026 -21.849  0.00  0.00    +0.059 C 
ATOM     32  C   UNL     1      30.415  -7.438 -22.366  0.00  0.00    +0.018 C 
ATOM     33  C   UNL     1      32.175  -7.493 -20.711  0.00  0.00    +0.018 C 
ATOM     34  C   UNL     1      29.865  -6.317 -21.744  0.00  0.00    +0.031 C 
ATOM     35  C   UNL     1      31.625  -6.372 -20.089  0.00  0.00    +0.031 C 
ATOM     36  C   UNL     1      30.470  -5.784 -20.606  0.00  0.00    +0.140 C 
ENDBRANCH  24  31
ENDBRANCH   3  25
TORSDOF 5
ENDMDL
MODEL 3
REMARK VINA RESULT:     -13.3      2.738     10.817
REMARK  Name = 21081761
REMARK  5 active torsions:
REMARK  status: ('A' for Active; 'I' for Inactive)
REMARK    1  A    between atoms: N_2  and  C_6
REMARK    2  A    between atoms: C_3  and  C_25
REMARK    3  A    between atoms: C_7  and  O_12
REMARK    4  A    between atoms: O_12  and  C_16
REMARK    5  A    between atoms: N_24  and  C_31
REMARK                            x       y       z     vdW  Elec       q    Type
REMARK                         _______ _______ _______ _____ _____    ______ ____
ROOT
ATOM      1  O   UNL     1      31.781 -21.970 -19.146  0.00  0.00    -0.270 OA
ATOM      2  N   UNL     1      33.695 -20.777 -18.454  0.00  0.00    -0.280 N 
ATOM      3  C   UNL     1      32.639 -21.681 -18.321  0.00  0.00    +0.254 C 
ATOM      4  H   UNL     1      34.284 -20.681 -17.670  0.00  0.00    +0.155 HD
ENDROOT
BRANCH   2   6
ATOM      5  F   UNL     1      36.891 -18.273 -20.981  0.00  0.00    -0.201 F 
ATOM      6  C   UNL     1      34.017 -19.992 -19.561  0.00  0.00    +0.053 C 
ATOM      7  C   UNL     1      34.660 -18.421 -21.775  0.00  0.00    +0.173 C 
ATOM      8  C   UNL     1      35.317 -19.514 -19.724  0.00  0.00    +0.047 C 
ATOM      9  C   UNL     1      33.038 -19.685 -20.507  0.00  0.00    +0.018 C 
ATOM     10  C   UNL     1      35.639 -18.728 -20.830  0.00  0.00    +0.176 C 
ATOM     11  C   UNL     1      33.359 -18.899 -21.613  0.00  0.00    +0.041 C 
BRANCH   7  12
ATOM     12  O   UNL     1      34.978 -17.641 -22.871  0.00  0.00    -0.451 OA
BRANCH  12  16
ATOM     13  N   UNL     1      32.810 -13.807 -21.363  0.00  0.00    -0.297 N 
ATOM     14  N   UNL     1      32.531 -14.302 -23.704  0.00  0.00    -0.229 NA
ATOM     15  C   UNL     1      33.838 -15.640 -22.118  0.00  0.00    +0.067 C 
ATOM     16  C   UNL     1      34.187 -16.556 -23.124  0.00  0.00    +0.150 C 
ATOM     17  C   UNL     1      33.028 -14.569 -22.481  0.00  0.00    +0.135 C 
ATOM     18  C   UNL     1      34.106 -15.501 -20.730  0.00  0.00    +0.022 C 
ATOM     19  C   UNL     1      33.461 -14.365 -20.293  0.00  0.00    +0.063 C 
ATOM     20  C   UNL     1      33.700 -16.327 -24.410  0.00  0.00    +0.058 C 
ATOM     21  C   UNL     1      32.899 -15.215 -24.632  0.00  0.00    +0.103 C 
ATOM     22  H   UNL     1      32.270 -12.984 -21.332  0.00  0.00    +0.154 HD
ENDBRANCH  12  16
ENDBRANCH   7  12
ENDBRANCH   2   6
BRANCH   3  25
ATOM     23  O   UNL     1      34.946 -22.486 -16.813  0.00  0.00    -0.269 OA
ATOM     24  N   UNL     1      33.687 -23.260 -14.966  0.00  0.00    -0.233 N 
ATOM     25  C   UNL     1      32.617 -22.329 -17.005  0.00  0.00    +0.108 C 
ATOM     26  C   UNL     1      33.868 -22.681 -16.251  0.00  0.00    +0.261 C 
ATOM     27  C   UNL     1      32.400 -23.537 -14.506  0.00  0.00    +0.072 C 
ATOM     28  C   UNL     1      31.415 -22.618 -16.493  0.00  0.00    +0.010 C 
ATOM     29  C   UNL     1      31.301 -23.249 -15.211  0.00  0.00    +0.017 C 
BRANCH  24  31
ATOM     30  F   UNL     1      38.132 -24.494 -11.829  0.00  0.00    -0.204 F 
ATOM     31  C   UNL     1      34.843 -23.581 -14.151  0.00  0.00    +0.059 C 
ATOM     32  C   UNL     1      35.350 -22.636 -13.258  0.00  0.00    +0.018 C 
ATOM     33  C   UNL     1      35.447 -24.834 -14.259  0.00  0.00    +0.018 C 
ATOM     34  C   UNL     1      36.461 -22.945 -12.473  0.00  0.00    +0.031 C 
ATOM     35  C   UNL     1      36.558 -25.143 -13.474  0.00  0.00    +0.031 C 
ATOM     36  C   UNL     1      37.065 -24.199 -12.581  0.00  0.00    +0.140 C 
ENDBRANCH  24  31
ENDBRANCH   3  25
TORSDOF 5
ENDMDL
MODEL 4
REMARK VINA RESULT:     -13.1      3.930      7.173
REMARK  Name = 21081761
REMARK  5 active torsions:
REMARK  status: ('A' for Active; 'I' for Inactive)
REMARK    1  A    between atoms: N_2  and  C_6
REMARK    2  A    between atoms: C_3  and  C_25
REMARK    3  A    between atoms: C_7  and  O_12
REMARK    4  A    between atoms: O_12  and  C_16
REMARK    5  A    between atoms: N_24  and  C_31
REMARK                            x       y       z     vdW  Elec       q    Type
REMARK                         _______ _______ _______ _____ _____    ______ ____
ROOT
ATOM      1  O   UNL     1      32.935 -11.825 -25.174  0.00  0.00    -0.270 OA
ATOM      2  N   UNL     1      33.550 -12.218 -22.930  0.00  0.00    -0.280 N 
ATOM      3  C   UNL     1      33.252 -11.444 -24.054  0.00  0.00    +0.254 C 
ATOM      4  H   UNL     1      33.786 -11.722 -22.113  0.00  0.00    +0.155 HD
ENDROOT
BRANCH   2   6
ATOM      5  F   UNL     1      33.039 -16.535 -24.924  0.00  0.00    -0.201 F 
ATOM      6  C   UNL     1      33.555 -13.609 -22.825  0.00  0.00    +0.053 C 
ATOM      7  C   UNL     1      33.561 -16.391 -22.614  0.00  0.00    +0.173 C 
ATOM      8  C   UNL     1      33.290 -14.395 -23.947  0.00  0.00    +0.047 C 
ATOM      9  C   UNL     1      33.824 -14.215 -21.597  0.00  0.00    +0.018 C 
ATOM     10  C   UNL     1      33.293 -15.786 -23.842  0.00  0.00    +0.176 C 
ATOM     11  C   UNL     1      33.826 -15.606 -21.492  0.00  0.00    +0.041 C 
BRANCH   7  12
ATOM     12  O   UNL     1      33.563 -17.769 -22.508  0.00  0.00    -0.451 OA
BRANCH  12  16
ATOM     13  N   UNL     1      34.251 -20.620 -18.893  0.00  0.00    -0.297 N 
ATOM     14  N   UNL     1      36.212 -19.476 -19.697  0.00  0.00    -0.229 NA
ATOM     15  C   UNL     1      33.954 -19.245 -20.627  0.00  0.00    +0.067 C 
ATOM     16  C   UNL     1      34.407 -18.330 -21.592  0.00  0.00    +0.150 C 
ATOM     17  C   UNL     1      34.896 -19.757 -19.740  0.00  0.00    +0.135 C 
ATOM     18  C   UNL     1      32.706 -19.830 -20.285  0.00  0.00    +0.022 C 
ATOM     19  C   UNL     1      32.919 -20.671 -19.215  0.00  0.00    +0.063 C 
ATOM     20  C   UNL     1      35.762 -18.003 -21.593  0.00  0.00    +0.058 C 
ATOM     21  C   UNL     1      36.592 -18.590 -20.647  0.00  0.00    +0.103 C 
ATOM     22  H   UNL     1      34.678 -21.126 -18.163  0.00  0.00    +0.154 HD
ENDBRANCH  12  16
ENDBRANCH   7  12
ENDBRANCH   2   6
BRANCH   3  25
ATOM     23  O   UNL     1      31.618  -9.969 -22.210  0.00  0.00    -0.269 OA
ATOM     24  N   UNL     1      32.735  -7.919 -22.586  0.00  0.00    -0.233 N 
ATOM     25  C   UNL     1      33.351 -10.005 -23.785  0.00  0.00    +0.108 C 
ATOM     26  C   UNL     1      32.491  -9.306 -22.770  0.00  0.00    +0.261 C 
ATOM     27  C   UNL     1      33.680  -7.269 -23.382  0.00  0.00    +0.072 C 
ATOM     28  C   UNL     1      34.243  -9.314 -24.505  0.00  0.00    +0.010 C 
ATOM     29  C   UNL     1      34.407  -7.905 -24.306  0.00  0.00    +0.017 C 
BRANCH  24  31
ATOM     30  F   UNL     1      29.850  -5.080 -18.746  0.00  0.00    -0.204 F 
ATOM     31  C   UNL     1      31.985  -7.181 -21.588  0.00  0.00    +0.059 C 
ATOM     32  C   UNL     1      32.408  -7.179 -20.258  0.00  0.00    +0.018 C 
ATOM     33  C   UNL     1      30.841  -6.473 -21.957  0.00  0.00    +0.018 C 
ATOM     34  C   UNL     1      31.687  -6.468 -19.298  0.00  0.00    +0.031 C 
ATOM     35  C   UNL     1      30.120  -5.763 -20.998  0.00  0.00    +0.031 C 
ATOM     36  C   UNL     1      30.543  -5.760 -19.668  0.00  0.00    +0.140 C 
ENDBRANCH  24  31
ENDBRANCH   3  25
TORSDOF 5
ENDMDL
MODEL 5
REMARK VINA RESULT:     -13.1      2.140      3.216
REMARK  Name = 21081761
REMARK  5 active torsions:
REMARK  status: ('A' for Active; 'I' for Inactive)
REMARK    1  A    between atoms: N_2  and  C_6
REMARK    2  A    between atoms: C_3  and  C_25
REMARK    3  A    between atoms: C_7  and  O_12
REMARK    4  A    between atoms: O_12  and  C_16
REMARK    5  A    between atoms: N_24  and  C_31
REMARK                            x       y       z     vdW  Elec       q    Type
REMARK                         _______ _______ _______ _____ _____    ______ ____
ROOT
ATOM      1  O   UNL     1      35.782 -19.359 -19.735  0.00  0.00    -0.270 OA
ATOM      2  N   UNL     1      33.614 -20.289 -19.720  0.00  0.00    -0.280 N 
ATOM      3  C   UNL     1      34.654 -19.487 -20.195  0.00  0.00    +0.254 C 
ATOM      4  H   UNL     1      32.773 -20.255 -20.232  0.00  0.00    +0.155 HD
ENDROOT
BRANCH   2   6
ATOM      5  F   UNL     1      31.276 -23.017 -16.563  0.00  0.00    -0.201 F 
ATOM      6  C   UNL     1      33.620 -21.132 -18.609  0.00  0.00    +0.053 C 
ATOM      7  C   UNL     1      33.634 -22.817 -16.386  0.00  0.00    +0.173 C 
ATOM      8  C   UNL     1      32.423 -21.665 -18.130  0.00  0.00    +0.047 C 
ATOM      9  C   UNL     1      34.824 -21.444 -17.977  0.00  0.00    +0.018 C 
ATOM     10  C   UNL     1      32.430 -22.508 -17.018  0.00  0.00    +0.176 C 
ATOM     11  C   UNL     1      34.831 -22.285 -16.865  0.00  0.00    +0.041 C 
BRANCH   7  12
ATOM     12  O   UNL     1      33.641 -23.651 -15.284  0.00  0.00    -0.451 OA
BRANCH  12  16
ATOM     13  N   UNL     1      37.173 -25.843 -13.186  0.00  0.00    -0.297 N 
ATOM     14  N   UNL     1      37.024 -23.477 -12.761  0.00  0.00    -0.229 NA
ATOM     15  C   UNL     1      35.489 -24.762 -14.178  0.00  0.00    +0.067 C 
ATOM     16  C   UNL     1      34.738 -23.612 -14.470  0.00  0.00    +0.150 C 
ATOM     17  C   UNL     1      36.588 -24.613 -13.337  0.00  0.00    +0.135 C 
ATOM     18  C   UNL     1      35.426 -26.136 -14.533  0.00  0.00    +0.022 C 
ATOM     19  C   UNL     1      36.474 -26.776 -13.908  0.00  0.00    +0.063 C 
ATOM     20  C   UNL     1      35.146 -22.407 -13.899  0.00  0.00    +0.058 C 
ATOM     21  C   UNL     1      36.264 -22.402 -13.076  0.00  0.00    +0.103 C 
ATOM     22  H   UNL     1      37.972 -26.029 -12.641  0.00  0.00    +0.154 HD
ENDBRANCH  12  16
ENDBRANCH   7  12
ENDBRANCH   2   6
BRANCH   3  25
ATOM     23  O   UNL     1      34.093 -16.673 -20.298  0.00  0.00    -0.269 OA
ATOM     24  N   UNL     1      33.733 -16.651 -22.635  0.00  0.00    -0.233 N 
ATOM     25  C   UNL     1      34.278 -18.733 -21.396  0.00  0.00    +0.108 C 
ATOM     26  C   UNL     1      34.043 -17.249 -21.385  0.00  0.00    +0.261 C 
ATOM     27  C   UNL     1      33.588 -17.451 -23.769  0.00  0.00    +0.072 C 
ATOM     28  C   UNL     1      34.129 -19.432 -22.527  0.00  0.00    +0.010 C 
ATOM     29  C   UNL     1      33.765 -18.776 -23.748  0.00  0.00    +0.017 C 
BRANCH  24  31
ATOM     30  F   UNL     1      33.004 -11.130 -22.965  0.00  0.00    -0.204 F 
ATOM     31  C   UNL     1      33.543 -15.216 -22.720  0.00  0.00    +0.059 C 
ATOM     32  C   UNL     1      33.161 -14.634 -23.929  0.00  0.00    +0.018 C 
ATOM     33  C   UNL     1      33.743 -14.417 -21.594  0.00  0.00    +0.018 C 
ATOM     34  C   UNL     1      32.978 -13.253 -24.012  0.00  0.00    +0.031 C 
ATOM     35  C   UNL     1      33.561 -13.037 -21.676  0.00  0.00    +0.031 C 
ATOM     36  C   UNL     1      33.178 -12.455 -22.885  0.00  0.00    +0.140 C 
ENDBRANCH  24  31
ENDBRANCH   3  25
TORSDOF 5
ENDMDL
MODEL 6
REMARK VINA RESULT:     -12.8      5.571     13.425
REMARK  Name = 21081761
REMARK  5 active torsions:
REMARK  status: ('A' for Active; 'I' for Inactive)
REMARK    1  A    between atoms: N_2  and  C_6
REMARK    2  A    between atoms: C_3  and  C_25
REMARK    3  A    between atoms: C_7  and  O_12
REMARK    4  A    between atoms: O_12  and  C_16
REMARK    5  A    between atoms: N_24  and  C_31
REMARK                            x       y       z     vdW  Elec       q    Type
REMARK                         _______ _______ _______ _____ _____    ______ ____
ROOT
ATOM      1  O   UNL     1      32.291 -11.451 -22.014  0.00  0.00    -0.270 OA
ATOM      2  N   UNL     1      33.024 -10.686 -24.122  0.00  0.00    -0.280 N 
ATOM      3  C   UNL     1      32.676 -11.638 -23.161  0.00  0.00    +0.254 C 
ATOM      4  H   UNL     1      33.313 -11.037 -24.995  0.00  0.00    +0.155 HD
ENDROOT
BRANCH   2   6
ATOM      5  F   UNL     1      34.944  -6.656 -22.407  0.00  0.00    -0.201 F 
ATOM      6  C   UNL     1      33.011  -9.297 -23.995  0.00  0.00    +0.053 C 
ATOM      7  C   UNL     1      32.985  -6.519 -23.739  0.00  0.00    +0.173 C 
ATOM      8  C   UNL     1      34.002  -8.655 -23.250  0.00  0.00    +0.047 C 
ATOM      9  C   UNL     1      32.009  -8.549 -24.612  0.00  0.00    +0.018 C 
ATOM     10  C   UNL     1      33.989  -7.266 -23.122  0.00  0.00    +0.176 C 
ATOM     11  C   UNL     1      31.995  -7.160 -24.483  0.00  0.00    +0.041 C 
BRANCH   7  12
ATOM     12  O   UNL     1      32.971  -5.143 -23.611  0.00  0.00    -0.451 OA
BRANCH  12  16
ATOM     13  N   UNL     1      29.648  -4.448 -20.425  0.00  0.00    -0.297 N 
ATOM     14  N   UNL     1      29.329  -3.304 -22.520  0.00  0.00    -0.229 NA
ATOM     15  C   UNL     1      31.225  -4.761 -21.975  0.00  0.00    +0.067 C 
ATOM     16  C   UNL     1      31.794  -4.555 -23.242  0.00  0.00    +0.150 C 
ATOM     17  C   UNL     1      30.023  -4.115 -21.700  0.00  0.00    +0.135 C 
ATOM     18  C   UNL     1      31.569  -5.502 -20.813  0.00  0.00    +0.022 C 
ATOM     19  C   UNL     1      30.581  -5.291 -19.877  0.00  0.00    +0.063 C 
ATOM     20  C   UNL     1      31.116  -3.723 -24.132  0.00  0.00    +0.058 C 
ATOM     21  C   UNL     1      29.922  -3.142 -23.726  0.00  0.00    +0.103 C 
ATOM     22  H   UNL     1      28.834  -4.130 -19.971  0.00  0.00    +0.154 HD
ENDBRANCH  12  16
ENDBRANCH   7  12
ENDBRANCH   2   6
BRANCH   3  25
ATOM     23  O   UNL     1      33.723 -13.860 -21.674  0.00  0.00    -0.269 OA
ATOM     24  N   UNL     1      33.358 -15.422 -23.412  0.00  0.00    -0.233 N 
ATOM     25  C   UNL     1      32.813 -13.012 -23.658  0.00  0.00    +0.108 C 
ATOM     26  C   UNL     1      33.328 -14.137 -22.807  0.00  0.00    +0.261 C 
ATOM     27  C   UNL     1      32.992 -15.566 -24.751  0.00  0.00    +0.072 C 
ATOM     28  C   UNL     1      32.472 -13.230 -24.934  0.00  0.00    +0.010 C 
ATOM     29  C   UNL     1      32.573 -14.543 -25.501  0.00  0.00    +0.017 C 
BRANCH  24  31
ATOM     30  F   UNL     1      35.025 -19.845 -20.448  0.00  0.00    -0.204 F 
ATOM     31  C   UNL     1      33.791 -16.572 -22.642  0.00  0.00    +0.059 C 
ATOM     32  C   UNL     1      34.194 -16.411 -21.316  0.00  0.00    +0.018 C 
ATOM     33  C   UNL     1      33.805 -17.839 -23.227  0.00  0.00    +0.018 C 
ATOM     34  C   UNL     1      34.610 -17.517 -20.575  0.00  0.00    +0.031 C 
ATOM     35  C   UNL     1      34.221 -18.945 -22.486  0.00  0.00    +0.031 C 
ATOM     36  C   UNL     1      34.624 -18.784 -21.160  0.00  0.00    +0.140 C 
ENDBRANCH  24  31
ENDBRANCH   3  25
TORSDOF 5
ENDMDL
MODEL 7
REMARK VINA RESULT:     -12.8      3.997      6.848
REMARK  Name = 21081761
REMARK  5 active torsions:
REMARK  status: ('A' for Active; 'I' for Inactive)
REMARK    1  A    between atoms: N_2  and  C_6
REMARK    2  A    between atoms: C_3  and  C_25
REMARK    3  A    between atoms: C_7  and  O_12
REMARK    4  A    between atoms: O_12  and  C_16
REMARK    5  A    between atoms: N_24  and  C_31
REMARK                            x       y       z     vdW  Elec       q    Type
REMARK                         _______ _______ _______ _____ _____    ______ ____
ROOT
ATOM      1  O   UNL     1      30.549 -13.123 -19.858  0.00  0.00    -0.270 OA
ATOM      2  N   UNL     1      32.668 -12.672 -20.793  0.00  0.00    -0.280 N 
ATOM      3  C   UNL     1      31.441 -12.358 -20.204  0.00  0.00    +0.254 C 
ATOM      4  H   UNL     1      33.256 -11.910 -21.001  0.00  0.00    +0.155 HD
ENDROOT
BRANCH   2   6
ATOM      5  F   UNL     1      34.032 -15.871 -24.075  0.00  0.00    -0.201 F 
ATOM      6  C   UNL     1      33.162 -13.934 -21.122  0.00  0.00    +0.053 C 
ATOM      7  C   UNL     1      34.150 -16.459 -21.780  0.00  0.00    +0.173 C 
ATOM      8  C   UNL     1      33.355 -14.281 -22.459  0.00  0.00    +0.047 C 
ATOM      9  C   UNL     1      33.465 -14.849 -20.113  0.00  0.00    +0.018 C 
ATOM     10  C   UNL     1      33.848 -15.544 -22.789  0.00  0.00    +0.176 C 
ATOM     11  C   UNL     1      33.957 -16.112 -20.442  0.00  0.00    +0.041 C 
BRANCH   7  12
ATOM     12  O   UNL     1      34.638 -17.710 -22.105  0.00  0.00    -0.451 OA
BRANCH  12  16
ATOM     13  N   UNL     1      33.126 -20.848 -19.016  0.00  0.00    -0.297 N 
ATOM     14  N   UNL     1      35.484 -20.365 -18.932  0.00  0.00    -0.229 NA
ATOM     15  C   UNL     1      33.883 -19.347 -20.485  0.00  0.00    +0.067 C 
ATOM     16  C   UNL     1      34.895 -18.574 -21.078  0.00  0.00    +0.150 C 
ATOM     17  C   UNL     1      34.251 -20.195 -19.446  0.00  0.00    +0.135 C 
ATOM     18  C   UNL     1      32.484 -19.508 -20.672  0.00  0.00    +0.022 C 
ATOM     19  C   UNL     1      32.046 -20.438 -19.754  0.00  0.00    +0.063 C 
ATOM     20  C   UNL     1      36.191 -18.712 -20.585  0.00  0.00    +0.058 C 
ATOM     21  C   UNL     1      36.418 -19.597 -19.540  0.00  0.00    +0.103 C 
ATOM     22  H   UNL     1      33.096 -21.511 -18.288  0.00  0.00    +0.154 HD
ENDBRANCH  12  16
ENDBRANCH   7  12
ENDBRANCH   2   6
BRANCH   3  25
ATOM     23  O   UNL     1      31.947 -10.325 -22.168  0.00  0.00    -0.269 OA
ATOM     24  N   UNL     1      31.250  -8.551 -20.769  0.00  0.00    -0.233 N 
ATOM     25  C   UNL     1      31.267 -10.915 -20.006  0.00  0.00    +0.108 C 
ATOM     26  C   UNL     1      31.507  -9.909 -21.096  0.00  0.00    +0.261 C 
ATOM     27  C   UNL     1      30.870  -8.212 -19.470  0.00  0.00    +0.072 C 
ATOM     28  C   UNL     1      30.894 -10.512 -18.786  0.00  0.00    +0.010 C 
ATOM     29  C   UNL     1      30.699  -9.121 -18.505  0.00  0.00    +0.017 C 
BRANCH  24  31
ATOM     30  F   UNL     1      31.853  -4.596 -24.657  0.00  0.00    -0.204 F 
ATOM     31  C   UNL     1      31.407  -7.523 -21.780  0.00  0.00    +0.059 C 
ATOM     32  C   UNL     1      30.323  -7.162 -22.580  0.00  0.00    +0.018 C 
ATOM     33  C   UNL     1      32.641  -6.896 -21.951  0.00  0.00    +0.018 C 
ATOM     34  C   UNL     1      30.474  -6.173 -23.552  0.00  0.00    +0.031 C 
ATOM     35  C   UNL     1      32.792  -5.907 -22.922  0.00  0.00    +0.031 C 
ATOM     36  C   UNL     1      31.708  -5.545 -23.723  0.00  0.00    +0.140 C 
ENDBRANCH  24  31
ENDBRANCH   3  25
TORSDOF 5
ENDMDL
MODEL 8
REMARK VINA RESULT:     -12.8      4.265     12.643
REMARK  Name = 21081761
REMARK  5 active torsions:
REMARK  status: ('A' for Active; 'I' for Inactive)
REMARK    1  A    between atoms: N_2  and  C_6
REMARK    2  A    between atoms: C_3  and  C_25
REMARK    3  A    between atoms: C_7  and  O_12
REMARK    4  A    between atoms: O_12  and  C_16
REMARK    5  A    between atoms: N_24  and  C_31
REMARK                            x       y       z     vdW  Elec       q    Type
REMARK                         _______ _______ _______ _____ _____    ______ ____
ROOT
ATOM      1  O   UNL     1      32.585 -13.244 -20.988  0.00  0.00    -0.270 OA
ATOM      2  N   UNL     1      33.335 -12.490 -23.094  0.00  0.00    -0.280 N 
ATOM      3  C   UNL     1      33.070 -13.431 -22.097  0.00  0.00    +0.254 C 
ATOM      4  H   UNL     1      33.732 -12.839 -23.925  0.00  0.00    +0.155 HD
ENDROOT
BRANCH   2   6
ATOM      5  F   UNL     1      34.581  -8.037 -24.317  0.00  0.00    -0.201 F 
ATOM      6  C   UNL     1      33.106 -11.114 -23.057  0.00  0.00    +0.053 C 
ATOM      7  C   UNL     1      32.648  -8.363 -22.979  0.00  0.00    +0.173 C 
ATOM      8  C   UNL     1      33.973 -10.243 -23.717  0.00  0.00    +0.047 C 
ATOM      9  C   UNL     1      32.009 -10.609 -22.358  0.00  0.00    +0.018 C 
ATOM     10  C   UNL     1      33.745  -8.868 -23.679  0.00  0.00    +0.176 C 
ATOM     11  C   UNL     1      31.781  -9.233 -22.318  0.00  0.00    +0.041 C 
BRANCH   7  12
ATOM     12  O   UNL     1      32.422  -7.000 -22.940  0.00  0.00    -0.451 OA
BRANCH  12  16
ATOM     13  N   UNL     1      29.905  -3.829 -20.642  0.00  0.00    -0.297 N 
ATOM     14  N   UNL     1      31.117  -5.387 -19.262  0.00  0.00    -0.229 NA
ATOM     15  C   UNL     1      31.122  -5.363 -21.714  0.00  0.00    +0.067 C 
ATOM     16  C   UNL     1      31.990  -6.467 -21.758  0.00  0.00    +0.150 C 
ATOM     17  C   UNL     1      30.743  -4.897 -20.459  0.00  0.00    +0.135 C 
ATOM     18  C   UNL     1      30.481  -4.533 -22.672  0.00  0.00    +0.022 C 
ATOM     19  C   UNL     1      29.739  -3.599 -21.983  0.00  0.00    +0.063 C 
ATOM     20  C   UNL     1      32.408  -7.014 -20.546  0.00  0.00    +0.058 C 
ATOM     21  C   UNL     1      31.952  -6.447 -19.364  0.00  0.00    +0.103 C 
ATOM     22  H   UNL     1      29.485  -3.305 -19.921  0.00  0.00    +0.154 HD
ENDBRANCH  12  16
ENDBRANCH   7  12
ENDBRANCH   2   6
BRANCH   3  25
ATOM     23  O   UNL     1      33.966 -15.508 -20.329  0.00  0.00    -0.269 OA
ATOM     24  N   UNL     1      34.149 -17.129 -22.041  0.00  0.00    -0.233 N 
ATOM     25  C   UNL     1      33.445 -14.792 -22.497  0.00  0.00    +0.108 C 
ATOM     26  C   UNL     1      33.862 -15.844 -21.509  0.00  0.00    +0.261 C 
ATOM     27  C   UNL     1      34.106 -17.334 -23.421  0.00  0.00    +0.072 C 
ATOM     28  C   UNL     1      33.420 -15.066 -23.807  0.00  0.00    +0.010 C 
ATOM     29  C   UNL     1      33.769 -16.371 -24.285  0.00  0.00    +0.017 C 
BRANCH  24  31
ATOM     30  F   UNL     1      35.529 -21.307 -18.611  0.00  0.00    -0.204 F 
ATOM     31  C   UNL     1      34.508 -18.216 -21.150  0.00  0.00    +0.059 C 
ATOM     32  C   UNL     1      35.827 -18.357 -20.718  0.00  0.00    +0.018 C 
ATOM     33  C   UNL     1      33.533 -19.118 -20.723  0.00  0.00    +0.018 C 
ATOM     34  C   UNL     1      36.172 -19.401 -19.860  0.00  0.00    +0.031 C 
ATOM     35  C   UNL     1      33.878 -20.162 -19.865  0.00  0.00    +0.031 C 
ATOM     36  C   UNL     1      35.197 -20.304 -19.433  0.00  0.00    +0.140 C 
ENDBRANCH  24  31
ENDBRANCH   3  25
TORSDOF 5
ENDMDL
MODEL 9
REMARK VINA RESULT:     -12.7      4.522     13.271
REMARK  Name = 21081761
REMARK  5 active torsions:
REMARK  status: ('A' for Active; 'I' for Inactive)
REMARK    1  A    between atoms: N_2  and  C_6
REMARK    2  A    between atoms: C_3  and  C_25
REMARK    3  A    between atoms: C_7  and  O_12
REMARK    4  A    between atoms: O_12  and  C_16
REMARK    5  A    between atoms: N_24  and  C_31
REMARK                            x       y       z     vdW  Elec       q    Type
REMARK                         _______ _______ _______ _____ _____    ______ ____
ROOT
ATOM      1  O   UNL     1      32.297 -12.812 -21.413  0.00  0.00    -0.270 OA
ATOM      2  N   UNL     1      33.423 -12.093 -23.358  0.00  0.00    -0.280 N 
ATOM      3  C   UNL     1      32.922 -13.024 -22.445  0.00  0.00    +0.254 C 
ATOM      4  H   UNL     1      33.904 -12.463 -24.133  0.00  0.00    +0.155 HD
ENDROOT
BRANCH   2   6
ATOM      5  F   UNL     1      31.207  -8.143 -21.823  0.00  0.00    -0.201 F 
ATOM      6  C   UNL     1      33.324 -10.702 -23.305  0.00  0.00    +0.053 C 
ATOM      7  C   UNL     1      33.125  -7.922 -23.202  0.00  0.00    +0.173 C 
ATOM      8  C   UNL     1      32.296 -10.102 -22.577  0.00  0.00    +0.047 C 
ATOM      9  C   UNL     1      34.253  -9.911 -23.981  0.00  0.00    +0.018 C 
ATOM     10  C   UNL     1      32.196  -8.712 -22.526  0.00  0.00    +0.176 C 
ATOM     11  C   UNL     1      34.153  -8.521 -23.931  0.00  0.00    +0.041 C 
BRANCH   7  12
ATOM     12  O   UNL     1      33.026  -6.544 -23.153  0.00  0.00    -0.451 OA
BRANCH  12  16
ATOM     13  N   UNL     1      29.401  -3.622 -23.130  0.00  0.00    -0.297 N 
ATOM     14  N   UNL     1      29.788  -4.777 -25.208  0.00  0.00    -0.229 NA
ATOM     15  C   UNL     1      31.133  -5.031 -23.174  0.00  0.00    +0.067 C 
ATOM     16  C   UNL     1      31.975  -5.963 -23.804  0.00  0.00    +0.150 C 
ATOM     17  C   UNL     1      30.091  -4.499 -23.926  0.00  0.00    +0.135 C 
ATOM     18  C   UNL     1      31.051  -4.443 -21.883  0.00  0.00    +0.022 C 
ATOM     19  C   UNL     1      29.977  -3.581 -21.886  0.00  0.00    +0.063 C 
ATOM     20  C   UNL     1      31.707  -6.287 -25.133  0.00  0.00    +0.058 C 
ATOM     21  C   UNL     1      30.630  -5.679 -25.764  0.00  0.00    +0.103 C 
ATOM     22  H   UNL     1      28.613  -3.101 -23.408  0.00  0.00    +0.154 HD
ENDBRANCH  12  16
ENDBRANCH   7  12
ENDBRANCH   2   6
BRANCH   3  25
ATOM     23  O   UNL     1      33.995 -15.053 -20.720  0.00  0.00    -0.269 OA
ATOM     24  N   UNL     1      33.934 -16.741 -22.376  0.00  0.00    -0.233 N 
ATOM     25  C   UNL     1      33.220 -14.407 -22.834  0.00  0.00    +0.108 C 
ATOM     26  C   UNL     1      33.739 -15.430 -21.864  0.00  0.00    +0.261 C 
ATOM     27  C   UNL     1      33.716 -16.995 -23.730  0.00  0.00    +0.072 C 
ATOM     28  C   UNL     1      33.027 -14.729 -24.118  0.00  0.00    +0.010 C 
ATOM     29  C   UNL     1      33.291 -16.058 -24.583  0.00  0.00    +0.017 C 
BRANCH  24  31
ATOM     30  F   UNL     1      35.656 -20.819 -18.980  0.00  0.00    -0.204 F 
ATOM     31  C   UNL     1      34.382 -17.801 -21.493  0.00  0.00    +0.059 C 
ATOM     32  C   UNL     1      33.468 -18.737 -21.009  0.00  0.00    +0.018 C 
ATOM     33  C   UNL     1      35.726 -17.884 -21.129  0.00  0.00    +0.018 C 
ATOM     34  C   UNL     1      33.899 -19.757 -20.161  0.00  0.00    +0.031 C 
ATOM     35  C   UNL     1      36.157 -18.903 -20.280  0.00  0.00    +0.031 C 
ATOM     36  C   UNL     1      35.244 -19.840 -19.796  0.00  0.00    +0.140 C 
ENDBRANCH  24  31
ENDBRANCH   3  25
TORSDOF 5
ENDMDL
