MODEL 1
REMARK VINA RESULT:     -12.5      0.000      0.000
REMARK  Name = 448384
REMARK  11 active torsions:
REMARK  status: ('A' for Active; 'I' for Inactive)
REMARK    1  A    between atoms: C_1  and  C_3
REMARK    2  A    between atoms: C_1  and  C_6
REMARK    3  A    between atoms: C_1  and  C_19
REMARK    4  A    between atoms: C_3  and  O_4
REMARK    5  A    between atoms: C_6  and  C_7
REMARK    6  A    between atoms: C_7  and  N_10
REMARK    7  A    between atoms: C_19  and  C_21
REMARK    8  A    between atoms: C_21  and  C_22
REMARK    9  A    between atoms: C_25  and  C_28
REMARK   10  A    between atoms: C_33  and  O_34
REMARK   11  A    between atoms: O_34  and  C_35
REMARK                            x       y       z     vdW  Elec       q    Type
REMARK                         _______ _______ _______ _____ _____    ______ ____
ROOT
ATOM      1  C   UNL     1      31.365 -22.461 -15.522  0.00  0.00    +0.108 C 
ENDROOT
BRANCH   1   3
ATOM      2  O   UNL     1      29.469 -23.957 -15.220  0.00  0.00    -0.250 OA
ATOM      3  C   UNL     1      29.916 -22.908 -15.668  0.00  0.00    +0.314 C 
BRANCH   3   4
ATOM      4  O   UNL     1      29.155 -22.015 -16.348  0.00  0.00    -0.480 OA
ATOM      5  H   UNL     1      28.759 -21.297 -15.895  0.00  0.00    +0.295 HD
ENDBRANCH   3   4
ENDBRANCH   1   3
BRANCH   1   6
ATOM      6  C   UNL     1      31.881 -22.788 -14.106  0.00  0.00    +0.034 C 
BRANCH   6   7
ATOM      7  C   UNL     1      32.277 -24.252 -13.915  0.00  0.00    +0.102 C 
BRANCH   7  10
ATOM      8  O   UNL     1      34.602 -25.692 -15.101  0.00  0.00    -0.269 OA
ATOM      9  O   UNL     1      33.418 -23.252 -11.345  0.00  0.00    -0.269 OA
ATOM     10  N   UNL     1      33.602 -24.417 -13.388  0.00  0.00    -0.223 N 
ATOM     11  C   UNL     1      34.616 -25.111 -14.032  0.00  0.00    +0.255 C 
ATOM     12  C   UNL     1      34.028 -23.902 -12.173  0.00  0.00    +0.255 C 
ATOM     13  C   UNL     1      35.787 -25.023 -13.160  0.00  0.00    +0.058 C 
ATOM     14  C   UNL     1      35.431 -24.291 -12.036  0.00  0.00    +0.058 C 
ATOM     15  C   UNL     1      37.057 -25.535 -13.326  0.00  0.00    +0.005 C 
ATOM     16  C   UNL     1      36.327 -24.035 -11.019  0.00  0.00    +0.005 C 
ATOM     17  C   UNL     1      37.981 -25.287 -12.308  0.00  0.00    +0.000 C 
ATOM     18  C   UNL     1      37.620 -24.545 -11.165  0.00  0.00    +0.000 C 
ENDBRANCH   7  10
ENDBRANCH   6   7
ENDBRANCH   1   6
BRANCH   1  19
ATOM     19  C   UNL     1      32.210 -23.191 -16.584  0.00  0.00    +0.080 C 
BRANCH  19  21
ATOM     20  O   UNL     1      34.537 -22.665 -16.196  0.00  0.00    -0.291 OA
ATOM     21  C   UNL     1      33.532 -22.490 -16.880  0.00  0.00    +0.174 C 
BRANCH  21  22
ATOM     22  C   UNL     1      33.597 -21.550 -18.037  0.00  0.00    +0.035 C 
ATOM     23  C   UNL     1      34.835 -21.150 -18.543  0.00  0.00    +0.003 C 
ATOM     24  C   UNL     1      32.421 -21.072 -18.614  0.00  0.00    +0.003 C 
ATOM     25  C   UNL     1      33.718 -19.793 -20.201  0.00  0.00    +0.000 C 
ATOM     26  C   UNL     1      34.895 -20.271 -19.624  0.00  0.00    +0.000 C 
ATOM     27  C   UNL     1      32.481 -20.193 -19.696  0.00  0.00    +0.000 C 
BRANCH  25  28
ATOM     28  C   UNL     1      33.780 -18.881 -21.322  0.00  0.00    +0.000 C 
ATOM     29  C   UNL     1      34.262 -17.585 -21.140  0.00  0.00    +0.003 C 
ATOM     30  C   UNL     1      33.355 -19.296 -22.584  0.00  0.00    +0.003 C 
ATOM     31  C   UNL     1      34.320 -16.704 -22.220  0.00  0.00    +0.037 C 
ATOM     32  C   UNL     1      33.413 -18.415 -23.664  0.00  0.00    +0.037 C 
ATOM     33  C   UNL     1      33.895 -17.119 -23.482  0.00  0.00    +0.139 C 
BRANCH  33  34
ATOM     34  O   UNL     1      33.955 -16.260 -24.536  0.00  0.00    -0.475 OA
BRANCH  34  35
ATOM     35  C   UNL     1      33.524 -14.919 -24.306  0.00  0.00    +0.206 C 
ATOM     36  C   UNL     1      32.392 -14.595 -25.258  0.00  0.00    +0.051 C 
ENDBRANCH  34  35
ENDBRANCH  33  34
ENDBRANCH  25  28
ENDBRANCH  21  22
ENDBRANCH  19  21
ENDBRANCH   1  19
TORSDOF 11
ENDMDL
MODEL 2
REMARK VINA RESULT:     -12.3      5.065     13.682
REMARK  Name = 448384
REMARK  11 active torsions:
REMARK  status: ('A' for Active; 'I' for Inactive)
REMARK    1  A    between atoms: C_1  and  C_3
REMARK    2  A    between atoms: C_1  and  C_6
REMARK    3  A    between atoms: C_1  and  C_19
REMARK    4  A    between atoms: C_3  and  O_4
REMARK    5  A    between atoms: C_6  and  C_7
REMARK    6  A    between atoms: C_7  and  N_10
REMARK    7  A    between atoms: C_19  and  C_21
REMARK    8  A    between atoms: C_21  and  C_22
REMARK    9  A    between atoms: C_25  and  C_28
REMARK   10  A    between atoms: C_33  and  O_34
REMARK   11  A    between atoms: O_34  and  C_35
REMARK                            x       y       z     vdW  Elec       q    Type
REMARK                         _______ _______ _______ _____ _____    ______ ____
ROOT
ATOM      1  C   UNL     1      32.842 -13.769 -25.123  0.00  0.00    +0.108 C 
ENDROOT
BRANCH   1   3
ATOM      2  O   UNL     1      31.484 -15.548 -26.080  0.00  0.00    -0.250 OA
ATOM      3  C   UNL     1      31.649 -14.353 -25.867  0.00  0.00    +0.314 C 
BRANCH   3   4
ATOM      4  O   UNL     1      30.766 -13.406 -26.272  0.00  0.00    -0.480 OA
ATOM      5  H   UNL     1      30.241 -12.955 -25.641  0.00  0.00    +0.295 HD
ENDBRANCH   3   4
ENDBRANCH   1   3
BRANCH   1   6
ATOM      6  C   UNL     1      32.601 -12.276 -24.820  0.00  0.00    +0.034 C 
BRANCH   6   7
ATOM      7  C   UNL     1      33.286 -11.786 -23.545  0.00  0.00    +0.102 C 
BRANCH   7  10
ATOM      8  O   UNL     1      31.493 -10.166 -21.799  0.00  0.00    -0.269 OA
ATOM      9  O   UNL     1      34.924  -9.675 -24.873  0.00  0.00    -0.269 OA
ATOM     10  N   UNL     1      33.229 -10.361 -23.383  0.00  0.00    -0.223 N 
ATOM     11  C   UNL     1      32.349  -9.708 -22.533  0.00  0.00    +0.255 C 
ATOM     12  C   UNL     1      34.048  -9.466 -24.055  0.00  0.00    +0.255 C 
ATOM     13  C   UNL     1      32.636  -8.280 -22.668  0.00  0.00    +0.058 C 
ATOM     14  C   UNL     1      33.664  -8.134 -23.589  0.00  0.00    +0.058 C 
ATOM     15  C   UNL     1      32.054  -7.195 -22.046  0.00  0.00    +0.005 C 
ATOM     16  C   UNL     1      34.163  -6.896 -23.934  0.00  0.00    +0.005 C 
ATOM     17  C   UNL     1      32.544  -5.930 -22.380  0.00  0.00    +0.000 C 
ATOM     18  C   UNL     1      33.589  -5.781 -23.316  0.00  0.00    +0.000 C 
ENDBRANCH   7  10
ENDBRANCH   6   7
ENDBRANCH   1   6
BRANCH   1  19
ATOM     19  C   UNL     1      33.035 -14.559 -23.814  0.00  0.00    +0.080 C 
BRANCH  19  21
ATOM     20  O   UNL     1      34.675 -15.926 -24.948  0.00  0.00    -0.291 OA
ATOM     21  C   UNL     1      33.930 -15.783 -23.981  0.00  0.00    +0.174 C 
BRANCH  21  22
ATOM     22  C   UNL     1      33.887 -16.847 -22.936  0.00  0.00    +0.035 C 
ATOM     23  C   UNL     1      34.307 -16.565 -21.636  0.00  0.00    +0.003 C 
ATOM     24  C   UNL     1      33.426 -18.123 -23.259  0.00  0.00    +0.003 C 
ATOM     25  C   UNL     1      33.805 -18.836 -20.983  0.00  0.00    +0.000 C 
ATOM     26  C   UNL     1      34.267 -17.560 -20.660  0.00  0.00    +0.000 C 
ATOM     27  C   UNL     1      33.385 -19.118 -22.283  0.00  0.00    +0.000 C 
BRANCH  25  28
ATOM     28  C   UNL     1      33.763 -19.870 -19.970  0.00  0.00    +0.000 C 
ATOM     29  C   UNL     1      34.952 -20.393 -19.460  0.00  0.00    +0.003 C 
ATOM     30  C   UNL     1      32.536 -20.344 -19.507  0.00  0.00    +0.003 C 
ATOM     31  C   UNL     1      34.913 -21.390 -18.486  0.00  0.00    +0.037 C 
ATOM     32  C   UNL     1      32.498 -21.341 -18.532  0.00  0.00    +0.037 C 
ATOM     33  C   UNL     1      33.686 -21.864 -18.022  0.00  0.00    +0.139 C 
BRANCH  33  34
ATOM     34  O   UNL     1      33.649 -22.836 -17.069  0.00  0.00    -0.475 OA
BRANCH  34  35
ATOM     35  C   UNL     1      32.387 -23.095 -16.455  0.00  0.00    +0.206 C 
ATOM     36  C   UNL     1      32.561 -23.089 -14.951  0.00  0.00    +0.051 C 
ENDBRANCH  34  35
ENDBRANCH  33  34
ENDBRANCH  25  28
ENDBRANCH  21  22
ENDBRANCH  19  21
ENDBRANCH   1  19
TORSDOF 11
ENDMDL
MODEL 3
REMARK VINA RESULT:     -12.3      5.078     13.660
REMARK  Name = 448384
REMARK  11 active torsions:
REMARK  status: ('A' for Active; 'I' for Inactive)
REMARK    1  A    between atoms: C_1  and  C_3
REMARK    2  A    between atoms: C_1  and  C_6
REMARK    3  A    between atoms: C_1  and  C_19
REMARK    4  A    between atoms: C_3  and  O_4
REMARK    5  A    between atoms: C_6  and  C_7
REMARK    6  A    between atoms: C_7  and  N_10
REMARK    7  A    between atoms: C_19  and  C_21
REMARK    8  A    between atoms: C_21  and  C_22
REMARK    9  A    between atoms: C_25  and  C_28
REMARK   10  A    between atoms: C_33  and  O_34
REMARK   11  A    between atoms: O_34  and  C_35
REMARK                            x       y       z     vdW  Elec       q    Type
REMARK                         _______ _______ _______ _____ _____    ______ ____
ROOT
ATOM      1  C   UNL     1      32.787 -13.739 -25.152  0.00  0.00    +0.108 C 
ENDROOT
BRANCH   1   3
ATOM      2  O   UNL     1      31.422 -15.480 -26.164  0.00  0.00    -0.250 OA
ATOM      3  C   UNL     1      31.587 -14.294 -25.906  0.00  0.00    +0.314 C 
BRANCH   3   4
ATOM      4  O   UNL     1      30.700 -13.333 -26.267  0.00  0.00    -0.480 OA
ATOM      5  H   UNL     1      30.291 -12.804 -25.610  0.00  0.00    +0.295 HD
ENDBRANCH   3   4
ENDBRANCH   1   3
BRANCH   1   6
ATOM      6  C   UNL     1      32.571 -12.244 -24.836  0.00  0.00    +0.034 C 
BRANCH   6   7
ATOM      7  C   UNL     1      33.279 -11.771 -23.567  0.00  0.00    +0.102 C 
BRANCH   7  10
ATOM      8  O   UNL     1      34.900  -9.664 -24.913  0.00  0.00    -0.269 OA
ATOM      9  O   UNL     1      31.548 -10.152 -21.752  0.00  0.00    -0.269 OA
ATOM     10  N   UNL     1      33.235 -10.347 -23.390  0.00  0.00    -0.223 N 
ATOM     11  C   UNL     1      34.041  -9.452 -24.078  0.00  0.00    +0.255 C 
ATOM     12  C   UNL     1      32.381  -9.696 -22.513  0.00  0.00    +0.255 C 
ATOM     13  C   UNL     1      33.664  -8.120 -23.607  0.00  0.00    +0.058 C 
ATOM     14  C   UNL     1      32.659  -8.267 -22.660  0.00  0.00    +0.058 C 
ATOM     15  C   UNL     1      34.151  -6.880 -23.967  0.00  0.00    +0.005 C 
ATOM     16  C   UNL     1      32.091  -7.183 -22.025  0.00  0.00    +0.005 C 
ATOM     17  C   UNL     1      33.589  -5.767 -23.337  0.00  0.00    +0.000 C 
ATOM     18  C   UNL     1      32.569  -5.917 -22.374  0.00  0.00    +0.000 C 
ENDBRANCH   7  10
ENDBRANCH   6   7
ENDBRANCH   1   6
BRANCH   1  19
ATOM     19  C   UNL     1      32.959 -14.543 -23.848  0.00  0.00    +0.080 C 
BRANCH  19  21
ATOM     20  O   UNL     1      34.660 -15.855 -24.956  0.00  0.00    -0.291 OA
ATOM     21  C   UNL     1      33.893 -15.739 -24.003  0.00  0.00    +0.174 C 
BRANCH  21  22
ATOM     22  C   UNL     1      33.861 -16.809 -22.964  0.00  0.00    +0.035 C 
ATOM     23  C   UNL     1      33.442 -18.096 -23.300  0.00  0.00    +0.003 C 
ATOM     24  C   UNL     1      34.252 -16.521 -21.656  0.00  0.00    +0.003 C 
ATOM     25  C   UNL     1      33.804 -18.808 -21.019  0.00  0.00    +0.000 C 
ATOM     26  C   UNL     1      33.413 -19.095 -22.327  0.00  0.00    +0.000 C 
ATOM     27  C   UNL     1      34.223 -17.521 -20.683  0.00  0.00    +0.000 C 
BRANCH  25  28
ATOM     28  C   UNL     1      33.773 -19.844 -20.010  0.00  0.00    +0.000 C 
ATOM     29  C   UNL     1      32.549 -20.315 -19.532  0.00  0.00    +0.003 C 
ATOM     30  C   UNL     1      34.965 -20.370 -19.512  0.00  0.00    +0.003 C 
ATOM     31  C   UNL     1      32.519 -21.312 -18.557  0.00  0.00    +0.037 C 
ATOM     32  C   UNL     1      34.934 -21.367 -18.538  0.00  0.00    +0.037 C 
ATOM     33  C   UNL     1      33.711 -21.838 -18.060  0.00  0.00    +0.139 C 
BRANCH  33  34
ATOM     34  O   UNL     1      33.680 -22.813 -17.111  0.00  0.00    -0.475 OA
BRANCH  34  35
ATOM     35  C   UNL     1      32.441 -23.022 -16.434  0.00  0.00    +0.206 C 
ATOM     36  C   UNL     1      32.708 -23.163 -14.950  0.00  0.00    +0.051 C 
ENDBRANCH  34  35
ENDBRANCH  33  34
ENDBRANCH  25  28
ENDBRANCH  21  22
ENDBRANCH  19  21
ENDBRANCH   1  19
TORSDOF 11
ENDMDL
MODEL 4
REMARK VINA RESULT:     -11.8      1.898      4.786
REMARK  Name = 448384
REMARK  11 active torsions:
REMARK  status: ('A' for Active; 'I' for Inactive)
REMARK    1  A    between atoms: C_1  and  C_3
REMARK    2  A    between atoms: C_1  and  C_6
REMARK    3  A    between atoms: C_1  and  C_19
REMARK    4  A    between atoms: C_3  and  O_4
REMARK    5  A    between atoms: C_6  and  C_7
REMARK    6  A    between atoms: C_7  and  N_10
REMARK    7  A    between atoms: C_19  and  C_21
REMARK    8  A    between atoms: C_21  and  C_22
REMARK    9  A    between atoms: C_25  and  C_28
REMARK   10  A    between atoms: C_33  and  O_34
REMARK   11  A    between atoms: O_34  and  C_35
REMARK                            x       y       z     vdW  Elec       q    Type
REMARK                         _______ _______ _______ _____ _____    ______ ____
ROOT
ATOM      1  C   UNL     1      35.416 -23.163 -15.395  0.00  0.00    +0.108 C 
ENDROOT
BRANCH   1   3
ATOM      2  O   UNL     1      36.689 -22.439 -13.451  0.00  0.00    -0.250 OA
ATOM      3  C   UNL     1      36.677 -22.802 -14.621  0.00  0.00    +0.314 C 
BRANCH   3   4
ATOM      4  O   UNL     1      37.805 -22.928 -15.363  0.00  0.00    -0.480 OA
ATOM      5  H   UNL     1      38.644 -22.899 -14.947  0.00  0.00    +0.295 HD
ENDBRANCH   3   4
ENDBRANCH   1   3
BRANCH   1   6
ATOM      6  C   UNL     1      34.323 -23.661 -14.427  0.00  0.00    +0.034 C 
BRANCH   6   7
ATOM      7  C   UNL     1      33.261 -22.611 -14.101  0.00  0.00    +0.102 C 
BRANCH   7  10
ATOM      8  O   UNL     1      31.850 -24.493 -12.270  0.00  0.00    -0.269 OA
ATOM      9  O   UNL     1      31.165 -22.059 -16.152  0.00  0.00    -0.269 OA
ATOM     10  N   UNL     1      31.920 -23.117 -14.184  0.00  0.00    -0.223 N 
ATOM     11  C   UNL     1      31.361 -23.994 -13.267  0.00  0.00    +0.255 C 
ATOM     12  C   UNL     1      31.023 -22.787 -15.189  0.00  0.00    +0.255 C 
ATOM     13  C   UNL     1      29.991 -24.237 -13.720  0.00  0.00    +0.058 C 
ATOM     14  C   UNL     1      29.787 -23.507 -14.882  0.00  0.00    +0.058 C 
ATOM     15  C   UNL     1      29.002 -25.027 -13.170  0.00  0.00    +0.005 C 
ATOM     16  C   UNL     1      28.584 -23.530 -15.555  0.00  0.00    +0.005 C 
ATOM     17  C   UNL     1      27.775 -25.065 -13.836  0.00  0.00    +0.000 C 
ATOM     18  C   UNL     1      27.567 -24.324 -15.018  0.00  0.00    +0.000 C 
ENDBRANCH   7  10
ENDBRANCH   6   7
ENDBRANCH   1   6
BRANCH   1  19
ATOM     19  C   UNL     1      34.933 -21.911 -16.153  0.00  0.00    +0.080 C 
BRANCH  19  21
ATOM     20  O   UNL     1      33.512 -23.309 -17.521  0.00  0.00    -0.291 OA
ATOM     21  C   UNL     1      34.115 -22.246 -17.397  0.00  0.00    +0.174 C 
BRANCH  21  22
ATOM     22  C   UNL     1      34.059 -21.246 -18.503  0.00  0.00    +0.035 C 
ATOM     23  C   UNL     1      32.828 -20.862 -19.035  0.00  0.00    +0.003 C 
ATOM     24  C   UNL     1      35.238 -20.696 -19.005  0.00  0.00    +0.003 C 
ATOM     25  C   UNL     1      33.956 -19.377 -20.571  0.00  0.00    +0.000 C 
ATOM     26  C   UNL     1      32.776 -19.928 -20.069  0.00  0.00    +0.000 C 
ATOM     27  C   UNL     1      35.187 -19.761 -20.039  0.00  0.00    +0.000 C 
BRANCH  25  28
ATOM     28  C   UNL     1      33.903 -18.408 -21.645  0.00  0.00    +0.000 C 
ATOM     29  C   UNL     1      33.402 -18.779 -22.893  0.00  0.00    +0.003 C 
ATOM     30  C   UNL     1      34.355 -17.106 -21.433  0.00  0.00    +0.003 C 
ATOM     31  C   UNL     1      33.353 -17.847 -23.929  0.00  0.00    +0.037 C 
ATOM     32  C   UNL     1      34.305 -16.174 -22.469  0.00  0.00    +0.037 C 
ATOM     33  C   UNL     1      33.804 -16.544 -23.717  0.00  0.00    +0.139 C 
BRANCH  33  34
ATOM     34  O   UNL     1      33.753 -15.634 -24.729  0.00  0.00    -0.475 OA
BRANCH  34  35
ATOM     35  C   UNL     1      33.047 -14.420 -24.475  0.00  0.00    +0.206 C 
ATOM     36  C   UNL     1      32.373 -13.966 -25.752  0.00  0.00    +0.051 C 
ENDBRANCH  34  35
ENDBRANCH  33  34
ENDBRANCH  25  28
ENDBRANCH  21  22
ENDBRANCH  19  21
ENDBRANCH   1  19
TORSDOF 11
ENDMDL
MODEL 5
REMARK VINA RESULT:     -11.8      5.346     12.933
REMARK  Name = 448384
REMARK  11 active torsions:
REMARK  status: ('A' for Active; 'I' for Inactive)
REMARK    1  A    between atoms: C_1  and  C_3
REMARK    2  A    between atoms: C_1  and  C_6
REMARK    3  A    between atoms: C_1  and  C_19
REMARK    4  A    between atoms: C_3  and  O_4
REMARK    5  A    between atoms: C_6  and  C_7
REMARK    6  A    between atoms: C_7  and  N_10
REMARK    7  A    between atoms: C_19  and  C_21
REMARK    8  A    between atoms: C_21  and  C_22
REMARK    9  A    between atoms: C_25  and  C_28
REMARK   10  A    between atoms: C_33  and  O_34
REMARK   11  A    between atoms: O_34  and  C_35
REMARK                            x       y       z     vdW  Elec       q    Type
REMARK                         _______ _______ _______ _____ _____    ______ ____
ROOT
ATOM      1  C   UNL     1      33.549 -13.169 -23.309  0.00  0.00    +0.108 C 
ENDROOT
BRANCH   1   3
ATOM      2  O   UNL     1      32.674 -12.250 -25.386  0.00  0.00    -0.250 OA
ATOM      3  C   UNL     1      33.345 -12.099 -24.373  0.00  0.00    +0.314 C 
BRANCH   3   4
ATOM      4  O   UNL     1      33.984 -10.938 -24.082  0.00  0.00    -0.480 OA
ATOM      5  H   UNL     1      33.759 -10.461 -23.308  0.00  0.00    +0.295 HD
ENDBRANCH   3   4
ENDBRANCH   1   3
BRANCH   1   6
ATOM      6  C   UNL     1      32.984 -12.689 -21.957  0.00  0.00    +0.034 C 
BRANCH   6   7
ATOM      7  C   UNL     1      31.563 -12.130 -22.044  0.00  0.00    +0.102 C 
BRANCH   7  10
ATOM      8  O   UNL     1      30.772 -11.678 -19.206  0.00  0.00    -0.269 OA
ATOM      9  O   UNL     1      31.911  -9.339 -23.040  0.00  0.00    -0.269 OA
ATOM     10  N   UNL     1      31.397 -10.891 -21.340  0.00  0.00    -0.223 N 
ATOM     11  C   UNL     1      31.025 -10.796 -20.007  0.00  0.00    +0.255 C 
ATOM     12  C   UNL     1      31.590  -9.640 -21.906  0.00  0.00    +0.255 C 
ATOM     13  C   UNL     1      30.987  -9.368 -19.696  0.00  0.00    +0.058 C 
ATOM     14  C   UNL     1      31.329  -8.668 -20.844  0.00  0.00    +0.058 C 
ATOM     15  C   UNL     1      30.680  -8.725 -18.514  0.00  0.00    +0.005 C 
ATOM     16  C   UNL     1      31.380  -7.291 -20.871  0.00  0.00    +0.005 C 
ATOM     17  C   UNL     1      30.726  -7.329 -18.517  0.00  0.00    +0.000 C 
ATOM     18  C   UNL     1      31.072  -6.618 -19.685  0.00  0.00    +0.000 C 
ENDBRANCH   7  10
ENDBRANCH   6   7
ENDBRANCH   1   6
BRANCH   1  19
ATOM     19  C   UNL     1      32.831 -14.454 -23.766  0.00  0.00    +0.080 C 
BRANCH  19  21
ATOM     20  O   UNL     1      34.538 -15.726 -24.911  0.00  0.00    -0.291 OA
ATOM     21  C   UNL     1      33.780 -15.635 -23.948  0.00  0.00    +0.174 C 
BRANCH  21  22
ATOM     22  C   UNL     1      33.774 -16.719 -22.924  0.00  0.00    +0.035 C 
ATOM     23  C   UNL     1      33.380 -18.011 -23.276  0.00  0.00    +0.003 C 
ATOM     24  C   UNL     1      34.164 -16.442 -21.614  0.00  0.00    +0.003 C 
ATOM     25  C   UNL     1      33.765 -18.746 -21.008  0.00  0.00    +0.000 C 
ATOM     26  C   UNL     1      33.374 -19.024 -22.318  0.00  0.00    +0.000 C 
ATOM     27  C   UNL     1      34.159 -17.456 -20.655  0.00  0.00    +0.000 C 
BRANCH  25  28
ATOM     28  C   UNL     1      33.759 -19.797 -20.013  0.00  0.00    +0.000 C 
ATOM     29  C   UNL     1      32.547 -20.284 -19.521  0.00  0.00    +0.003 C 
ATOM     30  C   UNL     1      34.963 -20.321 -19.543  0.00  0.00    +0.003 C 
ATOM     31  C   UNL     1      32.541 -21.296 -18.561  0.00  0.00    +0.037 C 
ATOM     32  C   UNL     1      34.956 -21.333 -18.583  0.00  0.00    +0.037 C 
ATOM     33  C   UNL     1      33.745 -21.820 -18.092  0.00  0.00    +0.139 C 
BRANCH  33  34
ATOM     34  O   UNL     1      33.738 -22.809 -17.156  0.00  0.00    -0.475 OA
BRANCH  34  35
ATOM     35  C   UNL     1      32.471 -23.179 -16.613  0.00  0.00    +0.206 C 
ATOM     36  C   UNL     1      32.513 -23.014 -15.108  0.00  0.00    +0.051 C 
ENDBRANCH  34  35
ENDBRANCH  33  34
ENDBRANCH  25  28
ENDBRANCH  21  22
ENDBRANCH  19  21
ENDBRANCH   1  19
TORSDOF 11
ENDMDL
MODEL 6
REMARK VINA RESULT:     -11.7      1.873      4.613
REMARK  Name = 448384
REMARK  11 active torsions:
REMARK  status: ('A' for Active; 'I' for Inactive)
REMARK    1  A    between atoms: C_1  and  C_3
REMARK    2  A    between atoms: C_1  and  C_6
REMARK    3  A    between atoms: C_1  and  C_19
REMARK    4  A    between atoms: C_3  and  O_4
REMARK    5  A    between atoms: C_6  and  C_7
REMARK    6  A    between atoms: C_7  and  N_10
REMARK    7  A    between atoms: C_19  and  C_21
REMARK    8  A    between atoms: C_21  and  C_22
REMARK    9  A    between atoms: C_25  and  C_28
REMARK   10  A    between atoms: C_33  and  O_34
REMARK   11  A    between atoms: O_34  and  C_35
REMARK                            x       y       z     vdW  Elec       q    Type
REMARK                         _______ _______ _______ _____ _____    ______ ____
ROOT
ATOM      1  C   UNL     1      33.913 -23.847 -14.589  0.00  0.00    +0.108 C 
ENDROOT
BRANCH   1   3
ATOM      2  O   UNL     1      34.922 -26.060 -14.690  0.00  0.00    -0.250 OA
ATOM      3  C   UNL     1      35.062 -24.843 -14.664  0.00  0.00    +0.314 C 
BRANCH   3   4
ATOM      4  O   UNL     1      36.278 -24.243 -14.705  0.00  0.00    -0.480 OA
ATOM      5  H   UNL     1      36.567 -23.826 -15.493  0.00  0.00    +0.295 HD
ENDBRANCH   3   4
ENDBRANCH   1   3
BRANCH   1   6
ATOM      6  C   UNL     1      33.814 -23.256 -13.168  0.00  0.00    +0.034 C 
BRANCH   6   7
ATOM      7  C   UNL     1      32.568 -23.697 -12.399  0.00  0.00    +0.102 C 
BRANCH   7  10
ATOM      8  O   UNL     1      30.494 -25.767 -12.942  0.00  0.00    -0.269 OA
ATOM      9  O   UNL     1      31.485 -21.338 -13.873  0.00  0.00    -0.269 OA
ATOM     10  N   UNL     1      31.360 -23.586 -13.167  0.00  0.00    -0.223 N 
ATOM     11  C   UNL     1      30.458 -24.622 -13.353  0.00  0.00    +0.255 C 
ATOM     12  C   UNL     1      30.950 -22.429 -13.813  0.00  0.00    +0.255 C 
ATOM     13  C   UNL     1      29.379 -24.079 -14.178  0.00  0.00    +0.058 C 
ATOM     14  C   UNL     1      29.677 -22.752 -14.456  0.00  0.00    +0.058 C 
ATOM     15  C   UNL     1      28.233 -24.684 -14.651  0.00  0.00    +0.005 C 
ATOM     16  C   UNL     1      28.845 -21.963 -15.222  0.00  0.00    +0.005 C 
ATOM     17  C   UNL     1      27.375 -23.903 -15.429  0.00  0.00    +0.000 C 
ATOM     18  C   UNL     1      27.678 -22.555 -15.713  0.00  0.00    +0.000 C 
ENDBRANCH   7  10
ENDBRANCH   6   7
ENDBRANCH   1   6
BRANCH   1  19
ATOM     19  C   UNL     1      34.168 -22.729 -15.619  0.00  0.00    +0.080 C 
BRANCH  19  21
ATOM     20  O   UNL     1      32.491 -23.771 -17.013  0.00  0.00    -0.291 OA
ATOM     21  C   UNL     1      33.296 -22.855 -16.864  0.00  0.00    +0.174 C 
BRANCH  21  22
ATOM     22  C   UNL     1      33.439 -21.833 -17.941  0.00  0.00    +0.035 C 
ATOM     23  C   UNL     1      32.303 -21.254 -18.509  0.00  0.00    +0.003 C 
ATOM     24  C   UNL     1      34.708 -21.454 -18.379  0.00  0.00    +0.003 C 
ATOM     25  C   UNL     1      33.707 -19.920 -19.954  0.00  0.00    +0.000 C 
ATOM     26  C   UNL     1      32.437 -20.298 -19.516  0.00  0.00    +0.000 C 
ATOM     27  C   UNL     1      34.842 -20.498 -19.386  0.00  0.00    +0.000 C 
BRANCH  25  28
ATOM     28  C   UNL     1      33.846 -18.928 -20.999  0.00  0.00    +0.000 C 
ATOM     29  C   UNL     1      34.405 -17.683 -20.707  0.00  0.00    +0.003 C 
ATOM     30  C   UNL     1      33.421 -19.216 -22.296  0.00  0.00    +0.003 C 
ATOM     31  C   UNL     1      34.538 -16.726 -21.713  0.00  0.00    +0.037 C 
ATOM     32  C   UNL     1      33.555 -18.259 -23.301  0.00  0.00    +0.037 C 
ATOM     33  C   UNL     1      34.112 -17.014 -23.010  0.00  0.00    +0.139 C 
BRANCH  33  34
ATOM     34  O   UNL     1      34.246 -16.080 -23.992  0.00  0.00    -0.475 OA
BRANCH  34  35
ATOM     35  C   UNL     1      33.057 -15.418 -24.424  0.00  0.00    +0.206 C 
ATOM     36  C   UNL     1      32.881 -14.147 -23.620  0.00  0.00    +0.051 C 
ENDBRANCH  34  35
ENDBRANCH  33  34
ENDBRANCH  25  28
ENDBRANCH  21  22
ENDBRANCH  19  21
ENDBRANCH   1  19
TORSDOF 11
ENDMDL
MODEL 7
REMARK VINA RESULT:     -11.5      4.887     12.451
REMARK  Name = 448384
REMARK  11 active torsions:
REMARK  status: ('A' for Active; 'I' for Inactive)
REMARK    1  A    between atoms: C_1  and  C_3
REMARK    2  A    between atoms: C_1  and  C_6
REMARK    3  A    between atoms: C_1  and  C_19
REMARK    4  A    between atoms: C_3  and  O_4
REMARK    5  A    between atoms: C_6  and  C_7
REMARK    6  A    between atoms: C_7  and  N_10
REMARK    7  A    between atoms: C_19  and  C_21
REMARK    8  A    between atoms: C_21  and  C_22
REMARK    9  A    between atoms: C_25  and  C_28
REMARK   10  A    between atoms: C_33  and  O_34
REMARK   11  A    between atoms: O_34  and  C_35
REMARK                            x       y       z     vdW  Elec       q    Type
REMARK                         _______ _______ _______ _____ _____    ______ ____
ROOT
ATOM      1  C   UNL     1      33.050 -13.613 -24.506  0.00  0.00    +0.108 C 
ENDROOT
BRANCH   1   3
ATOM      2  O   UNL     1      32.223 -12.104 -26.228  0.00  0.00    -0.250 OA
ATOM      3  C   UNL     1      32.137 -13.178 -25.644  0.00  0.00    +0.314 C 
BRANCH   3   4
ATOM      4  O   UNL     1      31.206 -14.113 -25.960  0.00  0.00    -0.480 OA
ATOM      5  H   UNL     1      31.474 -14.975 -26.209  0.00  0.00    +0.295 HD
ENDBRANCH   3   4
ENDBRANCH   1   3
BRANCH   1   6
ATOM      6  C   UNL     1      32.997 -12.583 -23.360  0.00  0.00    +0.034 C 
BRANCH   6   7
ATOM      7  C   UNL     1      32.015 -12.946 -22.246  0.00  0.00    +0.102 C 
BRANCH   7  10
ATOM      8  O   UNL     1      32.268 -10.027 -22.793  0.00  0.00    -0.269 OA
ATOM      9  O   UNL     1      30.897 -12.961 -19.479  0.00  0.00    -0.269 OA
ATOM     10  N   UNL     1      31.681 -11.837 -21.399  0.00  0.00    -0.223 N 
ATOM     11  C   UNL     1      31.839 -10.507 -21.759  0.00  0.00    +0.255 C 
ATOM     12  C   UNL     1      31.160 -11.961 -20.120  0.00  0.00    +0.255 C 
ATOM     13  C   UNL     1      31.372  -9.719 -20.619  0.00  0.00    +0.058 C 
ATOM     14  C   UNL     1      30.961 -10.598 -19.628  0.00  0.00    +0.058 C 
ATOM     15  C   UNL     1      31.308  -8.350 -20.453  0.00  0.00    +0.005 C 
ATOM     16  C   UNL     1      30.466 -10.155 -18.419  0.00  0.00    +0.005 C 
ATOM     17  C   UNL     1      30.810  -7.879 -19.237  0.00  0.00    +0.000 C 
ATOM     18  C   UNL     1      30.393  -8.772 -18.228  0.00  0.00    +0.000 C 
ENDBRANCH   7  10
ENDBRANCH   6   7
ENDBRANCH   1   6
BRANCH   1  19
ATOM     19  C   UNL     1      32.585 -14.995 -24.008  0.00  0.00    +0.080 C 
BRANCH  19  21
ATOM     20  O   UNL     1      34.547 -16.074 -24.919  0.00  0.00    -0.291 OA
ATOM     21  C   UNL     1      33.693 -16.043 -24.036  0.00  0.00    +0.174 C 
BRANCH  21  22
ATOM     22  C   UNL     1      33.729 -17.072 -22.956  0.00  0.00    +0.035 C 
ATOM     23  C   UNL     1      34.158 -16.725 -21.675  0.00  0.00    +0.003 C 
ATOM     24  C   UNL     1      33.332 -18.381 -23.228  0.00  0.00    +0.003 C 
ATOM     25  C   UNL     1      33.795 -18.996 -20.938  0.00  0.00    +0.000 C 
ATOM     26  C   UNL     1      34.192 -17.687 -20.666  0.00  0.00    +0.000 C 
ATOM     27  C   UNL     1      33.365 -19.344 -22.218  0.00  0.00    +0.000 C 
BRANCH  25  28
ATOM     28  C   UNL     1      33.830 -19.995 -19.891  0.00  0.00    +0.000 C 
ATOM     29  C   UNL     1      32.637 -20.497 -19.367  0.00  0.00    +0.003 C 
ATOM     30  C   UNL     1      35.053 -20.455 -19.405  0.00  0.00    +0.003 C 
ATOM     31  C   UNL     1      32.670 -21.458 -18.357  0.00  0.00    +0.037 C 
ATOM     32  C   UNL     1      35.085 -21.416 -18.395  0.00  0.00    +0.037 C 
ATOM     33  C   UNL     1      33.894 -21.918 -17.871  0.00  0.00    +0.139 C 
BRANCH  33  34
ATOM     34  O   UNL     1      33.925 -22.858 -16.887  0.00  0.00    -0.475 OA
BRANCH  34  35
ATOM     35  C   UNL     1      33.896 -22.389 -15.540  0.00  0.00    +0.206 C 
ATOM     36  C   UNL     1      33.474 -23.526 -14.632  0.00  0.00    +0.051 C 
ENDBRANCH  34  35
ENDBRANCH  33  34
ENDBRANCH  25  28
ENDBRANCH  21  22
ENDBRANCH  19  21
ENDBRANCH   1  19
TORSDOF 11
ENDMDL
MODEL 8
REMARK VINA RESULT:     -11.4      3.109      6.745
REMARK  Name = 448384
REMARK  11 active torsions:
REMARK  status: ('A' for Active; 'I' for Inactive)
REMARK    1  A    between atoms: C_1  and  C_3
REMARK    2  A    between atoms: C_1  and  C_6
REMARK    3  A    between atoms: C_1  and  C_19
REMARK    4  A    between atoms: C_3  and  O_4
REMARK    5  A    between atoms: C_6  and  C_7
REMARK    6  A    between atoms: C_7  and  N_10
REMARK    7  A    between atoms: C_19  and  C_21
REMARK    8  A    between atoms: C_21  and  C_22
REMARK    9  A    between atoms: C_25  and  C_28
REMARK   10  A    between atoms: C_33  and  O_34
REMARK   11  A    between atoms: O_34  and  C_35
REMARK                            x       y       z     vdW  Elec       q    Type
REMARK                         _______ _______ _______ _____ _____    ______ ____
ROOT
ATOM      1  C   UNL     1      35.345 -19.759 -20.311  0.00  0.00    +0.108 C 
ENDROOT
BRANCH   1   3
ATOM      2  O   UNL     1      36.981 -18.306 -21.377  0.00  0.00    -0.250 OA
ATOM      3  C   UNL     1      36.436 -18.697 -20.352  0.00  0.00    +0.314 C 
BRANCH   3   4
ATOM      4  O   UNL     1      36.747 -18.213 -19.124  0.00  0.00    -0.480 OA
ATOM      5  H   UNL     1      36.203 -17.562 -18.726  0.00  0.00    +0.295 HD
ENDBRANCH   3   4
ENDBRANCH   1   3
BRANCH   1   6
ATOM      6  C   UNL     1      35.210 -20.326 -18.883  0.00  0.00    +0.034 C 
BRANCH   6   7
ATOM      7  C   UNL     1      34.767 -21.789 -18.838  0.00  0.00    +0.102 C 
BRANCH   7  10
ATOM      8  O   UNL     1      31.787 -21.825 -18.841  0.00  0.00    -0.269 OA
ATOM      9  O   UNL     1      35.389 -22.494 -16.006  0.00  0.00    -0.269 OA
ATOM     10  N   UNL     1      33.866 -22.075 -17.758  0.00  0.00    -0.223 N 
ATOM     11  C   UNL     1      32.484 -22.065 -17.873  0.00  0.00    +0.255 C 
ATOM     12  C   UNL     1      34.270 -22.397 -16.470  0.00  0.00    +0.255 C 
ATOM     13  C   UNL     1      31.964 -22.419 -16.553  0.00  0.00    +0.058 C 
ATOM     14  C   UNL     1      33.043 -22.620 -15.704  0.00  0.00    +0.058 C 
ATOM     15  C   UNL     1      30.661 -22.555 -16.120  0.00  0.00    +0.005 C 
ATOM     16  C   UNL     1      32.876 -22.966 -14.380  0.00  0.00    +0.005 C 
ATOM     17  C   UNL     1      30.467 -22.906 -14.782  0.00  0.00    +0.000 C 
ATOM     18  C   UNL     1      31.564 -23.109 -13.919  0.00  0.00    +0.000 C 
ENDBRANCH   7  10
ENDBRANCH   6   7
ENDBRANCH   1   6
BRANCH   1  19
ATOM     19  C   UNL     1      34.019 -19.114 -20.760  0.00  0.00    +0.080 C 
BRANCH  19  21
ATOM     20  O   UNL     1      34.171 -19.588 -23.126  0.00  0.00    -0.291 OA
ATOM     21  C   UNL     1      34.004 -18.751 -22.242  0.00  0.00    +0.174 C 
BRANCH  21  22
ATOM     22  C   UNL     1      33.790 -17.325 -22.625  0.00  0.00    +0.035 C 
ATOM     23  C   UNL     1      33.325 -17.007 -23.901  0.00  0.00    +0.003 C 
ATOM     24  C   UNL     1      34.053 -16.309 -21.705  0.00  0.00    +0.003 C 
ATOM     25  C   UNL     1      33.389 -14.658 -23.338  0.00  0.00    +0.000 C 
ATOM     26  C   UNL     1      33.125 -15.674 -24.258  0.00  0.00    +0.000 C 
ATOM     27  C   UNL     1      33.853 -14.976 -22.062  0.00  0.00    +0.000 C 
BRANCH  25  28
ATOM     28  C   UNL     1      33.182 -13.274 -23.708  0.00  0.00    +0.000 C 
ATOM     29  C   UNL     1      32.820 -12.950 -25.016  0.00  0.00    +0.003 C 
ATOM     30  C   UNL     1      33.347 -12.266 -22.759  0.00  0.00    +0.003 C 
ATOM     31  C   UNL     1      32.622 -11.616 -25.374  0.00  0.00    +0.037 C 
ATOM     32  C   UNL     1      33.149 -10.932 -23.118  0.00  0.00    +0.037 C 
ATOM     33  C   UNL     1      32.787 -10.608 -24.425  0.00  0.00    +0.139 C 
BRANCH  33  34
ATOM     34  O   UNL     1      32.591  -9.306 -24.775  0.00  0.00    -0.475 OA
BRANCH  34  35
ATOM     35  C   UNL     1      32.404  -8.370 -23.714  0.00  0.00    +0.206 C 
ATOM     36  C   UNL     1      33.464  -7.294 -23.814  0.00  0.00    +0.051 C 
ENDBRANCH  34  35
ENDBRANCH  33  34
ENDBRANCH  25  28
ENDBRANCH  21  22
ENDBRANCH  19  21
ENDBRANCH   1  19
TORSDOF 11
ENDMDL
MODEL 9
REMARK VINA RESULT:     -11.3      4.118      7.789
REMARK  Name = 448384
REMARK  11 active torsions:
REMARK  status: ('A' for Active; 'I' for Inactive)
REMARK    1  A    between atoms: C_1  and  C_3
REMARK    2  A    between atoms: C_1  and  C_6
REMARK    3  A    between atoms: C_1  and  C_19
REMARK    4  A    between atoms: C_3  and  O_4
REMARK    5  A    between atoms: C_6  and  C_7
REMARK    6  A    between atoms: C_7  and  N_10
REMARK    7  A    between atoms: C_19  and  C_21
REMARK    8  A    between atoms: C_21  and  C_22
REMARK    9  A    between atoms: C_25  and  C_28
REMARK   10  A    between atoms: C_33  and  O_34
REMARK   11  A    between atoms: O_34  and  C_35
REMARK                            x       y       z     vdW  Elec       q    Type
REMARK                         _______ _______ _______ _____ _____    ______ ____
ROOT
ATOM      1  C   UNL     1      34.758 -18.581 -21.023  0.00  0.00    +0.108 C 
ENDROOT
BRANCH   1   3
ATOM      2  O   UNL     1      36.506 -18.639 -19.331  0.00  0.00    -0.250 OA
ATOM      3  C   UNL     1      36.188 -18.510 -20.507  0.00  0.00    +0.314 C 
BRANCH   3   4
ATOM      4  O   UNL     1      37.094 -18.294 -21.493  0.00  0.00    -0.480 OA
ATOM      5  H   UNL     1      37.048 -18.788 -22.288  0.00  0.00    +0.295 HD
ENDBRANCH   3   4
ENDBRANCH   1   3
BRANCH   1   6
ATOM      6  C   UNL     1      33.914 -19.507 -20.123  0.00  0.00    +0.034 C 
BRANCH   6   7
ATOM      7  C   UNL     1      34.609 -20.820 -19.762  0.00  0.00    +0.102 C 
BRANCH   7  10
ATOM      8  O   UNL     1      36.081 -21.451 -17.248  0.00  0.00    -0.269 OA
ATOM      9  O   UNL     1      31.846 -21.737 -19.106  0.00  0.00    -0.269 OA
ATOM     10  N   UNL     1      34.115 -21.408 -18.550  0.00  0.00    -0.223 N 
ATOM     11  C   UNL     1      34.895 -21.657 -17.431  0.00  0.00    +0.255 C 
ATOM     12  C   UNL     1      32.798 -21.797 -18.352  0.00  0.00    +0.255 C 
ATOM     13  C   UNL     1      34.000 -22.245 -16.434  0.00  0.00    +0.058 C 
ATOM     14  C   UNL     1      32.732 -22.329 -16.991  0.00  0.00    +0.058 C 
ATOM     15  C   UNL     1      34.263 -22.673 -15.149  0.00  0.00    +0.005 C 
ATOM     16  C   UNL     1      31.662 -22.846 -16.292  0.00  0.00    +0.005 C 
ATOM     17  C   UNL     1      33.193 -23.200 -14.422  0.00  0.00    +0.000 C 
ATOM     18  C   UNL     1      31.904 -23.287 -14.988  0.00  0.00    +0.000 C 
ENDBRANCH   7  10
ENDBRANCH   6   7
ENDBRANCH   1   6
BRANCH   1  19
ATOM     19  C   UNL     1      34.170 -17.156 -21.028  0.00  0.00    +0.080 C 
BRANCH  19  21
ATOM     20  O   UNL     1      33.970 -17.335 -23.430  0.00  0.00    -0.291 OA
ATOM     21  C   UNL     1      33.919 -16.618 -22.433  0.00  0.00    +0.174 C 
BRANCH  21  22
ATOM     22  C   UNL     1      33.614 -15.168 -22.598  0.00  0.00    +0.035 C 
ATOM     23  C   UNL     1      33.189 -14.680 -23.834  0.00  0.00    +0.003 C 
ATOM     24  C   UNL     1      33.752 -14.299 -21.515  0.00  0.00    +0.003 C 
ATOM     25  C   UNL     1      33.041 -12.455 -22.904  0.00  0.00    +0.000 C 
ATOM     26  C   UNL     1      32.903 -13.324 -23.987  0.00  0.00    +0.000 C 
ATOM     27  C   UNL     1      33.466 -12.942 -21.669  0.00  0.00    +0.000 C 
BRANCH  25  28
ATOM     28  C   UNL     1      32.745 -11.047 -23.063  0.00  0.00    +0.000 C 
ATOM     29  C   UNL     1      32.043 -10.367 -22.067  0.00  0.00    +0.003 C 
ATOM     30  C   UNL     1      33.159 -10.372 -24.211  0.00  0.00    +0.003 C 
ATOM     31  C   UNL     1      31.756  -9.011 -22.220  0.00  0.00    +0.037 C 
ATOM     32  C   UNL     1      32.871  -9.015 -24.363  0.00  0.00    +0.037 C 
ATOM     33  C   UNL     1      32.169  -8.335 -23.368  0.00  0.00    +0.139 C 
BRANCH  33  34
ATOM     34  O   UNL     1      31.891  -7.010 -23.515  0.00  0.00    -0.475 OA
BRANCH  34  35
ATOM     35  C   UNL     1      32.732  -6.089 -22.823  0.00  0.00    +0.206 C 
ATOM     36  C   UNL     1      33.924  -5.759 -23.695  0.00  0.00    +0.051 C 
ENDBRANCH  34  35
ENDBRANCH  33  34
ENDBRANCH  25  28
ENDBRANCH  21  22
ENDBRANCH  19  21
ENDBRANCH   1  19
TORSDOF 11
ENDMDL
