MODEL 1
REMARK VINA RESULT:     -12.2      0.000      0.000
REMARK  Name = 51039095
REMARK  7 active torsions:
REMARK  status: ('A' for Active; 'I' for Inactive)
REMARK    1  A    between atoms: C_5  and  C_16
REMARK    2  A    between atoms: C_6  and  C_27
REMARK    3  A    between atoms: C_11  and  N_17
REMARK    4  A    between atoms: C_27  and  C_28
REMARK    5  A    between atoms: C_28  and  C_29
REMARK    6  A    between atoms: C_32  and  O_35
REMARK    7  A    between atoms: C_33  and  O_37
REMARK                            x       y       z     vdW  Elec       q    Type
REMARK                         _______ _______ _______ _____ _____    ______ ____
ROOT
ATOM      1  O   UNL     1      32.957 -20.879 -19.248  0.00  0.00    -0.270 OA
ATOM      2  N   UNL     1      35.090 -19.920 -19.443  0.00  0.00    -0.265 N 
ATOM      3  N   UNL     1      35.441 -17.823 -22.188  0.00  0.00    -0.239 N 
ATOM      4  N   UNL     1      35.978 -18.395 -21.097  0.00  0.00    -0.166 NA
ATOM      5  C   UNL     1      34.118 -20.727 -18.835  0.00  0.00    +0.251 C 
ATOM      6  C   UNL     1      34.138 -18.168 -22.406  0.00  0.00    +0.046 C 
ATOM      7  C   UNL     1      34.973 -19.129 -20.612  0.00  0.00    +0.153 C 
ATOM      8  C   UNL     1      33.802 -19.026 -21.387  0.00  0.00    +0.048 C 
ATOM      9  H   UNL     1      35.968 -19.899 -18.999  0.00  0.00    +0.157 HD
ATOM     10  H   UNL     1      35.940 -17.211 -22.775  0.00  0.00    +0.174 HD
ENDROOT
BRANCH   5  16
ATOM     11  C   UNL     1      35.364 -22.830 -15.365  0.00  0.00    +0.048 C 
ATOM     12  C   UNL     1      34.049 -22.945 -15.816  0.00  0.00    +0.015 C 
ATOM     13  C   UNL     1      36.270 -22.024 -16.055  0.00  0.00    +0.015 C 
ATOM     14  C   UNL     1      33.640 -22.254 -16.956  0.00  0.00    +0.006 C 
ATOM     15  C   UNL     1      35.860 -21.333 -17.195  0.00  0.00    +0.006 C 
ATOM     16  C   UNL     1      34.546 -21.449 -17.647  0.00  0.00    +0.054 C 
BRANCH  11  17
ATOM     17  N   UNL     1      35.776 -23.522 -14.221  0.00  0.00    -0.312 N 
ATOM     18  N   UNL     1      36.679 -24.728 -11.801  0.00  0.00    +0.389 N 
ATOM     19  C   UNL     1      37.289 -25.101 -13.082  0.00  0.00    -0.042 C 
ATOM     20  C   UNL     1      35.257 -24.412 -11.980  0.00  0.00    -0.042 C 
ATOM     21  C   UNL     1      37.173 -23.954 -14.096  0.00  0.00    +0.069 C 
ATOM     22  C   UNL     1      35.080 -23.242 -12.958  0.00  0.00    +0.069 C 
ATOM     23  C   UNL     1      34.647 -24.074 -10.621  0.00  0.00    -0.022 C 
ATOM     24  C   UNL     1      38.755 -25.464 -12.850  0.00  0.00    -0.022 C 
ATOM     25  H   UNL     1      37.159 -23.909 -11.427  0.00  0.00    -0.084 HD
ATOM     26  H   UNL     1      36.763 -25.513 -11.156  0.00  0.00    -0.084 HD
ENDBRANCH  11  17
ENDBRANCH   5  16
BRANCH   6  27
ATOM     27  C   UNL     1      33.370 -17.647 -23.547  0.00  0.00    +0.047 C 
BRANCH  27  28
ATOM     28  C   UNL     1      34.000 -16.417 -24.246  0.00  0.00    +0.033 C 
BRANCH  28  29
ATOM     29  C   UNL     1      33.550 -15.105 -23.648  0.00  0.00    -0.016 C 
ATOM     30  C   UNL     1      33.351 -14.998 -22.272  0.00  0.00    +0.033 C 
ATOM     31  C   UNL     1      33.336 -14.001 -24.472  0.00  0.00    +0.033 C 
ATOM     32  C   UNL     1      32.921 -12.789 -23.921  0.00  0.00    +0.141 C 
ATOM     33  C   UNL     1      32.936 -13.786 -21.720  0.00  0.00    +0.141 C 
ATOM     34  C   UNL     1      32.720 -12.681 -22.544  0.00  0.00    +0.074 C 
BRANCH  32  35
ATOM     35  O   UNL     1      32.711 -11.710 -24.724  0.00  0.00    -0.471 OA
ATOM     36  C   UNL     1      33.428 -10.518 -24.407  0.00  0.00    +0.252 C 
ENDBRANCH  32  35
BRANCH  33  37
ATOM     37  O   UNL     1      32.742 -13.680 -20.377  0.00  0.00    -0.471 OA
ATOM     38  C   UNL     1      31.448 -13.268 -19.939  0.00  0.00    +0.252 C 
ENDBRANCH  33  37
ENDBRANCH  28  29
ENDBRANCH  27  28
ENDBRANCH   6  27
TORSDOF 7
ENDMDL
MODEL 2
REMARK VINA RESULT:     -12.2      0.023      1.970
REMARK  Name = 51039095
REMARK  7 active torsions:
REMARK  status: ('A' for Active; 'I' for Inactive)
REMARK    1  A    between atoms: C_5  and  C_16
REMARK    2  A    between atoms: C_6  and  C_27
REMARK    3  A    between atoms: C_11  and  N_17
REMARK    4  A    between atoms: C_27  and  C_28
REMARK    5  A    between atoms: C_28  and  C_29
REMARK    6  A    between atoms: C_32  and  O_35
REMARK    7  A    between atoms: C_33  and  O_37
REMARK                            x       y       z     vdW  Elec       q    Type
REMARK                         _______ _______ _______ _____ _____    ______ ____
ROOT
ATOM      1  O   UNL     1      32.944 -20.876 -19.260  0.00  0.00    -0.270 OA
ATOM      2  N   UNL     1      35.074 -19.909 -19.445  0.00  0.00    -0.265 N 
ATOM      3  N   UNL     1      35.427 -17.806 -22.185  0.00  0.00    -0.239 N 
ATOM      4  N   UNL     1      35.963 -18.379 -21.094  0.00  0.00    -0.166 NA
ATOM      5  C   UNL     1      34.103 -20.721 -18.843  0.00  0.00    +0.251 C 
ATOM      6  C   UNL     1      34.127 -18.155 -22.408  0.00  0.00    +0.046 C 
ATOM      7  C   UNL     1      34.959 -19.116 -20.614  0.00  0.00    +0.153 C 
ATOM      8  C   UNL     1      33.790 -19.016 -21.392  0.00  0.00    +0.048 C 
ATOM      9  H   UNL     1      35.951 -19.887 -18.999  0.00  0.00    +0.157 HD
ATOM     10  H   UNL     1      35.927 -17.191 -22.769  0.00  0.00    +0.174 HD
ENDROOT
BRANCH   5  16
ATOM     11  C   UNL     1      35.343 -22.827 -15.373  0.00  0.00    +0.048 C 
ATOM     12  C   UNL     1      34.027 -22.937 -15.822  0.00  0.00    +0.015 C 
ATOM     13  C   UNL     1      36.253 -22.026 -16.064  0.00  0.00    +0.015 C 
ATOM     14  C   UNL     1      33.620 -22.245 -16.962  0.00  0.00    +0.006 C 
ATOM     15  C   UNL     1      35.844 -21.334 -17.205  0.00  0.00    +0.006 C 
ATOM     16  C   UNL     1      34.529 -21.444 -17.654  0.00  0.00    +0.054 C 
BRANCH  11  17
ATOM     17  N   UNL     1      35.754 -23.521 -14.229  0.00  0.00    -0.312 N 
ATOM     18  N   UNL     1      36.656 -24.729 -11.810  0.00  0.00    +0.389 N 
ATOM     19  C   UNL     1      37.257 -25.111 -13.092  0.00  0.00    -0.042 C 
ATOM     20  C   UNL     1      35.237 -24.400 -11.983  0.00  0.00    -0.042 C 
ATOM     21  C   UNL     1      37.147 -23.966 -14.109  0.00  0.00    +0.069 C 
ATOM     22  C   UNL     1      35.067 -23.231 -12.963  0.00  0.00    +0.069 C 
ATOM     23  C   UNL     1      34.636 -24.052 -10.622  0.00  0.00    -0.022 C 
ATOM     24  C   UNL     1      38.720 -25.488 -12.866  0.00  0.00    -0.022 C 
ATOM     25  H   UNL     1      37.146 -23.914 -11.440  0.00  0.00    -0.084 HD
ATOM     26  H   UNL     1      36.736 -25.513 -11.163  0.00  0.00    -0.084 HD
ENDBRANCH  11  17
ENDBRANCH   5  16
BRANCH   6  27
ATOM     27  C   UNL     1      33.360 -17.634 -23.551  0.00  0.00    +0.047 C 
BRANCH  27  28
ATOM     28  C   UNL     1      33.992 -16.403 -24.248  0.00  0.00    +0.033 C 
BRANCH  28  29
ATOM     29  C   UNL     1      33.547 -15.092 -23.644  0.00  0.00    -0.016 C 
ATOM     30  C   UNL     1      33.334 -13.982 -24.462  0.00  0.00    +0.033 C 
ATOM     31  C   UNL     1      33.348 -14.992 -22.267  0.00  0.00    +0.033 C 
ATOM     32  C   UNL     1      32.937 -13.783 -21.707  0.00  0.00    +0.141 C 
ATOM     33  C   UNL     1      32.922 -12.773 -23.903  0.00  0.00    +0.141 C 
ATOM     34  C   UNL     1      32.724 -12.672 -22.526  0.00  0.00    +0.074 C 
BRANCH  32  35
ATOM     35  O   UNL     1      32.741 -13.684 -20.364  0.00  0.00    -0.471 OA
ATOM     36  C   UNL     1      31.447 -13.274 -19.926  0.00  0.00    +0.252 C 
ENDBRANCH  32  35
BRANCH  33  37
ATOM     37  O   UNL     1      32.714 -11.690 -24.700  0.00  0.00    -0.471 OA
ATOM     38  C   UNL     1      33.450 -10.507 -24.393  0.00  0.00    +0.252 C 
ENDBRANCH  33  37
ENDBRANCH  28  29
ENDBRANCH  27  28
ENDBRANCH   6  27
TORSDOF 7
ENDMDL
MODEL 3
REMARK VINA RESULT:     -12.1      0.366      1.496
REMARK  Name = 51039095
REMARK  7 active torsions:
REMARK  status: ('A' for Active; 'I' for Inactive)
REMARK    1  A    between atoms: C_5  and  C_16
REMARK    2  A    between atoms: C_6  and  C_27
REMARK    3  A    between atoms: C_11  and  N_17
REMARK    4  A    between atoms: C_27  and  C_28
REMARK    5  A    between atoms: C_28  and  C_29
REMARK    6  A    between atoms: C_32  and  O_35
REMARK    7  A    between atoms: C_33  and  O_37
REMARK                            x       y       z     vdW  Elec       q    Type
REMARK                         _______ _______ _______ _____ _____    ______ ____
ROOT
ATOM      1  O   UNL     1      33.079 -21.052 -19.026  0.00  0.00    -0.270 OA
ATOM      2  N   UNL     1      35.178 -20.025 -19.242  0.00  0.00    -0.265 N 
ATOM      3  N   UNL     1      35.462 -17.982 -22.035  0.00  0.00    -0.239 N 
ATOM      4  N   UNL     1      36.017 -18.510 -20.931  0.00  0.00    -0.166 NA
ATOM      5  C   UNL     1      34.234 -20.851 -18.616  0.00  0.00    +0.251 C 
ATOM      6  C   UNL     1      34.172 -18.375 -22.245  0.00  0.00    +0.046 C 
ATOM      7  C   UNL     1      35.037 -19.266 -20.429  0.00  0.00    +0.153 C 
ATOM      8  C   UNL     1      33.864 -19.220 -21.207  0.00  0.00    +0.048 C 
ATOM      9  H   UNL     1      36.055 -19.965 -18.798  0.00  0.00    +0.157 HD
ATOM     10  H   UNL     1      35.941 -17.367 -22.635  0.00  0.00    +0.174 HD
ENDROOT
BRANCH   5  16
ATOM     11  C   UNL     1      35.545 -22.829 -15.098  0.00  0.00    +0.048 C 
ATOM     12  C   UNL     1      34.234 -22.996 -15.544  0.00  0.00    +0.015 C 
ATOM     13  C   UNL     1      36.426 -22.013 -15.807  0.00  0.00    +0.015 C 
ATOM     14  C   UNL     1      33.804 -22.346 -16.700  0.00  0.00    +0.006 C 
ATOM     15  C   UNL     1      35.994 -21.363 -16.964  0.00  0.00    +0.006 C 
ATOM     16  C   UNL     1      34.684 -21.530 -17.411  0.00  0.00    +0.054 C 
BRANCH  11  17
ATOM     17  N   UNL     1      35.979 -23.481 -13.938  0.00  0.00    -0.312 N 
ATOM     18  N   UNL     1      36.794 -25.009 -11.674  0.00  0.00    +0.389 N 
ATOM     19  C   UNL     1      35.771 -23.968 -11.529  0.00  0.00    -0.042 C 
ATOM     20  C   UNL     1      37.774 -24.631 -12.697  0.00  0.00    -0.042 C 
ATOM     21  C   UNL     1      35.026 -23.748 -12.854  0.00  0.00    +0.069 C 
ATOM     22  C   UNL     1      37.090 -24.434 -14.058  0.00  0.00    +0.069 C 
ATOM     23  C   UNL     1      38.846 -25.715 -12.786  0.00  0.00    -0.022 C 
ATOM     24  C   UNL     1      34.794 -24.376 -10.427  0.00  0.00    -0.022 C 
ATOM     25  H   UNL     1      36.345 -25.884 -11.947  0.00  0.00    -0.084 HD
ATOM     26  H   UNL     1      37.275 -25.122 -10.783  0.00  0.00    -0.084 HD
ENDBRANCH  11  17
ENDBRANCH   5  16
BRANCH   6  27
ATOM     27  C   UNL     1      33.388 -17.908 -23.399  0.00  0.00    +0.047 C 
BRANCH  27  28
ATOM     28  C   UNL     1      34.016 -16.720 -24.171  0.00  0.00    +0.033 C 
BRANCH  28  29
ATOM     29  C   UNL     1      33.555 -15.376 -23.661  0.00  0.00    -0.016 C 
ATOM     30  C   UNL     1      33.423 -15.157 -22.289  0.00  0.00    +0.033 C 
ATOM     31  C   UNL     1      33.262 -14.353 -24.561  0.00  0.00    +0.033 C 
ATOM     32  C   UNL     1      32.836 -13.110 -24.092  0.00  0.00    +0.141 C 
ATOM     33  C   UNL     1      32.998 -13.915 -21.819  0.00  0.00    +0.141 C 
ATOM     34  C   UNL     1      32.704 -12.892 -22.720  0.00  0.00    +0.074 C 
BRANCH  32  35
ATOM     35  O   UNL     1      32.549 -12.110 -24.970  0.00  0.00    -0.471 OA
ATOM     36  C   UNL     1      33.145 -10.838 -24.720  0.00  0.00    +0.252 C 
ENDBRANCH  32  35
BRANCH  33  37
ATOM     37  O   UNL     1      32.870 -13.701 -20.481  0.00  0.00    -0.471 OA
ATOM     38  C   UNL     1      31.583 -13.309 -20.006  0.00  0.00    +0.252 C 
ENDBRANCH  33  37
ENDBRANCH  28  29
ENDBRANCH  27  28
ENDBRANCH   6  27
TORSDOF 7
ENDMDL
MODEL 4
REMARK VINA RESULT:     -12.0      0.358      2.585
REMARK  Name = 51039095
REMARK  7 active torsions:
REMARK  status: ('A' for Active; 'I' for Inactive)
REMARK    1  A    between atoms: C_5  and  C_16
REMARK    2  A    between atoms: C_6  and  C_27
REMARK    3  A    between atoms: C_11  and  N_17
REMARK    4  A    between atoms: C_27  and  C_28
REMARK    5  A    between atoms: C_28  and  C_29
REMARK    6  A    between atoms: C_32  and  O_35
REMARK    7  A    between atoms: C_33  and  O_37
REMARK                            x       y       z     vdW  Elec       q    Type
REMARK                         _______ _______ _______ _____ _____    ______ ____
ROOT
ATOM      1  O   UNL     1      33.090 -21.026 -19.041  0.00  0.00    -0.270 OA
ATOM      2  N   UNL     1      35.190 -20.008 -19.277  0.00  0.00    -0.265 N 
ATOM      3  N   UNL     1      35.458 -17.974 -22.078  0.00  0.00    -0.239 N 
ATOM      4  N   UNL     1      36.021 -18.501 -20.977  0.00  0.00    -0.166 NA
ATOM      5  C   UNL     1      34.248 -20.828 -18.641  0.00  0.00    +0.251 C 
ATOM      6  C   UNL     1      34.165 -18.363 -22.277  0.00  0.00    +0.046 C 
ATOM      7  C   UNL     1      35.042 -19.251 -20.466  0.00  0.00    +0.153 C 
ATOM      8  C   UNL     1      33.863 -19.204 -21.233  0.00  0.00    +0.048 C 
ATOM      9  H   UNL     1      36.071 -19.950 -18.841  0.00  0.00    +0.157 HD
ATOM     10  H   UNL     1      35.935 -17.363 -22.685  0.00  0.00    +0.174 HD
ENDROOT
BRANCH   5  16
ATOM     11  C   UNL     1      35.588 -22.806 -15.133  0.00  0.00    +0.048 C 
ATOM     12  C   UNL     1      36.467 -22.003 -15.859  0.00  0.00    +0.015 C 
ATOM     13  C   UNL     1      34.268 -22.959 -15.558  0.00  0.00    +0.015 C 
ATOM     14  C   UNL     1      36.026 -21.353 -17.012  0.00  0.00    +0.006 C 
ATOM     15  C   UNL     1      33.828 -22.308 -16.711  0.00  0.00    +0.006 C 
ATOM     16  C   UNL     1      34.706 -21.505 -17.438  0.00  0.00    +0.054 C 
BRANCH  11  17
ATOM     17  N   UNL     1      36.028 -23.459 -13.976  0.00  0.00    -0.312 N 
ATOM     18  N   UNL     1      36.851 -24.987 -11.716  0.00  0.00    +0.389 N 
ATOM     19  C   UNL     1      35.850 -23.926 -11.561  0.00  0.00    -0.042 C 
ATOM     20  C   UNL     1      37.822 -24.634 -12.757  0.00  0.00    -0.042 C 
ATOM     21  C   UNL     1      35.088 -23.701 -12.875  0.00  0.00    +0.069 C 
ATOM     22  C   UNL     1      37.120 -24.433 -14.108  0.00  0.00    +0.069 C 
ATOM     23  C   UNL     1      38.872 -25.739 -12.856  0.00  0.00    -0.022 C 
ATOM     24  C   UNL     1      34.885 -24.309 -10.441  0.00  0.00    -0.022 C 
ATOM     25  H   UNL     1      36.382 -25.855 -11.976  0.00  0.00    -0.084 HD
ATOM     26  H   UNL     1      37.345 -25.104 -10.831  0.00  0.00    -0.084 HD
ENDBRANCH  11  17
ENDBRANCH   5  16
BRANCH   6  27
ATOM     27  C   UNL     1      33.373 -17.896 -23.425  0.00  0.00    +0.047 C 
BRANCH  27  28
ATOM     28  C   UNL     1      33.993 -16.705 -24.198  0.00  0.00    +0.033 C 
BRANCH  28  29
ATOM     29  C   UNL     1      33.525 -15.363 -23.686  0.00  0.00    -0.016 C 
ATOM     30  C   UNL     1      33.291 -14.318 -24.579  0.00  0.00    +0.033 C 
ATOM     31  C   UNL     1      33.324 -15.171 -22.320  0.00  0.00    +0.033 C 
ATOM     32  C   UNL     1      32.891 -13.933 -21.845  0.00  0.00    +0.141 C 
ATOM     33  C   UNL     1      32.858 -13.080 -24.105  0.00  0.00    +0.141 C 
ATOM     34  C   UNL     1      32.658 -12.887 -22.738  0.00  0.00    +0.074 C 
BRANCH  32  35
ATOM     35  O   UNL     1      32.694 -13.745 -20.511  0.00  0.00    -0.471 OA
ATOM     36  C   UNL     1      31.520 -13.033 -20.124  0.00  0.00    +0.252 C 
ENDBRANCH  32  35
BRANCH  33  37
ATOM     37  O   UNL     1      32.629 -12.059 -24.976  0.00  0.00    -0.471 OA
ATOM     38  C   UNL     1      33.180 -10.786 -24.643  0.00  0.00    +0.252 C 
ENDBRANCH  33  37
ENDBRANCH  28  29
ENDBRANCH  27  28
ENDBRANCH   6  27
TORSDOF 7
ENDMDL
MODEL 5
REMARK VINA RESULT:     -11.7      4.116     13.663
REMARK  Name = 51039095
REMARK  7 active torsions:
REMARK  status: ('A' for Active; 'I' for Inactive)
REMARK    1  A    between atoms: C_5  and  C_16
REMARK    2  A    between atoms: C_6  and  C_27
REMARK    3  A    between atoms: C_11  and  N_17
REMARK    4  A    between atoms: C_27  and  C_28
REMARK    5  A    between atoms: C_28  and  C_29
REMARK    6  A    between atoms: C_32  and  O_35
REMARK    7  A    between atoms: C_33  and  O_37
REMARK                            x       y       z     vdW  Elec       q    Type
REMARK                         _______ _______ _______ _____ _____    ______ ____
ROOT
ATOM      1  O   UNL     1      33.052 -13.279 -20.842  0.00  0.00    -0.270 OA
ATOM      2  N   UNL     1      33.491 -13.884 -23.067  0.00  0.00    -0.265 N 
ATOM      3  N   UNL     1      34.503 -17.182 -23.452  0.00  0.00    -0.239 N 
ATOM      4  N   UNL     1      34.219 -15.991 -24.005  0.00  0.00    -0.166 NA
ATOM      5  C   UNL     1      33.111 -12.997 -22.050  0.00  0.00    +0.251 C 
ATOM      6  C   UNL     1      34.351 -17.211 -22.096  0.00  0.00    +0.046 C 
ATOM      7  C   UNL     1      33.876 -15.242 -22.954  0.00  0.00    +0.153 C 
ATOM      8  C   UNL     1      33.940 -15.950 -21.738  0.00  0.00    +0.048 C 
ATOM      9  H   UNL     1      33.491 -13.514 -23.979  0.00  0.00    +0.157 HD
ATOM     10  H   UNL     1      34.793 -17.963 -23.977  0.00  0.00    +0.174 HD
ENDROOT
BRANCH   5  16
ATOM     11  C   UNL     1      32.183  -9.046 -23.292  0.00  0.00    +0.048 C 
ATOM     12  C   UNL     1      31.635  -9.554 -22.114  0.00  0.00    +0.015 C 
ATOM     13  C   UNL     1      33.037  -9.836 -24.062  0.00  0.00    +0.015 C 
ATOM     14  C   UNL     1      31.940 -10.852 -21.706  0.00  0.00    +0.006 C 
ATOM     15  C   UNL     1      33.342 -11.134 -23.653  0.00  0.00    +0.006 C 
ATOM     16  C   UNL     1      32.794 -11.642 -22.475  0.00  0.00    +0.054 C 
BRANCH  11  17
ATOM     17  N   UNL     1      31.877  -7.744 -23.702  0.00  0.00    -0.312 N 
ATOM     18  N   UNL     1      31.036  -5.131 -24.472  0.00  0.00    +0.389 N 
ATOM     19  C   UNL     1      31.600  -6.046 -25.470  0.00  0.00    -0.042 C 
ATOM     20  C   UNL     1      31.661  -5.346 -23.163  0.00  0.00    -0.042 C 
ATOM     21  C   UNL     1      31.372  -7.509 -25.060  0.00  0.00    +0.069 C 
ATOM     22  C   UNL     1      31.431  -6.786 -22.681  0.00  0.00    +0.069 C 
ATOM     23  C   UNL     1      31.082  -4.346 -22.163  0.00  0.00    -0.022 C 
ATOM     24  C   UNL     1      30.958  -5.764 -26.827  0.00  0.00    -0.022 C 
ATOM     25  H   UNL     1      30.032  -5.297 -24.396  0.00  0.00    -0.084 HD
ATOM     26  H   UNL     1      31.214  -4.172 -24.768  0.00  0.00    -0.084 HD
ENDBRANCH  11  17
ENDBRANCH   5  16
BRANCH   6  27
ATOM     27  C   UNL     1      34.612 -18.422 -21.303  0.00  0.00    +0.047 C 
BRANCH  27  28
ATOM     28  C   UNL     1      33.382 -19.341 -21.098  0.00  0.00    +0.033 C 
BRANCH  28  29
ATOM     29  C   UNL     1      33.500 -20.220 -19.876  0.00  0.00    -0.016 C 
ATOM     30  C   UNL     1      32.355 -20.757 -19.288  0.00  0.00    +0.033 C 
ATOM     31  C   UNL     1      34.756 -20.496 -19.336  0.00  0.00    +0.033 C 
ATOM     32  C   UNL     1      34.867 -21.309 -18.207  0.00  0.00    +0.141 C 
ATOM     33  C   UNL     1      32.465 -21.569 -18.161  0.00  0.00    +0.141 C 
ATOM     34  C   UNL     1      33.721 -21.845 -17.619  0.00  0.00    +0.074 C 
BRANCH  32  35
ATOM     35  O   UNL     1      36.092 -21.579 -17.680  0.00  0.00    -0.471 OA
ATOM     36  C   UNL     1      36.216 -21.509 -16.260  0.00  0.00    +0.252 C 
ENDBRANCH  32  35
BRANCH  33  37
ATOM     37  O   UNL     1      31.348 -22.094 -17.587  0.00  0.00    -0.471 OA
ATOM     38  C   UNL     1      31.484 -22.631 -16.272  0.00  0.00    +0.252 C 
ENDBRANCH  33  37
ENDBRANCH  28  29
ENDBRANCH  27  28
ENDBRANCH   6  27
TORSDOF 7
ENDMDL
MODEL 6
REMARK VINA RESULT:     -11.7      4.097     13.671
REMARK  Name = 51039095
REMARK  7 active torsions:
REMARK  status: ('A' for Active; 'I' for Inactive)
REMARK    1  A    between atoms: C_5  and  C_16
REMARK    2  A    between atoms: C_6  and  C_27
REMARK    3  A    between atoms: C_11  and  N_17
REMARK    4  A    between atoms: C_27  and  C_28
REMARK    5  A    between atoms: C_28  and  C_29
REMARK    6  A    between atoms: C_32  and  O_35
REMARK    7  A    between atoms: C_33  and  O_37
REMARK                            x       y       z     vdW  Elec       q    Type
REMARK                         _______ _______ _______ _____ _____    ______ ____
ROOT
ATOM      1  O   UNL     1      33.065 -13.318 -20.811  0.00  0.00    -0.270 OA
ATOM      2  N   UNL     1      33.509 -13.924 -23.034  0.00  0.00    -0.265 N 
ATOM      3  N   UNL     1      34.509 -17.226 -23.417  0.00  0.00    -0.239 N 
ATOM      4  N   UNL     1      34.232 -16.034 -23.971  0.00  0.00    -0.166 NA
ATOM      5  C   UNL     1      33.129 -13.035 -22.018  0.00  0.00    +0.251 C 
ATOM      6  C   UNL     1      34.352 -17.255 -22.062  0.00  0.00    +0.046 C 
ATOM      7  C   UNL     1      33.888 -15.284 -22.920  0.00  0.00    +0.153 C 
ATOM      8  C   UNL     1      33.945 -15.992 -21.705  0.00  0.00    +0.048 C 
ATOM      9  H   UNL     1      33.514 -13.554 -23.946  0.00  0.00    +0.157 HD
ATOM     10  H   UNL     1      34.798 -18.008 -23.941  0.00  0.00    +0.174 HD
ENDROOT
BRANCH   5  16
ATOM     11  C   UNL     1      32.221  -9.081 -23.262  0.00  0.00    +0.048 C 
ATOM     12  C   UNL     1      31.650  -9.594 -22.098  0.00  0.00    +0.015 C 
ATOM     13  C   UNL     1      33.092  -9.866 -24.018  0.00  0.00    +0.015 C 
ATOM     14  C   UNL     1      31.948 -10.893 -21.689  0.00  0.00    +0.006 C 
ATOM     15  C   UNL     1      33.391 -11.166 -23.608  0.00  0.00    +0.006 C 
ATOM     16  C   UNL     1      32.820 -11.680 -22.444  0.00  0.00    +0.054 C 
BRANCH  11  17
ATOM     17  N   UNL     1      31.923  -7.777 -23.673  0.00  0.00    -0.312 N 
ATOM     18  N   UNL     1      31.095  -5.161 -24.446  0.00  0.00    +0.389 N 
ATOM     19  C   UNL     1      31.662  -6.077 -25.441  0.00  0.00    -0.042 C 
ATOM     20  C   UNL     1      31.711  -5.379 -23.133  0.00  0.00    -0.042 C 
ATOM     21  C   UNL     1      31.426  -7.539 -25.034  0.00  0.00    +0.069 C 
ATOM     22  C   UNL     1      31.473  -6.819 -22.654  0.00  0.00    +0.069 C 
ATOM     23  C   UNL     1      31.129  -4.379 -22.136  0.00  0.00    -0.022 C 
ATOM     24  C   UNL     1      31.029  -5.791 -26.802  0.00  0.00    -0.022 C 
ATOM     25  H   UNL     1      30.090  -5.324 -24.376  0.00  0.00    -0.084 HD
ATOM     26  H   UNL     1      31.278  -4.202 -24.740  0.00  0.00    -0.084 HD
ENDBRANCH  11  17
ENDBRANCH   5  16
BRANCH   6  27
ATOM     27  C   UNL     1      34.606 -18.468 -21.268  0.00  0.00    +0.047 C 
BRANCH  27  28
ATOM     28  C   UNL     1      33.365 -19.369 -21.048  0.00  0.00    +0.033 C 
BRANCH  28  29
ATOM     29  C   UNL     1      33.488 -20.251 -19.828  0.00  0.00    -0.016 C 
ATOM     30  C   UNL     1      34.743 -20.520 -19.283  0.00  0.00    +0.033 C 
ATOM     31  C   UNL     1      32.344 -20.794 -19.244  0.00  0.00    +0.033 C 
ATOM     32  C   UNL     1      32.455 -21.608 -18.116  0.00  0.00    +0.141 C 
ATOM     33  C   UNL     1      34.855 -21.332 -18.156  0.00  0.00    +0.141 C 
ATOM     34  C   UNL     1      33.711 -21.877 -17.572  0.00  0.00    +0.074 C 
BRANCH  32  35
ATOM     35  O   UNL     1      31.339 -22.138 -17.545  0.00  0.00    -0.471 OA
ATOM     36  C   UNL     1      31.475 -22.667 -16.227  0.00  0.00    +0.252 C 
ENDBRANCH  32  35
BRANCH  33  37
ATOM     37  O   UNL     1      36.080 -21.595 -17.624  0.00  0.00    -0.471 OA
ATOM     38  C   UNL     1      36.206 -21.498 -16.206  0.00  0.00    +0.252 C 
ENDBRANCH  33  37
ENDBRANCH  28  29
ENDBRANCH  27  28
ENDBRANCH   6  27
TORSDOF 7
ENDMDL
MODEL 7
REMARK VINA RESULT:     -11.6      4.109     13.608
REMARK  Name = 51039095
REMARK  7 active torsions:
REMARK  status: ('A' for Active; 'I' for Inactive)
REMARK    1  A    between atoms: C_5  and  C_16
REMARK    2  A    between atoms: C_6  and  C_27
REMARK    3  A    between atoms: C_11  and  N_17
REMARK    4  A    between atoms: C_27  and  C_28
REMARK    5  A    between atoms: C_28  and  C_29
REMARK    6  A    between atoms: C_32  and  O_35
REMARK    7  A    between atoms: C_33  and  O_37
REMARK                            x       y       z     vdW  Elec       q    Type
REMARK                         _______ _______ _______ _____ _____    ______ ____
ROOT
ATOM      1  O   UNL     1      32.815 -13.441 -20.555  0.00  0.00    -0.270 OA
ATOM      2  N   UNL     1      33.445 -13.907 -22.766  0.00  0.00    -0.265 N 
ATOM      3  N   UNL     1      34.649 -17.130 -23.233  0.00  0.00    -0.239 N 
ATOM      4  N   UNL     1      34.345 -15.926 -23.748  0.00  0.00    -0.166 NA
ATOM      5  C   UNL     1      32.948 -13.093 -21.739  0.00  0.00    +0.251 C 
ATOM      6  C   UNL     1      34.400 -17.236 -21.896  0.00  0.00    +0.046 C 
ATOM      7  C   UNL     1      33.889 -15.250 -22.691  0.00  0.00    +0.153 C 
ATOM      8  C   UNL     1      33.900 -16.016 -21.510  0.00  0.00    +0.048 C 
ATOM      9  H   UNL     1      33.493 -13.491 -23.657  0.00  0.00    +0.157 HD
ATOM     10  H   UNL     1      35.015 -17.868 -23.772  0.00  0.00    +0.174 HD
ENDROOT
BRANCH   5  16
ATOM     11  C   UNL     1      31.922  -9.128 -22.853  0.00  0.00    +0.048 C 
ATOM     12  C   UNL     1      32.824  -9.859 -23.626  0.00  0.00    +0.015 C 
ATOM     13  C   UNL     1      31.355  -9.700 -21.714  0.00  0.00    +0.015 C 
ATOM     14  C   UNL     1      33.161 -11.161 -23.260  0.00  0.00    +0.006 C 
ATOM     15  C   UNL     1      31.693 -11.004 -21.348  0.00  0.00    +0.006 C 
ATOM     16  C   UNL     1      32.595 -11.735 -22.121  0.00  0.00    +0.054 C 
BRANCH  11  17
ATOM     17  N   UNL     1      31.583  -7.821 -23.219  0.00  0.00    -0.312 N 
ATOM     18  N   UNL     1      31.120  -5.116 -23.990  0.00  0.00    +0.389 N 
ATOM     19  C   UNL     1      30.679  -5.592 -22.674  0.00  0.00    -0.042 C 
ATOM     20  C   UNL     1      31.027  -6.190 -24.985  0.00  0.00    -0.042 C 
ATOM     21  C   UNL     1      31.549  -6.766 -22.200  0.00  0.00    +0.069 C 
ATOM     22  C   UNL     1      31.910  -7.380 -24.582  0.00  0.00    +0.069 C 
ATOM     23  C   UNL     1      31.449  -5.645 -26.348  0.00  0.00    -0.022 C 
ATOM     24  C   UNL     1      30.748  -4.437 -21.676  0.00  0.00    -0.022 C 
ATOM     25  H   UNL     1      32.088  -4.802 -23.925  0.00  0.00    -0.084 HD
ATOM     26  H   UNL     1      30.517  -4.346 -24.279  0.00  0.00    -0.084 HD
ENDBRANCH  11  17
ENDBRANCH   5  16
BRANCH   6  27
ATOM     27  C   UNL     1      34.663 -18.474 -21.145  0.00  0.00    +0.047 C 
BRANCH  27  28
ATOM     28  C   UNL     1      33.430 -19.393 -20.956  0.00  0.00    +0.033 C 
BRANCH  28  29
ATOM     29  C   UNL     1      33.541 -20.284 -19.742  0.00  0.00    -0.016 C 
ATOM     30  C   UNL     1      32.393 -20.835 -19.173  0.00  0.00    +0.033 C 
ATOM     31  C   UNL     1      34.792 -20.559 -19.192  0.00  0.00    +0.033 C 
ATOM     32  C   UNL     1      34.897 -21.382 -18.071  0.00  0.00    +0.141 C 
ATOM     33  C   UNL     1      32.496 -21.659 -18.053  0.00  0.00    +0.141 C 
ATOM     34  C   UNL     1      33.747 -21.933 -17.501  0.00  0.00    +0.074 C 
BRANCH  32  35
ATOM     35  O   UNL     1      36.118 -21.651 -17.533  0.00  0.00    -0.471 OA
ATOM     36  C   UNL     1      36.217 -21.631 -16.109  0.00  0.00    +0.252 C 
ENDBRANCH  32  35
BRANCH  33  37
ATOM     37  O   UNL     1      31.376 -22.197 -17.498  0.00  0.00    -0.471 OA
ATOM     38  C   UNL     1      31.509 -22.778 -16.201  0.00  0.00    +0.252 C 
ENDBRANCH  33  37
ENDBRANCH  28  29
ENDBRANCH  27  28
ENDBRANCH   6  27
TORSDOF 7
ENDMDL
MODEL 8
REMARK VINA RESULT:     -11.5      4.280     13.656
REMARK  Name = 51039095
REMARK  7 active torsions:
REMARK  status: ('A' for Active; 'I' for Inactive)
REMARK    1  A    between atoms: C_5  and  C_16
REMARK    2  A    between atoms: C_6  and  C_27
REMARK    3  A    between atoms: C_11  and  N_17
REMARK    4  A    between atoms: C_27  and  C_28
REMARK    5  A    between atoms: C_28  and  C_29
REMARK    6  A    between atoms: C_32  and  O_35
REMARK    7  A    between atoms: C_33  and  O_37
REMARK                            x       y       z     vdW  Elec       q    Type
REMARK                         _______ _______ _______ _____ _____    ______ ____
ROOT
ATOM      1  O   UNL     1      33.500 -13.594 -23.864  0.00  0.00    -0.270 OA
ATOM      2  N   UNL     1      33.441 -13.492 -21.520  0.00  0.00    -0.265 N 
ATOM      3  N   UNL     1      34.139 -16.517 -19.965  0.00  0.00    -0.239 N 
ATOM      4  N   UNL     1      33.827 -15.213 -19.865  0.00  0.00    -0.166 NA
ATOM      5  C   UNL     1      33.333 -12.957 -22.811  0.00  0.00    +0.251 C 
ATOM      6  C   UNL     1      34.263 -16.957 -21.251  0.00  0.00    +0.046 C 
ATOM      7  C   UNL     1      33.752 -14.821 -21.139  0.00  0.00    +0.153 C 
ATOM      8  C   UNL     1      34.014 -15.865 -22.046  0.00  0.00    +0.048 C 
ATOM      9  H   UNL     1      33.280 -12.862 -20.781  0.00  0.00    +0.157 HD
ATOM     10  H   UNL     1      34.267 -17.100 -19.183  0.00  0.00    +0.174 HD
ENDROOT
BRANCH   5  16
ATOM     11  C   UNL     1      32.277  -8.852 -23.030  0.00  0.00    +0.048 C 
ATOM     12  C   UNL     1      33.150  -9.399 -23.971  0.00  0.00    +0.015 C 
ATOM     13  C   UNL     1      31.750  -9.654 -22.018  0.00  0.00    +0.015 C 
ATOM     14  C   UNL     1      33.497 -10.747 -23.899  0.00  0.00    +0.006 C 
ATOM     15  C   UNL     1      32.097 -11.003 -21.947  0.00  0.00    +0.006 C 
ATOM     16  C   UNL     1      32.970 -11.550 -22.887  0.00  0.00    +0.054 C 
BRANCH  11  17
ATOM     17  N   UNL     1      31.928  -7.499 -23.101  0.00  0.00    -0.312 N 
ATOM     18  N   UNL     1      31.412  -4.696 -23.127  0.00  0.00    +0.389 N 
ATOM     19  C   UNL     1      30.462  -5.612 -22.488  0.00  0.00    -0.042 C 
ATOM     20  C   UNL     1      32.051  -5.336 -24.281  0.00  0.00    -0.042 C 
ATOM     21  C   UNL     1      31.174  -6.884 -22.002  0.00  0.00    +0.069 C 
ATOM     22  C   UNL     1      32.814  -6.597 -23.849  0.00  0.00    +0.069 C 
ATOM     23  C   UNL     1      32.996  -4.338 -24.947  0.00  0.00    -0.022 C 
ATOM     24  C   UNL     1      29.786  -4.897 -21.319  0.00  0.00    -0.022 C 
ATOM     25  H   UNL     1      32.129  -4.432 -22.451  0.00  0.00    -0.084 HD
ATOM     26  H   UNL     1      30.907  -3.870 -23.447  0.00  0.00    -0.084 HD
ENDBRANCH  11  17
ENDBRANCH   5  16
BRANCH   6  27
ATOM     27  C   UNL     1      34.601 -18.352 -21.573  0.00  0.00    +0.047 C 
BRANCH  27  28
ATOM     28  C   UNL     1      33.438 -19.360 -21.388  0.00  0.00    +0.033 C 
BRANCH  28  29
ATOM     29  C   UNL     1      33.555 -20.166 -20.117  0.00  0.00    -0.016 C 
ATOM     30  C   UNL     1      34.810 -20.422 -19.565  0.00  0.00    +0.033 C 
ATOM     31  C   UNL     1      32.406 -20.653 -19.493  0.00  0.00    +0.033 C 
ATOM     32  C   UNL     1      32.512 -21.397 -18.318  0.00  0.00    +0.141 C 
ATOM     33  C   UNL     1      34.916 -21.166 -18.390  0.00  0.00    +0.141 C 
ATOM     34  C   UNL     1      33.768 -21.654 -17.767  0.00  0.00    +0.074 C 
BRANCH  32  35
ATOM     35  O   UNL     1      31.392 -21.873 -17.709  0.00  0.00    -0.471 OA
ATOM     36  C   UNL     1      31.575 -22.608 -16.500  0.00  0.00    +0.252 C 
ENDBRANCH  32  35
BRANCH  33  37
ATOM     37  O   UNL     1      36.141 -21.416 -17.850  0.00  0.00    -0.471 OA
ATOM     38  C   UNL     1      36.225 -21.464 -16.427  0.00  0.00    +0.252 C 
ENDBRANCH  33  37
ENDBRANCH  28  29
ENDBRANCH  27  28
ENDBRANCH   6  27
TORSDOF 7
ENDMDL
MODEL 9
REMARK VINA RESULT:     -11.1      1.724      2.935
REMARK  Name = 51039095
REMARK  7 active torsions:
REMARK  status: ('A' for Active; 'I' for Inactive)
REMARK    1  A    between atoms: C_5  and  C_16
REMARK    2  A    between atoms: C_6  and  C_27
REMARK    3  A    between atoms: C_11  and  N_17
REMARK    4  A    between atoms: C_27  and  C_28
REMARK    5  A    between atoms: C_28  and  C_29
REMARK    6  A    between atoms: C_32  and  O_35
REMARK    7  A    between atoms: C_33  and  O_37
REMARK                            x       y       z     vdW  Elec       q    Type
REMARK                         _______ _______ _______ _____ _____    ______ ____
ROOT
ATOM      1  O   UNL     1      31.945 -20.181 -20.635  0.00  0.00    -0.270 OA
ATOM      2  N   UNL     1      34.093 -19.390 -20.119  0.00  0.00    -0.265 N 
ATOM      3  N   UNL     1      35.385 -17.192 -22.476  0.00  0.00    -0.239 N 
ATOM      4  N   UNL     1      35.533 -17.861 -21.319  0.00  0.00    -0.166 NA
ATOM      5  C   UNL     1      32.936 -20.145 -19.887  0.00  0.00    +0.251 C 
ATOM      6  C   UNL     1      34.189 -17.417 -23.094  0.00  0.00    +0.046 C 
ATOM      7  C   UNL     1      34.384 -18.533 -21.209  0.00  0.00    +0.153 C 
ATOM      8  C   UNL     1      33.509 -18.296 -22.286  0.00  0.00    +0.048 C 
ATOM      9  H   UNL     1      34.797 -19.464 -19.434  0.00  0.00    +0.157 HD
ATOM     10  H   UNL     1      36.075 -16.593 -22.842  0.00  0.00    +0.174 HD
ENDROOT
BRANCH   5  16
ATOM     11  C   UNL     1      32.947 -22.517 -16.367  0.00  0.00    +0.048 C 
ATOM     12  C   UNL     1      31.737 -22.126 -16.941  0.00  0.00    +0.015 C 
ATOM     13  C   UNL     1      34.154 -22.129 -16.950  0.00  0.00    +0.015 C 
ATOM     14  C   UNL     1      31.734 -21.347 -18.097  0.00  0.00    +0.006 C 
ATOM     15  C   UNL     1      34.149 -21.350 -18.107  0.00  0.00    +0.006 C 
ATOM     16  C   UNL     1      32.940 -20.959 -18.681  0.00  0.00    +0.054 C 
BRANCH  11  17
ATOM     17  N   UNL     1      32.952 -23.298 -15.206  0.00  0.00    -0.312 N 
ATOM     18  N   UNL     1      32.927 -24.695 -12.722  0.00  0.00    +0.389 N 
ATOM     19  C   UNL     1      34.120 -24.730 -13.573  0.00  0.00    -0.042 C 
ATOM     20  C   UNL     1      31.711 -24.627 -13.539  0.00  0.00    -0.042 C 
ATOM     21  C   UNL     1      34.199 -23.474 -14.454  0.00  0.00    +0.069 C 
ATOM     22  C   UNL     1      31.716 -23.366 -14.415  0.00  0.00    +0.069 C 
ATOM     23  C   UNL     1      30.490 -24.638 -12.620  0.00  0.00    -0.022 C 
ATOM     24  C   UNL     1      35.362 -24.845 -12.690  0.00  0.00    -0.022 C 
ATOM     25  H   UNL     1      32.971 -23.874 -12.118  0.00  0.00    -0.084 HD
ATOM     26  H   UNL     1      32.898 -25.545 -12.160  0.00  0.00    -0.084 HD
ENDBRANCH  11  17
ENDBRANCH   5  16
BRANCH   6  27
ATOM     27  C   UNL     1      33.834 -16.778 -24.370  0.00  0.00    +0.047 C 
BRANCH  27  28
ATOM     28  C   UNL     1      32.505 -15.981 -24.349  0.00  0.00    +0.033 C 
BRANCH  28  29
ATOM     29  C   UNL     1      32.655 -14.601 -23.755  0.00  0.00    -0.016 C 
ATOM     30  C   UNL     1      32.877 -13.503 -24.586  0.00  0.00    +0.033 C 
ATOM     31  C   UNL     1      32.570 -14.424 -22.374  0.00  0.00    +0.033 C 
ATOM     32  C   UNL     1      32.709 -13.150 -21.824  0.00  0.00    +0.141 C 
ATOM     33  C   UNL     1      33.015 -12.229 -24.037  0.00  0.00    +0.141 C 
ATOM     34  C   UNL     1      32.931 -12.052 -22.656  0.00  0.00    +0.074 C 
BRANCH  32  35
ATOM     35  O   UNL     1      32.626 -12.976 -20.477  0.00  0.00    -0.471 OA
ATOM     36  C   UNL     1      31.319 -12.964 -19.905  0.00  0.00    +0.252 C 
ENDBRANCH  32  35
BRANCH  33  37
ATOM     37  O   UNL     1      33.231 -11.157 -24.848  0.00  0.00    -0.471 OA
ATOM     38  C   UNL     1      33.526  -9.913 -24.215  0.00  0.00    +0.252 C 
ENDBRANCH  33  37
ENDBRANCH  28  29
ENDBRANCH  27  28
ENDBRANCH   6  27
TORSDOF 7
ENDMDL
