MODEL 1
REMARK VINA RESULT:     -13.3      0.000      0.000
REMARK  Name = 5288641
REMARK  1 active torsions:
REMARK  status: ('A' for Active; 'I' for Inactive)
REMARK    1  A    between atoms: C_14  and  S_23
REMARK                            x       y       z     vdW  Elec       q    Type
REMARK                         _______ _______ _______ _____ _____    ______ ____
ROOT
ATOM      1  O   UNL     1      34.544 -23.930 -13.811  0.00  0.00    -0.270 OA
ATOM      2  O   UNL     1      31.032 -22.034 -17.249  0.00  0.00    -0.285 OA
ATOM      3  N   UNL     1      34.391 -22.407 -16.357  0.00  0.00    -0.310 N 
ATOM      4  N   UNL     1      32.370 -24.484 -13.069  0.00  0.00    -0.280 N 
ATOM      5  C   UNL     1      32.527 -23.301 -15.022  0.00  0.00    +0.071 C 
ATOM      6  C   UNL     1      31.114 -23.536 -14.746  0.00  0.00    +0.020 C 
ATOM      7  C   UNL     1      33.076 -22.655 -16.052  0.00  0.00    +0.092 C 
ATOM      8  C   UNL     1      31.076 -24.258 -13.549  0.00  0.00    +0.051 C 
ATOM      9  C   UNL     1      33.331 -23.925 -13.919  0.00  0.00    +0.251 C 
ATOM     10  C   UNL     1      33.210 -21.435 -18.071  0.00  0.00    +0.054 C 
ATOM     11  C   UNL     1      34.483 -21.690 -17.543  0.00  0.00    +0.051 C 
ATOM     12  C   UNL     1      32.239 -22.040 -17.142  0.00  0.00    +0.210 C 
ATOM     13  C   UNL     1      29.946 -23.198 -15.403  0.00  0.00    +0.020 C 
ATOM     14  C   UNL     1      28.734 -23.601 -14.833  0.00  0.00    +0.112 C 
ATOM     15  C   UNL     1      29.890 -24.665 -12.969  0.00  0.00    +0.016 C 
ATOM     16  C   UNL     1      28.706 -24.327 -13.628  0.00  0.00    +0.020 C 
ATOM     17  C   UNL     1      33.003 -20.740 -19.244  0.00  0.00    +0.004 C 
ATOM     18  C   UNL     1      35.607 -21.238 -18.202  0.00  0.00    +0.015 C 
ATOM     19  C   UNL     1      34.140 -20.282 -19.910  0.00  0.00    +0.000 C 
ATOM     20  C   UNL     1      35.429 -20.529 -19.395  0.00  0.00    +0.001 C 
ATOM     21  H   UNL     1      35.159 -22.695 -15.813  0.00  0.00    +0.152 HD
ATOM     22  H   UNL     1      32.578 -24.973 -12.239  0.00  0.00    +0.155 HD
ENDROOT
BRANCH  14  23
ATOM     23  S   UNL     1      27.230 -23.196 -15.628  0.00  0.00    +0.042 S 
ATOM     24  O   UNL     1      27.551 -21.843 -16.488  0.00  0.00    -0.065 OA
ATOM     25  O   UNL     1      26.933 -24.249 -16.586  0.00  0.00    -0.065 OA
ATOM     26  O   UNL     1      26.280 -22.852 -14.582  0.00  0.00    -0.065 OA
ENDBRANCH  14  23
TORSDOF 1
ENDMDL
MODEL 2
REMARK VINA RESULT:     -12.4      0.999      1.186
REMARK  Name = 5288641
REMARK  1 active torsions:
REMARK  status: ('A' for Active; 'I' for Inactive)
REMARK    1  A    between atoms: C_14  and  S_23
REMARK                            x       y       z     vdW  Elec       q    Type
REMARK                         _______ _______ _______ _____ _____    ______ ____
ROOT
ATOM      1  O   UNL     1      35.374 -23.527 -14.992  0.00  0.00    -0.270 OA
ATOM      2  O   UNL     1      31.168 -21.631 -17.534  0.00  0.00    -0.285 OA
ATOM      3  N   UNL     1      34.648 -21.919 -17.382  0.00  0.00    -0.310 N 
ATOM      4  N   UNL     1      33.421 -24.182 -13.835  0.00  0.00    -0.280 N 
ATOM      5  C   UNL     1      33.132 -22.925 -15.726  0.00  0.00    +0.071 C 
ATOM      6  C   UNL     1      31.815 -23.219 -15.169  0.00  0.00    +0.020 C 
ATOM      7  C   UNL     1      33.434 -22.223 -16.819  0.00  0.00    +0.092 C 
ATOM      8  C   UNL     1      32.050 -23.984 -14.023  0.00  0.00    +0.051 C 
ATOM      9  C   UNL     1      34.167 -23.560 -14.843  0.00  0.00    +0.251 C 
ATOM     10  C   UNL     1      33.107 -20.927 -18.767  0.00  0.00    +0.054 C 
ATOM     11  C   UNL     1      34.469 -21.157 -18.529  0.00  0.00    +0.051 C 
ATOM     12  C   UNL     1      32.370 -21.599 -17.682  0.00  0.00    +0.210 C 
ATOM     13  C   UNL     1      30.527 -22.899 -15.552  0.00  0.00    +0.020 C 
ATOM     14  C   UNL     1      29.473 -23.364 -14.758  0.00  0.00    +0.112 C 
ATOM     15  C   UNL     1      31.025 -24.453 -13.225  0.00  0.00    +0.016 C 
ATOM     16  C   UNL     1      29.720 -24.133 -13.607  0.00  0.00    +0.020 C 
ATOM     17  C   UNL     1      32.639 -20.198 -19.840  0.00  0.00    +0.004 C 
ATOM     18  C   UNL     1      35.416 -20.642 -19.389  0.00  0.00    +0.015 C 
ATOM     19  C   UNL     1      33.597 -19.677 -20.710  0.00  0.00    +0.000 C 
ATOM     20  C   UNL     1      34.971 -19.897 -20.488  0.00  0.00    +0.001 C 
ATOM     21  H   UNL     1      35.521 -22.200 -17.025  0.00  0.00    +0.152 HD
ATOM     22  H   UNL     1      33.813 -24.693 -13.089  0.00  0.00    +0.155 HD
ENDROOT
BRANCH  14  23
ATOM     23  S   UNL     1      27.826 -22.983 -15.202  0.00  0.00    +0.042 S 
ATOM     24  O   UNL     1      27.448 -21.647 -14.339  0.00  0.00    -0.065 OA
ATOM     25  O   UNL     1      27.818 -22.599 -16.605  0.00  0.00    -0.065 OA
ATOM     26  O   UNL     1      26.997 -24.079 -14.727  0.00  0.00    -0.065 OA
ENDBRANCH  14  23
TORSDOF 1
ENDMDL
MODEL 3
REMARK VINA RESULT:     -11.4      2.874      5.343
REMARK  Name = 5288641
REMARK  1 active torsions:
REMARK  status: ('A' for Active; 'I' for Inactive)
REMARK    1  A    between atoms: C_14  and  S_23
REMARK                            x       y       z     vdW  Elec       q    Type
REMARK                         _______ _______ _______ _____ _____    ______ ____
ROOT
ATOM      1  O   UNL     1      29.900 -22.455 -16.271  0.00  0.00    -0.270 OA
ATOM      2  O   UNL     1      35.077 -21.985 -17.122  0.00  0.00    -0.285 OA
ATOM      3  N   UNL     1      31.828 -21.268 -18.193  0.00  0.00    -0.310 N 
ATOM      4  N   UNL     1      31.064 -23.562 -14.538  0.00  0.00    -0.280 N 
ATOM      5  C   UNL     1      32.330 -22.556 -16.158  0.00  0.00    +0.071 C 
ATOM      6  C   UNL     1      33.234 -23.176 -15.195  0.00  0.00    +0.020 C 
ATOM      7  C   UNL     1      32.634 -21.867 -17.259  0.00  0.00    +0.092 C 
ATOM      8  C   UNL     1      32.413 -23.772 -14.233  0.00  0.00    +0.051 C 
ATOM      9  C   UNL     1      30.920 -22.819 -15.715  0.00  0.00    +0.251 C 
ATOM     10  C   UNL     1      33.965 -20.837 -18.918  0.00  0.00    +0.054 C 
ATOM     11  C   UNL     1      32.599 -20.658 -19.175  0.00  0.00    +0.051 C 
ATOM     12  C   UNL     1      34.061 -21.623 -17.675  0.00  0.00    +0.210 C 
ATOM     13  C   UNL     1      34.610 -23.256 -15.095  0.00  0.00    +0.020 C 
ATOM     14  C   UNL     1      35.148 -23.949 -14.006  0.00  0.00    +0.112 C 
ATOM     15  C   UNL     1      32.923 -24.460 -13.150  0.00  0.00    +0.016 C 
ATOM     16  C   UNL     1      34.313 -24.545 -13.043  0.00  0.00    +0.020 C 
ATOM     17  C   UNL     1      34.960 -20.337 -19.731  0.00  0.00    +0.004 C 
ATOM     18  C   UNL     1      32.193 -19.952 -20.288  0.00  0.00    +0.015 C 
ATOM     19  C   UNL     1      34.549 -19.623 -20.857  0.00  0.00    +0.000 C 
ATOM     20  C   UNL     1      33.180 -19.432 -21.133  0.00  0.00    +0.001 C 
ATOM     21  H   UNL     1      30.844 -21.269 -18.172  0.00  0.00    +0.152 HD
ATOM     22  H   UNL     1      30.312 -23.894 -13.995  0.00  0.00    +0.155 HD
ENDROOT
BRANCH  14  23
ATOM     23  S   UNL     1      36.883 -24.078 -13.838  0.00  0.00    +0.042 S 
ATOM     24  O   UNL     1      37.201 -23.615 -12.303  0.00  0.00    -0.065 OA
ATOM     25  O   UNL     1      37.239 -25.485 -13.940  0.00  0.00    -0.065 OA
ATOM     26  O   UNL     1      37.468 -23.096 -14.737  0.00  0.00    -0.065 OA
ENDBRANCH  14  23
TORSDOF 1
ENDMDL
MODEL 4
REMARK VINA RESULT:     -11.0      3.534      6.874
REMARK  Name = 5288641
REMARK  1 active torsions:
REMARK  status: ('A' for Active; 'I' for Inactive)
REMARK    1  A    between atoms: C_14  and  S_23
REMARK                            x       y       z     vdW  Elec       q    Type
REMARK                         _______ _______ _______ _____ _____    ______ ____
ROOT
ATOM      1  O   UNL     1      33.513 -21.745 -17.541  0.00  0.00    -0.270 OA
ATOM      2  O   UNL     1      32.133 -24.190 -13.083  0.00  0.00    -0.285 OA
ATOM      3  N   UNL     1      31.116 -22.748 -16.102  0.00  0.00    -0.310 N 
ATOM      4  N   UNL     1      35.459 -22.185 -16.275  0.00  0.00    -0.280 N 
ATOM      5  C   UNL     1      33.465 -22.864 -15.379  0.00  0.00    +0.071 C 
ATOM      6  C   UNL     1      34.529 -23.226 -14.447  0.00  0.00    +0.020 C 
ATOM      7  C   UNL     1      32.152 -23.068 -15.261  0.00  0.00    +0.092 C 
ATOM      8  C   UNL     1      35.717 -22.791 -15.041  0.00  0.00    +0.051 C 
ATOM      9  C   UNL     1      34.090 -22.185 -16.563  0.00  0.00    +0.251 C 
ATOM     10  C   UNL     1      30.108 -23.780 -14.313  0.00  0.00    +0.054 C 
ATOM     11  C   UNL     1      29.908 -23.162 -15.555  0.00  0.00    +0.051 C 
ATOM     12  C   UNL     1      31.560 -23.752 -14.058  0.00  0.00    +0.210 C 
ATOM     13  C   UNL     1      34.544 -23.858 -13.219  0.00  0.00    +0.020 C 
ATOM     14  C   UNL     1      35.782 -24.044 -12.594  0.00  0.00    +0.112 C 
ATOM     15  C   UNL     1      36.949 -22.965 -14.442  0.00  0.00    +0.016 C 
ATOM     16  C   UNL     1      36.972 -23.603 -13.199  0.00  0.00    +0.020 C 
ATOM     17  C   UNL     1      29.081 -24.287 -13.546  0.00  0.00    +0.004 C 
ATOM     18  C   UNL     1      28.633 -23.037 -16.066  0.00  0.00    +0.015 C 
ATOM     19  C   UNL     1      27.791 -24.161 -14.063  0.00  0.00    +0.000 C 
ATOM     20  C   UNL     1      27.569 -23.543 -15.310  0.00  0.00    +0.001 C 
ATOM     21  H   UNL     1      31.214 -22.291 -16.967  0.00  0.00    +0.152 HD
ATOM     22  H   UNL     1      36.151 -21.805 -16.864  0.00  0.00    +0.155 HD
ENDROOT
BRANCH  14  23
ATOM     23  S   UNL     1      35.851 -24.837 -11.037  0.00  0.00    +0.042 S 
ATOM     24  O   UNL     1      34.331 -24.746 -10.442  0.00  0.00    -0.065 OA
ATOM     25  O   UNL     1      36.135 -26.246 -11.265  0.00  0.00    -0.065 OA
ATOM     26  O   UNL     1      36.718 -24.032 -10.192  0.00  0.00    -0.065 OA
ENDBRANCH  14  23
TORSDOF 1
ENDMDL
