MODEL 1
REMARK VINA RESULT:     -11.5      0.000      0.000
REMARK  Name = 4470378
REMARK  6 active torsions:
REMARK  status: ('A' for Active; 'I' for Inactive)
REMARK    1  A    between atoms: C_5  and  O_10
REMARK    2  A    between atoms: C_6  and  O_24
REMARK    3  A    between atoms: O_10  and  C_11
REMARK    4  A    between atoms: C_12  and  C_19
REMARK    5  A    between atoms: O_24  and  C_25
REMARK    6  A    between atoms: C_26  and  C_33
REMARK                            x       y       z     vdW  Elec       q    Type
REMARK                         _______ _______ _______ _____ _____    ______ ____
ROOT
ATOM      1  F   UNL     1      31.196 -23.124 -17.046  0.00  0.00    -0.221 F 
ATOM      2  F   UNL     1      32.981 -22.643 -12.667  0.00  0.00    -0.199 F 
ATOM      3  N   UNL     1      34.599 -22.578 -15.913  0.00  0.00    -0.331 NA
ATOM      4  C   UNL     1      32.039 -22.890 -14.835  0.00  0.00    +0.031 C 
ATOM      5  C   UNL     1      33.515 -22.774 -16.697  0.00  0.00    +0.298 C 
ATOM      6  C   UNL     1      34.367 -22.544 -14.589  0.00  0.00    +0.312 C 
ATOM      7  C   UNL     1      32.226 -22.933 -16.213  0.00  0.00    +0.270 C 
ATOM      8  C   UNL     1      33.131 -22.690 -13.996  0.00  0.00    +0.201 C 
ATOM      9  C   UNL     1      30.674 -23.057 -14.259  0.00  0.00    +0.032 C 
ENDROOT
BRANCH   5  10
ATOM     10  O   UNL     1      33.726 -22.814 -18.050  0.00  0.00    -0.428 OA
BRANCH  10  11
ATOM     11  C   UNL     1      33.517 -21.649 -18.760  0.00  0.00    +0.148 C 
ATOM     12  C   UNL     1      34.396 -19.731 -19.903  0.00  0.00    +0.032 C 
ATOM     13  C   UNL     1      34.608 -20.910 -19.186  0.00  0.00    +0.040 C 
ATOM     14  C   UNL     1      32.220 -21.244 -19.031  0.00  0.00    +0.038 C 
ATOM     15  C   UNL     1      33.097 -19.310 -20.184  0.00  0.00    +0.003 C 
ATOM     16  C   UNL     1      32.008 -20.066 -19.748  0.00  0.00    +0.003 C 
BRANCH  12  19
ATOM     17  N   UNL     1      36.544 -18.677 -19.522  0.00  0.00    -0.387 N 
ATOM     18  N   UNL     1      35.566 -18.476 -21.612  0.00  0.00    -0.345 N 
ATOM     19  C   UNL     1      35.524 -18.947 -20.355  0.00  0.00    +0.096 C 
ATOM     20  H   UNL     1      37.308 -18.143 -19.837  0.00  0.00    +0.157 HD
ATOM     21  H   UNL     1      36.526 -19.015 -18.597  0.00  0.00    +0.157 HD
ATOM     22  H   UNL     1      36.337 -17.942 -21.912  0.00  0.00    +0.144 HD
ATOM     23  H   UNL     1      34.826 -18.664 -22.234  0.00  0.00    +0.144 HD
ENDBRANCH  12  19
ENDBRANCH  10  11
ENDBRANCH   5  10
BRANCH   6  24
ATOM     24  O   UNL     1      35.471 -22.346 -13.777  0.00  0.00    -0.426 OA
BRANCH  24  25
ATOM     25  C   UNL     1      36.072 -23.446 -13.248  0.00  0.00    +0.148 C 
ATOM     26  C   UNL     1      37.832 -25.100 -13.308  0.00  0.00    +0.034 C 
ATOM     27  C   UNL     1      37.216 -23.972 -13.849  0.00  0.00    +0.040 C 
ATOM     28  C   UNL     1      35.544 -24.050 -12.108  0.00  0.00    +0.038 C 
ATOM     29  C   UNL     1      37.304 -25.704 -12.167  0.00  0.00    +0.003 C 
ATOM     30  C   UNL     1      36.160 -25.178 -11.567  0.00  0.00    +0.003 C 
BRANCH  26  33
ATOM     31  N   UNL     1      39.950 -26.393 -13.205  0.00  0.00    -0.343 N 
ATOM     32  N   UNL     1      39.250 -25.438 -15.220  0.00  0.00    -0.285 NA
ATOM     33  C   UNL     1      39.025 -25.648 -13.935  0.00  0.00    +0.117 C 
ATOM     34  H   UNL     1      40.750 -26.754 -13.648  0.00  0.00    +0.144 HD
ATOM     35  H   UNL     1      39.802 -26.558 -12.245  0.00  0.00    +0.144 HD
ATOM     36  H   UNL     1      40.057 -25.808 -15.645  0.00  0.00    +0.188 HD
ENDBRANCH  26  33
ENDBRANCH  24  25
ENDBRANCH   6  24
TORSDOF 6
ENDMDL
MODEL 2
REMARK VINA RESULT:     -11.3      1.575      2.170
REMARK  Name = 4470378
REMARK  6 active torsions:
REMARK  status: ('A' for Active; 'I' for Inactive)
REMARK    1  A    between atoms: C_5  and  O_10
REMARK    2  A    between atoms: C_6  and  O_24
REMARK    3  A    between atoms: O_10  and  C_11
REMARK    4  A    between atoms: C_12  and  C_19
REMARK    5  A    between atoms: O_24  and  C_25
REMARK    6  A    between atoms: C_26  and  C_33
REMARK                            x       y       z     vdW  Elec       q    Type
REMARK                         _______ _______ _______ _____ _____    ______ ____
ROOT
ATOM      1  F   UNL     1      29.754 -21.688 -16.493  0.00  0.00    -0.221 F 
ATOM      2  F   UNL     1      31.642 -23.877 -12.720  0.00  0.00    -0.199 F 
ATOM      3  N   UNL     1      32.853 -23.537 -16.123  0.00  0.00    -0.331 NA
ATOM      4  C   UNL     1      30.655 -22.768 -14.576  0.00  0.00    +0.031 C 
ATOM      5  C   UNL     1      31.836 -22.812 -16.640  0.00  0.00    +0.298 C 
ATOM      6  C   UNL     1      32.738 -23.863 -14.823  0.00  0.00    +0.312 C 
ATOM      7  C   UNL     1      30.726 -22.405 -15.917  0.00  0.00    +0.270 C 
ATOM      8  C   UNL     1      31.682 -23.515 -14.008  0.00  0.00    +0.201 C 
ATOM      9  C   UNL     1      29.483 -22.359 -13.751  0.00  0.00    +0.032 C 
ENDROOT
BRANCH   5  10
ATOM     10  O   UNL     1      31.929 -22.468 -17.963  0.00  0.00    -0.428 OA
BRANCH  10  11
ATOM     11  C   UNL     1      33.046 -21.760 -18.358  0.00  0.00    +0.148 C 
ATOM     12  C   UNL     1      34.041 -20.035 -19.696  0.00  0.00    +0.032 C 
ATOM     13  C   UNL     1      32.911 -20.750 -19.296  0.00  0.00    +0.040 C 
ATOM     14  C   UNL     1      34.278 -22.075 -17.808  0.00  0.00    +0.038 C 
ATOM     15  C   UNL     1      35.288 -20.340 -19.152  0.00  0.00    +0.003 C 
ATOM     16  C   UNL     1      35.407 -21.361 -18.208  0.00  0.00    +0.003 C 
BRANCH  12  19
ATOM     17  N   UNL     1      34.387 -17.746 -20.409  0.00  0.00    -0.387 N 
ATOM     18  N   UNL     1      33.333 -19.212 -21.861  0.00  0.00    -0.345 N 
ATOM     19  C   UNL     1      33.919 -18.978 -20.674  0.00  0.00    +0.096 C 
ATOM     20  H   UNL     1      34.299 -17.031 -21.080  0.00  0.00    +0.157 HD
ATOM     21  H   UNL     1      34.818 -17.559 -19.543  0.00  0.00    +0.157 HD
ATOM     22  H   UNL     1      33.253 -18.486 -22.522  0.00  0.00    +0.144 HD
ATOM     23  H   UNL     1      32.984 -20.109 -22.069  0.00  0.00    +0.144 HD
ENDBRANCH  12  19
ENDBRANCH  10  11
ENDBRANCH   5  10
BRANCH   6  24
ATOM     24  O   UNL     1      33.773 -24.608 -14.283  0.00  0.00    -0.426 OA
BRANCH  24  25
ATOM     25  C   UNL     1      35.034 -24.109 -14.390  0.00  0.00    +0.148 C 
ATOM     26  C   UNL     1      37.427 -24.431 -14.298  0.00  0.00    +0.034 C 
ATOM     27  C   UNL     1      36.134 -24.943 -14.189  0.00  0.00    +0.040 C 
ATOM     28  C   UNL     1      35.227 -22.762 -14.698  0.00  0.00    +0.038 C 
ATOM     29  C   UNL     1      37.620 -23.085 -14.606  0.00  0.00    +0.003 C 
ATOM     30  C   UNL     1      36.520 -22.250 -14.807  0.00  0.00    +0.003 C 
BRANCH  26  33
ATOM     31  N   UNL     1      38.840 -25.860 -12.840  0.00  0.00    -0.343 N 
ATOM     32  N   UNL     1      39.388 -25.570 -15.093  0.00  0.00    -0.285 NA
ATOM     33  C   UNL     1      38.573 -25.301 -14.088  0.00  0.00    +0.117 C 
ATOM     34  H   UNL     1      39.622 -26.446 -12.720  0.00  0.00    +0.144 HD
ATOM     35  H   UNL     1      38.247 -25.669 -12.077  0.00  0.00    +0.144 HD
ATOM     36  H   UNL     1      40.164 -26.159 -14.953  0.00  0.00    +0.188 HD
ENDBRANCH  26  33
ENDBRANCH  24  25
ENDBRANCH   6  24
TORSDOF 6
ENDMDL
MODEL 3
REMARK VINA RESULT:     -11.3      8.218     13.514
REMARK  Name = 4470378
REMARK  6 active torsions:
REMARK  status: ('A' for Active; 'I' for Inactive)
REMARK    1  A    between atoms: C_5  and  O_10
REMARK    2  A    between atoms: C_6  and  O_24
REMARK    3  A    between atoms: O_10  and  C_11
REMARK    4  A    between atoms: C_12  and  C_19
REMARK    5  A    between atoms: O_24  and  C_25
REMARK    6  A    between atoms: C_26  and  C_33
REMARK                            x       y       z     vdW  Elec       q    Type
REMARK                         _______ _______ _______ _____ _____    ______ ____
ROOT
ATOM      1  F   UNL     1      33.290 -15.178 -19.759  0.00  0.00    -0.221 F 
ATOM      2  F   UNL     1      30.799 -11.421 -21.267  0.00  0.00    -0.199 F 
ATOM      3  N   UNL     1      33.501 -13.265 -22.835  0.00  0.00    -0.331 NA
ATOM      4  C   UNL     1      32.016 -13.299 -20.467  0.00  0.00    +0.031 C 
ATOM      5  C   UNL     1      33.724 -14.182 -21.867  0.00  0.00    +0.298 C 
ATOM      6  C   UNL     1      32.524 -12.375 -22.585  0.00  0.00    +0.312 C 
ATOM      7  C   UNL     1      33.017 -14.242 -20.677  0.00  0.00    +0.270 C 
ATOM      8  C   UNL     1      31.757 -12.340 -21.440  0.00  0.00    +0.201 C 
ATOM      9  C   UNL     1      31.224 -13.317 -19.204  0.00  0.00    +0.032 C 
ENDROOT
BRANCH   5  10
ATOM     10  O   UNL     1      34.716 -15.098 -22.097  0.00  0.00    -0.428 OA
BRANCH  10  11
ATOM     11  C   UNL     1      34.340 -16.417 -22.247  0.00  0.00    +0.148 C 
ATOM     12  C   UNL     1      34.107 -18.624 -21.334  0.00  0.00    +0.032 C 
ATOM     13  C   UNL     1      34.487 -17.290 -21.181  0.00  0.00    +0.040 C 
ATOM     14  C   UNL     1      33.824 -16.841 -23.461  0.00  0.00    +0.038 C 
ATOM     15  C   UNL     1      33.585 -19.066 -22.550  0.00  0.00    +0.003 C 
ATOM     16  C   UNL     1      33.444 -18.174 -23.613  0.00  0.00    +0.003 C 
BRANCH  12  19
ATOM     17  N   UNL     1      33.187 -20.207 -19.749  0.00  0.00    -0.387 N 
ATOM     18  N   UNL     1      35.458 -19.758 -19.674  0.00  0.00    -0.345 N 
ATOM     19  C   UNL     1      34.254 -19.548 -20.232  0.00  0.00    +0.096 C 
ATOM     20  H   UNL     1      33.295 -20.835 -18.998  0.00  0.00    +0.157 HD
ATOM     21  H   UNL     1      32.297 -20.063 -20.146  0.00  0.00    +0.157 HD
ATOM     22  H   UNL     1      35.550 -20.388 -18.923  0.00  0.00    +0.144 HD
ATOM     23  H   UNL     1      36.249 -19.281 -20.016  0.00  0.00    +0.144 HD
ENDBRANCH  12  19
ENDBRANCH  10  11
ENDBRANCH   5  10
BRANCH   6  24
ATOM     24  O   UNL     1      32.288 -11.430 -23.569  0.00  0.00    -0.426 OA
BRANCH  24  25
ATOM     25  C   UNL     1      32.932 -10.236 -23.466  0.00  0.00    +0.148 C 
ATOM     26  C   UNL     1      33.057  -7.995 -22.571  0.00  0.00    +0.034 C 
ATOM     27  C   UNL     1      32.397  -9.220 -22.675  0.00  0.00    +0.040 C 
ATOM     28  C   UNL     1      34.128 -10.027 -24.155  0.00  0.00    +0.038 C 
ATOM     29  C   UNL     1      34.252  -7.787 -23.259  0.00  0.00    +0.003 C 
ATOM     30  C   UNL     1      34.788  -8.803 -24.050  0.00  0.00    +0.003 C 
BRANCH  26  33
ATOM     31  N   UNL     1      32.332  -7.100 -20.371  0.00  0.00    -0.343 N 
ATOM     32  N   UNL     1      32.133  -5.793 -22.299  0.00  0.00    -0.285 NA
ATOM     33  C   UNL     1      32.499  -6.936 -21.745  0.00  0.00    +0.117 C 
ATOM     34  H   UNL     1      31.952  -6.370 -19.831  0.00  0.00    +0.144 HD
ATOM     35  H   UNL     1      32.595  -7.945 -19.940  0.00  0.00    +0.144 HD
ATOM     36  H   UNL     1      31.755  -5.076 -21.741  0.00  0.00    +0.188 HD
ENDBRANCH  26  33
ENDBRANCH  24  25
ENDBRANCH   6  24
TORSDOF 6
ENDMDL
MODEL 4
REMARK VINA RESULT:     -11.3      3.192      5.538
REMARK  Name = 4470378
REMARK  6 active torsions:
REMARK  status: ('A' for Active; 'I' for Inactive)
REMARK    1  A    between atoms: C_5  and  O_10
REMARK    2  A    between atoms: C_6  and  O_24
REMARK    3  A    between atoms: O_10  and  C_11
REMARK    4  A    between atoms: C_12  and  C_19
REMARK    5  A    between atoms: O_24  and  C_25
REMARK    6  A    between atoms: C_26  and  C_33
REMARK                            x       y       z     vdW  Elec       q    Type
REMARK                         _______ _______ _______ _____ _____    ______ ____
ROOT
ATOM      1  F   UNL     1      32.835 -22.170 -18.812  0.00  0.00    -0.221 F 
ATOM      2  F   UNL     1      36.879 -20.655 -16.826  0.00  0.00    -0.199 F 
ATOM      3  N   UNL     1      34.290 -22.858 -15.560  0.00  0.00    -0.331 NA
ATOM      4  C   UNL     1      34.868 -21.384 -17.864  0.00  0.00    +0.031 C 
ATOM      5  C   UNL     1      33.460 -22.849 -16.628  0.00  0.00    +0.298 C 
ATOM      6  C   UNL     1      35.405 -22.116 -15.679  0.00  0.00    +0.312 C 
ATOM      7  C   UNL     1      33.701 -22.136 -17.792  0.00  0.00    +0.270 C 
ATOM      8  C   UNL     1      35.747 -21.368 -16.785  0.00  0.00    +0.201 C 
ATOM      9  C   UNL     1      35.177 -20.596 -19.092  0.00  0.00    +0.032 C 
ENDROOT
BRANCH   5  10
ATOM     10  O   UNL     1      32.316 -23.597 -16.532  0.00  0.00    -0.428 OA
BRANCH  10  11
ATOM     11  C   UNL     1      31.372 -23.196 -15.609  0.00  0.00    +0.148 C 
ATOM     12  C   UNL     1      29.100 -22.637 -15.077  0.00  0.00    +0.032 C 
ATOM     13  C   UNL     1      30.054 -23.043 -16.010  0.00  0.00    +0.040 C 
ATOM     14  C   UNL     1      31.761 -22.954 -14.302  0.00  0.00    +0.038 C 
ATOM     15  C   UNL     1      29.476 -22.390 -13.757  0.00  0.00    +0.003 C 
ATOM     16  C   UNL     1      30.807 -22.548 -13.369  0.00  0.00    +0.003 C 
BRANCH  12  19
ATOM     17  N   UNL     1      27.333 -22.783 -16.727  0.00  0.00    -0.387 N 
ATOM     18  N   UNL     1      26.809 -22.005 -14.609  0.00  0.00    -0.345 N 
ATOM     19  C   UNL     1      27.721 -22.473 -15.478  0.00  0.00    +0.096 C 
ATOM     20  H   UNL     1      26.392 -22.669 -16.993  0.00  0.00    +0.157 HD
ATOM     21  H   UNL     1      27.990 -23.126 -17.376  0.00  0.00    +0.157 HD
ATOM     22  H   UNL     1      25.872 -21.895 -14.891  0.00  0.00    +0.144 HD
ATOM     23  H   UNL     1      27.078 -21.772 -13.691  0.00  0.00    +0.144 HD
ENDBRANCH  12  19
ENDBRANCH  10  11
ENDBRANCH   5  10
BRANCH   6  24
ATOM     24  O   UNL     1      36.261 -22.116 -14.591  0.00  0.00    -0.426 OA
BRANCH  24  25
ATOM     25  C   UNL     1      36.236 -23.199 -13.767  0.00  0.00    +0.148 C 
ATOM     26  C   UNL     1      35.750 -24.178 -11.612  0.00  0.00    +0.034 C 
ATOM     27  C   UNL     1      35.775 -23.069 -12.457  0.00  0.00    +0.040 C 
ATOM     28  C   UNL     1      36.674 -24.439 -14.232  0.00  0.00    +0.038 C 
ATOM     29  C   UNL     1      36.188 -25.419 -12.077  0.00  0.00    +0.003 C 
ATOM     30  C   UNL     1      36.649 -25.549 -13.387  0.00  0.00    +0.003 C 
BRANCH  26  33
ATOM     31  N   UNL     1      35.702 -23.002  -9.427  0.00  0.00    -0.343 N 
ATOM     32  N   UNL     1      34.409 -24.919  -9.761  0.00  0.00    -0.285 NA
ATOM     33  C   UNL     1      35.269 -24.042 -10.246  0.00  0.00    +0.117 C 
ATOM     34  H   UNL     1      35.364 -22.928  -8.505  0.00  0.00    +0.144 HD
ATOM     35  H   UNL     1      36.346 -22.340  -9.769  0.00  0.00    +0.144 HD
ATOM     36  H   UNL     1      34.082 -24.828  -8.837  0.00  0.00    +0.188 HD
ENDBRANCH  26  33
ENDBRANCH  24  25
ENDBRANCH   6  24
TORSDOF 6
ENDMDL
MODEL 5
REMARK VINA RESULT:     -11.3      2.709      5.073
REMARK  Name = 4470378
REMARK  6 active torsions:
REMARK  status: ('A' for Active; 'I' for Inactive)
REMARK    1  A    between atoms: C_5  and  O_10
REMARK    2  A    between atoms: C_6  and  O_24
REMARK    3  A    between atoms: O_10  and  C_11
REMARK    4  A    between atoms: C_12  and  C_19
REMARK    5  A    between atoms: O_24  and  C_25
REMARK    6  A    between atoms: C_26  and  C_33
REMARK                            x       y       z     vdW  Elec       q    Type
REMARK                         _______ _______ _______ _____ _____    ______ ____
ROOT
ATOM      1  F   UNL     1      32.684 -22.256 -18.984  0.00  0.00    -0.221 F 
ATOM      2  F   UNL     1      36.652 -20.618 -16.943  0.00  0.00    -0.199 F 
ATOM      3  N   UNL     1      34.022 -22.756 -15.649  0.00  0.00    -0.331 NA
ATOM      4  C   UNL     1      34.681 -21.411 -18.009  0.00  0.00    +0.031 C 
ATOM      5  C   UNL     1      33.231 -22.809 -16.745  0.00  0.00    +0.298 C 
ATOM      6  C   UNL     1      35.140 -22.018 -15.769  0.00  0.00    +0.312 C 
ATOM      7  C   UNL     1      33.513 -22.162 -17.937  0.00  0.00    +0.270 C 
ATOM      8  C   UNL     1      35.520 -21.332 -16.903  0.00  0.00    +0.201 C 
ATOM      9  C   UNL     1      35.032 -20.692 -19.267  0.00  0.00    +0.032 C 
ENDROOT
BRANCH   5  10
ATOM     10  O   UNL     1      32.086 -23.554 -16.647  0.00  0.00    -0.428 OA
BRANCH  10  11
ATOM     11  C   UNL     1      31.153 -23.165 -15.708  0.00  0.00    +0.148 C 
ATOM     12  C   UNL     1      28.886 -22.624 -15.138  0.00  0.00    +0.032 C 
ATOM     13  C   UNL     1      29.829 -23.019 -16.088  0.00  0.00    +0.040 C 
ATOM     14  C   UNL     1      31.561 -22.928 -14.406  0.00  0.00    +0.038 C 
ATOM     15  C   UNL     1      29.281 -22.381 -13.822  0.00  0.00    +0.003 C 
ATOM     16  C   UNL     1      30.619 -22.533 -13.456  0.00  0.00    +0.003 C 
BRANCH  12  19
ATOM     17  N   UNL     1      26.599 -22.008 -14.631  0.00  0.00    -0.387 N 
ATOM     18  N   UNL     1      27.094 -22.778 -16.759  0.00  0.00    -0.345 N 
ATOM     19  C   UNL     1      27.500 -22.466 -15.517  0.00  0.00    +0.096 C 
ATOM     20  H   UNL     1      25.657 -21.904 -14.897  0.00  0.00    +0.157 HD
ATOM     21  H   UNL     1      26.881 -21.776 -13.716  0.00  0.00    +0.157 HD
ATOM     22  H   UNL     1      26.148 -22.669 -17.010  0.00  0.00    +0.144 HD
ATOM     23  H   UNL     1      27.742 -23.117 -17.418  0.00  0.00    +0.144 HD
ENDBRANCH  12  19
ENDBRANCH  10  11
ENDBRANCH   5  10
BRANCH   6  24
ATOM     24  O   UNL     1      35.957 -21.955 -14.653  0.00  0.00    -0.426 OA
BRANCH  24  25
ATOM     25  C   UNL     1      36.276 -23.125 -14.037  0.00  0.00    +0.148 C 
ATOM     26  C   UNL     1      37.808 -24.964 -13.703  0.00  0.00    +0.034 C 
ATOM     27  C   UNL     1      37.481 -23.763 -14.333  0.00  0.00    +0.040 C 
ATOM     28  C   UNL     1      35.399 -23.688 -13.110  0.00  0.00    +0.038 C 
ATOM     29  C   UNL     1      36.931 -25.527 -12.776  0.00  0.00    +0.003 C 
ATOM     30  C   UNL     1      35.726 -24.888 -12.479  0.00  0.00    +0.003 C 
BRANCH  26  33
ATOM     31  N   UNL     1      39.808 -26.269 -13.023  0.00  0.00    -0.343 N 
ATOM     32  N   UNL     1      39.521 -25.628 -15.252  0.00  0.00    -0.285 NA
ATOM     33  C   UNL     1      39.064 -25.629 -14.013  0.00  0.00    +0.117 C 
ATOM     34  H   UNL     1      40.655 -26.713 -13.254  0.00  0.00    +0.144 HD
ATOM     35  H   UNL     1      39.486 -26.278 -12.092  0.00  0.00    +0.144 HD
ATOM     36  H   UNL     1      40.371 -26.078 -15.463  0.00  0.00    +0.188 HD
ENDBRANCH  26  33
ENDBRANCH  24  25
ENDBRANCH   6  24
TORSDOF 6
ENDMDL
MODEL 6
REMARK VINA RESULT:     -11.3      8.252     11.848
REMARK  Name = 4470378
REMARK  6 active torsions:
REMARK  status: ('A' for Active; 'I' for Inactive)
REMARK    1  A    between atoms: C_5  and  O_10
REMARK    2  A    between atoms: C_6  and  O_24
REMARK    3  A    between atoms: O_10  and  C_11
REMARK    4  A    between atoms: C_12  and  C_19
REMARK    5  A    between atoms: O_24  and  C_25
REMARK    6  A    between atoms: C_26  and  C_33
REMARK                            x       y       z     vdW  Elec       q    Type
REMARK                         _______ _______ _______ _____ _____    ______ ____
ROOT
ATOM      1  F   UNL     1      30.789 -11.425 -21.218  0.00  0.00    -0.221 F 
ATOM      2  F   UNL     1      33.322 -15.228 -19.910  0.00  0.00    -0.199 F 
ATOM      3  N   UNL     1      33.453 -13.206 -22.920  0.00  0.00    -0.331 NA
ATOM      4  C   UNL     1      32.028 -13.329 -20.518  0.00  0.00    +0.031 C 
ATOM      5  C   UNL     1      32.477 -12.318 -22.623  0.00  0.00    +0.298 C 
ATOM      6  C   UNL     1      33.691 -14.147 -21.989  0.00  0.00    +0.312 C 
ATOM      7  C   UNL     1      31.743 -12.335 -21.448  0.00  0.00    +0.270 C 
ATOM      8  C   UNL     1      33.025 -14.261 -20.787  0.00  0.00    +0.201 C 
ATOM      9  C   UNL     1      31.268 -13.396 -19.237  0.00  0.00    +0.032 C 
ENDROOT
BRANCH   5  10
ATOM     10  O   UNL     1      32.215 -11.350 -23.556  0.00  0.00    -0.428 OA
BRANCH  10  11
ATOM     11  C   UNL     1      32.893 -10.154 -23.439  0.00  0.00    +0.148 C 
ATOM     12  C   UNL     1      33.044  -7.937 -22.534  0.00  0.00    +0.032 C 
ATOM     13  C   UNL     1      32.359  -9.147 -22.652  0.00  0.00    +0.040 C 
ATOM     14  C   UNL     1      34.092  -9.986 -24.110  0.00  0.00    +0.038 C 
ATOM     15  C   UNL     1      34.253  -7.752 -23.204  0.00  0.00    +0.003 C 
ATOM     16  C   UNL     1      34.778  -8.777 -23.992  0.00  0.00    +0.003 C 
BRANCH  12  19
ATOM     17  N   UNL     1      32.293  -7.065 -20.402  0.00  0.00    -0.387 N 
ATOM     18  N   UNL     1      32.194  -5.686 -22.261  0.00  0.00    -0.345 N 
ATOM     19  C   UNL     1      32.501  -6.875 -21.717  0.00  0.00    +0.096 C 
ATOM     20  H   UNL     1      31.923  -6.337 -19.853  0.00  0.00    +0.157 HD
ATOM     21  H   UNL     1      32.513  -7.932 -19.989  0.00  0.00    +0.157 HD
ATOM     22  H   UNL     1      31.823  -4.968 -21.698  0.00  0.00    +0.144 HD
ATOM     23  H   UNL     1      32.338  -5.532 -23.223  0.00  0.00    +0.144 HD
ENDBRANCH  12  19
ENDBRANCH  10  11
ENDBRANCH   5  10
BRANCH   6  24
ATOM     24  O   UNL     1      34.687 -15.064 -22.282  0.00  0.00    -0.426 OA
BRANCH  24  25
ATOM     25  C   UNL     1      34.330 -16.372 -22.387  0.00  0.00    +0.148 C 
ATOM     26  C   UNL     1      34.161 -18.579 -21.417  0.00  0.00    +0.034 C 
ATOM     27  C   UNL     1      34.525 -17.237 -21.309  0.00  0.00    +0.040 C 
ATOM     28  C   UNL     1      33.773 -16.851 -23.573  0.00  0.00    +0.038 C 
ATOM     29  C   UNL     1      33.603 -19.058 -22.603  0.00  0.00    +0.003 C 
ATOM     30  C   UNL     1      33.409 -18.193 -23.680  0.00  0.00    +0.003 C 
BRANCH  26  33
ATOM     31  N   UNL     1      35.615 -19.621 -19.695  0.00  0.00    -0.343 N 
ATOM     32  N   UNL     1      33.352 -20.188 -19.826  0.00  0.00    -0.285 NA
ATOM     33  C   UNL     1      34.364 -19.480 -20.293  0.00  0.00    +0.117 C 
ATOM     34  H   UNL     1      35.731 -20.236 -18.935  0.00  0.00    +0.144 HD
ATOM     35  H   UNL     1      36.383 -19.104 -20.030  0.00  0.00    +0.144 HD
ATOM     36  H   UNL     1      33.488 -20.798 -19.066  0.00  0.00    +0.188 HD
ENDBRANCH  26  33
ENDBRANCH  24  25
ENDBRANCH   6  24
TORSDOF 6
ENDMDL
MODEL 7
REMARK VINA RESULT:     -11.0      3.033      7.841
REMARK  Name = 4470378
REMARK  6 active torsions:
REMARK  status: ('A' for Active; 'I' for Inactive)
REMARK    1  A    between atoms: C_5  and  O_10
REMARK    2  A    between atoms: C_6  and  O_24
REMARK    3  A    between atoms: O_10  and  C_11
REMARK    4  A    between atoms: C_12  and  C_19
REMARK    5  A    between atoms: O_24  and  C_25
REMARK    6  A    between atoms: C_26  and  C_33
REMARK                            x       y       z     vdW  Elec       q    Type
REMARK                         _______ _______ _______ _____ _____    ______ ____
ROOT
ATOM      1  F   UNL     1      36.648 -20.328 -17.473  0.00  0.00    -0.221 F 
ATOM      2  F   UNL     1      32.540 -22.284 -18.844  0.00  0.00    -0.199 F 
ATOM      3  N   UNL     1      34.481 -22.715 -15.810  0.00  0.00    -0.331 NA
ATOM      4  C   UNL     1      34.596 -21.279 -18.205  0.00  0.00    +0.031 C 
ATOM      5  C   UNL     1      35.503 -21.875 -16.089  0.00  0.00    +0.298 C 
ATOM      6  C   UNL     1      33.529 -22.813 -16.755  0.00  0.00    +0.312 C 
ATOM      7  C   UNL     1      35.607 -21.141 -17.260  0.00  0.00    +0.270 C 
ATOM      8  C   UNL     1      33.528 -22.133 -17.954  0.00  0.00    +0.201 C 
ATOM      9  C   UNL     1      34.658 -20.514 -19.484  0.00  0.00    +0.032 C 
ENDROOT
BRANCH   5  10
ATOM     10  O   UNL     1      36.486 -21.759 -15.143  0.00  0.00    -0.428 OA
BRANCH  10  11
ATOM     11  C   UNL     1      36.668 -22.821 -14.281  0.00  0.00    +0.148 C 
ATOM     12  C   UNL     1      36.194 -23.901 -12.191  0.00  0.00    +0.032 C 
ATOM     13  C   UNL     1      36.010 -22.826 -13.062  0.00  0.00    +0.040 C 
ATOM     14  C   UNL     1      37.504 -23.861 -14.654  0.00  0.00    +0.038 C 
ATOM     15  C   UNL     1      37.033 -24.955 -12.552  0.00  0.00    +0.003 C 
ATOM     16  C   UNL     1      37.689 -24.935 -13.784  0.00  0.00    +0.003 C 
BRANCH  12  19
ATOM     17  N   UNL     1      35.987 -23.206  -9.880  0.00  0.00    -0.387 N 
ATOM     18  N   UNL     1      34.405 -24.659 -10.746  0.00  0.00    -0.345 N 
ATOM     19  C   UNL     1      35.515 -23.922 -10.915  0.00  0.00    +0.096 C 
ATOM     20  H   UNL     1      35.519 -23.225  -9.015  0.00  0.00    +0.157 HD
ATOM     21  H   UNL     1      36.801 -22.661  -9.989  0.00  0.00    +0.157 HD
ATOM     22  H   UNL     1      33.948 -24.669  -9.873  0.00  0.00    +0.144 HD
ATOM     23  H   UNL     1      34.048 -25.190 -11.494  0.00  0.00    +0.144 HD
ENDBRANCH  12  19
ENDBRANCH  10  11
ENDBRANCH   5  10
BRANCH   6  24
ATOM     24  O   UNL     1      32.477 -23.671 -16.481  0.00  0.00    -0.426 OA
BRANCH  24  25
ATOM     25  C   UNL     1      31.552 -23.266 -15.570  0.00  0.00    +0.148 C 
ATOM     26  C   UNL     1      29.284 -22.628 -15.033  0.00  0.00    +0.034 C 
ATOM     27  C   UNL     1      30.232 -23.045 -15.966  0.00  0.00    +0.040 C 
ATOM     28  C   UNL     1      31.922 -23.068 -14.239  0.00  0.00    +0.038 C 
ATOM     29  C   UNL     1      29.654 -22.431 -13.702  0.00  0.00    +0.003 C 
ATOM     30  C   UNL     1      30.973 -22.652 -13.306  0.00  0.00    +0.003 C 
BRANCH  26  33
ATOM     31  N   UNL     1      27.422 -22.898 -16.653  0.00  0.00    -0.343 N 
ATOM     32  N   UNL     1      27.096 -21.699 -14.674  0.00  0.00    -0.285 NA
ATOM     33  C   UNL     1      27.908 -22.398 -15.447  0.00  0.00    +0.117 C 
ATOM     34  H   UNL     1      26.488 -22.731 -16.914  0.00  0.00    +0.144 HD
ATOM     35  H   UNL     1      28.012 -23.419 -17.245  0.00  0.00    +0.144 HD
ATOM     36  H   UNL     1      26.165 -21.543 -14.953  0.00  0.00    +0.188 HD
ENDBRANCH  26  33
ENDBRANCH  24  25
ENDBRANCH   6  24
TORSDOF 6
ENDMDL
MODEL 8
REMARK VINA RESULT:     -11.0      0.319      7.609
REMARK  Name = 4470378
REMARK  6 active torsions:
REMARK  status: ('A' for Active; 'I' for Inactive)
REMARK    1  A    between atoms: C_5  and  O_10
REMARK    2  A    between atoms: C_6  and  O_24
REMARK    3  A    between atoms: O_10  and  C_11
REMARK    4  A    between atoms: C_12  and  C_19
REMARK    5  A    between atoms: O_24  and  C_25
REMARK    6  A    between atoms: C_26  and  C_33
REMARK                            x       y       z     vdW  Elec       q    Type
REMARK                         _______ _______ _______ _____ _____    ______ ____
ROOT
ATOM      1  F   UNL     1      32.463 -22.729 -12.775  0.00  0.00    -0.221 F 
ATOM      2  F   UNL     1      31.357 -23.141 -17.379  0.00  0.00    -0.199 F 
ATOM      3  N   UNL     1      34.533 -22.503 -15.746  0.00  0.00    -0.331 NA
ATOM      4  C   UNL     1      31.858 -22.943 -15.064  0.00  0.00    +0.031 C 
ATOM      5  C   UNL     1      34.118 -22.516 -14.459  0.00  0.00    +0.298 C 
ATOM      6  C   UNL     1      33.579 -22.714 -16.670  0.00  0.00    +0.312 C 
ATOM      7  C   UNL     1      32.806 -22.730 -14.069  0.00  0.00    +0.270 C 
ATOM      8  C   UNL     1      32.246 -22.937 -16.399  0.00  0.00    +0.201 C 
ATOM      9  C   UNL     1      30.431 -23.177 -14.700  0.00  0.00    +0.032 C 
ENDROOT
BRANCH   5  10
ATOM     10  O   UNL     1      35.071 -22.302 -13.498  0.00  0.00    -0.428 OA
BRANCH  10  11
ATOM     11  C   UNL     1      35.740 -23.406 -13.010  0.00  0.00    +0.148 C 
ATOM     12  C   UNL     1      37.577 -24.943 -13.142  0.00  0.00    +0.032 C 
ATOM     13  C   UNL     1      36.902 -23.826 -13.635  0.00  0.00    +0.040 C 
ATOM     14  C   UNL     1      35.234 -24.070 -11.905  0.00  0.00    +0.038 C 
ATOM     15  C   UNL     1      37.081 -25.623 -12.030  0.00  0.00    +0.003 C 
ATOM     16  C   UNL     1      35.909 -25.187 -11.411  0.00  0.00    +0.003 C 
BRANCH  12  19
ATOM     17  N   UNL     1      39.628 -26.232 -13.145  0.00  0.00    -0.387 N 
ATOM     18  N   UNL     1      39.102 -24.982 -15.023  0.00  0.00    -0.345 N 
ATOM     19  C   UNL     1      38.792 -25.395 -13.782  0.00  0.00    +0.096 C 
ATOM     20  H   UNL     1      40.453 -26.535 -13.588  0.00  0.00    +0.157 HD
ATOM     21  H   UNL     1      39.415 -26.543 -12.235  0.00  0.00    +0.157 HD
ATOM     22  H   UNL     1      39.931 -25.294 -15.453  0.00  0.00    +0.144 HD
ATOM     23  H   UNL     1      38.500 -24.368 -15.502  0.00  0.00    +0.144 HD
ENDBRANCH  12  19
ENDBRANCH  10  11
ENDBRANCH   5  10
BRANCH   6  24
ATOM     24  O   UNL     1      33.992 -22.701 -17.992  0.00  0.00    -0.426 OA
BRANCH  24  25
ATOM     25  C   UNL     1      33.725 -21.588 -18.727  0.00  0.00    +0.148 C 
ATOM     26  C   UNL     1      34.498 -19.660 -19.962  0.00  0.00    +0.034 C 
ATOM     27  C   UNL     1      34.772 -20.802 -19.210  0.00  0.00    +0.040 C 
ATOM     28  C   UNL     1      32.404 -21.230 -18.996  0.00  0.00    +0.038 C 
ATOM     29  C   UNL     1      33.177 -19.302 -20.231  0.00  0.00    +0.003 C 
ATOM     30  C   UNL     1      32.130 -20.088 -19.749  0.00  0.00    +0.003 C 
BRANCH  26  33
ATOM     31  N   UNL     1      35.621 -18.410 -21.790  0.00  0.00    -0.343 N 
ATOM     32  N   UNL     1      36.580 -18.498 -19.661  0.00  0.00    -0.285 NA
ATOM     33  C   UNL     1      35.590 -18.841 -20.465  0.00  0.00    +0.117 C 
ATOM     34  H   UNL     1      36.369 -17.857 -22.110  0.00  0.00    +0.144 HD
ATOM     35  H   UNL     1      34.894 -18.658 -22.406  0.00  0.00    +0.144 HD
ATOM     36  H   UNL     1      37.319 -17.944 -20.000  0.00  0.00    +0.188 HD
ENDBRANCH  26  33
ENDBRANCH  24  25
ENDBRANCH   6  24
TORSDOF 6
ENDMDL
MODEL 9
REMARK VINA RESULT:     -10.9      2.478      3.004
REMARK  Name = 4470378
REMARK  6 active torsions:
REMARK  status: ('A' for Active; 'I' for Inactive)
REMARK    1  A    between atoms: C_5  and  O_10
REMARK    2  A    between atoms: C_6  and  O_24
REMARK    3  A    between atoms: O_10  and  C_11
REMARK    4  A    between atoms: C_12  and  C_19
REMARK    5  A    between atoms: O_24  and  C_25
REMARK    6  A    between atoms: C_26  and  C_33
REMARK                            x       y       z     vdW  Elec       q    Type
REMARK                         _______ _______ _______ _____ _____    ______ ____
ROOT
ATOM      1  F   UNL     1      29.615 -21.672 -16.472  0.00  0.00    -0.221 F 
ATOM      2  F   UNL     1      31.727 -24.279 -13.106  0.00  0.00    -0.199 F 
ATOM      3  N   UNL     1      32.812 -23.388 -16.451  0.00  0.00    -0.331 NA
ATOM      4  C   UNL     1      30.628 -22.968 -14.756  0.00  0.00    +0.031 C 
ATOM      5  C   UNL     1      31.744 -22.650 -16.833  0.00  0.00    +0.298 C 
ATOM      6  C   UNL     1      32.753 -23.903 -15.210  0.00  0.00    +0.312 C 
ATOM      7  C   UNL     1      30.639 -22.412 -16.031  0.00  0.00    +0.270 C 
ATOM      8  C   UNL     1      31.708 -23.733 -14.328  0.00  0.00    +0.201 C 
ATOM      9  C   UNL     1      29.464 -22.745 -13.852  0.00  0.00    +0.032 C 
ENDROOT
BRANCH   5  10
ATOM     10  O   UNL     1      31.779 -22.115 -18.093  0.00  0.00    -0.428 OA
BRANCH  10  11
ATOM     11  C   UNL     1      32.950 -21.504 -18.492  0.00  0.00    +0.148 C 
ATOM     12  C   UNL     1      34.084 -19.869 -19.833  0.00  0.00    +0.032 C 
ATOM     13  C   UNL     1      32.898 -20.486 -19.430  0.00  0.00    +0.040 C 
ATOM     14  C   UNL     1      34.152 -21.922 -17.946  0.00  0.00    +0.038 C 
ATOM     15  C   UNL     1      35.302 -20.278 -19.292  0.00  0.00    +0.003 C 
ATOM     16  C   UNL     1      35.337 -21.305 -18.349  0.00  0.00    +0.003 C 
BRANCH  12  19
ATOM     17  N   UNL     1      34.549 -17.592 -20.517  0.00  0.00    -0.387 N 
ATOM     18  N   UNL     1      33.511 -19.013 -22.025  0.00  0.00    -0.345 N 
ATOM     19  C   UNL     1      34.048 -18.805 -20.811  0.00  0.00    +0.096 C 
ATOM     20  H   UNL     1      34.520 -16.873 -21.188  0.00  0.00    +0.157 HD
ATOM     21  H   UNL     1      34.944 -17.424 -19.631  0.00  0.00    +0.157 HD
ATOM     22  H   UNL     1      33.490 -18.282 -22.685  0.00  0.00    +0.144 HD
ATOM     23  H   UNL     1      33.139 -19.895 -22.254  0.00  0.00    +0.144 HD
ENDBRANCH  12  19
ENDBRANCH  10  11
ENDBRANCH   5  10
BRANCH   6  24
ATOM     24  O   UNL     1      33.840 -24.662 -14.810  0.00  0.00    -0.426 OA
BRANCH  24  25
ATOM     25  C   UNL     1      34.714 -24.101 -13.930  0.00  0.00    +0.148 C 
ATOM     26  C   UNL     1      35.428 -23.700 -11.657  0.00  0.00    +0.034 C 
ATOM     27  C   UNL     1      34.533 -24.277 -12.558  0.00  0.00    +0.040 C 
ATOM     28  C   UNL     1      35.789 -23.347 -14.401  0.00  0.00    +0.038 C 
ATOM     29  C   UNL     1      36.503 -22.946 -12.127  0.00  0.00    +0.003 C 
ATOM     30  C   UNL     1      36.684 -22.770 -13.499  0.00  0.00    +0.003 C 
BRANCH  26  33
ATOM     31  N   UNL     1      35.750 -22.971  -9.305  0.00  0.00    -0.343 N 
ATOM     32  N   UNL     1      34.576 -24.935  -9.779  0.00  0.00    -0.285 NA
ATOM     33  C   UNL     1      35.239 -23.884 -10.226  0.00  0.00    +0.117 C 
ATOM     34  H   UNL     1      35.611 -23.115  -8.342  0.00  0.00    +0.144 HD
ATOM     35  H   UNL     1      36.250 -22.183  -9.618  0.00  0.00    +0.144 HD
ATOM     36  H   UNL     1      34.447 -25.060  -8.812  0.00  0.00    +0.188 HD
ENDBRANCH  26  33
ENDBRANCH  24  25
ENDBRANCH   6  24
TORSDOF 6
ENDMDL
