MODEL 1
REMARK VINA RESULT:     -12.0      0.000      0.000
REMARK  Name = 4566
REMARK  6 active torsions:
REMARK  status: ('A' for Active; 'I' for Inactive)
REMARK    1  A    between atoms: N_4  and  C_14
REMARK    2  A    between atoms: C_6  and  O_26
REMARK    3  A    between atoms: C_15  and  S_20
REMARK    4  A    between atoms: S_20  and  N_23
REMARK    5  A    between atoms: O_26  and  C_27
REMARK    6  A    between atoms: C_27  and  C_28
REMARK                            x       y       z     vdW  Elec       q    Type
REMARK                         _______ _______ _______ _____ _____    ______ ____
ROOT
ATOM      1  N   UNL     1      32.994 -23.624 -14.777  0.00  0.00    -0.293 NA
ATOM      2  N   UNL     1      29.533 -22.658 -15.560  0.00  0.00    -0.266 NA
ATOM      3  N   UNL     1      31.445 -23.859 -12.906  0.00  0.00    -0.316 NA
ATOM      4  N   UNL     1      33.710 -24.402 -12.688  0.00  0.00    -0.238 N 
ATOM      5  N   UNL     1      29.160 -23.216 -13.435  0.00  0.00    -0.296 N 
ATOM      6  C   UNL     1      32.012 -23.173 -15.589  0.00  0.00    +0.288 C 
ATOM      7  C   UNL     1      30.741 -23.061 -15.066  0.00  0.00    +0.215 C 
ATOM      8  C   UNL     1      30.483 -23.404 -13.745  0.00  0.00    +0.196 C 
ATOM      9  C   UNL     1      32.654 -23.934 -13.503  0.00  0.00    +0.207 C 
ATOM     10  C   UNL     1      28.617 -22.768 -14.547  0.00  0.00    +0.164 C 
ATOM     11  H   UNL     1      29.353 -22.345 -16.476  0.00  0.00    +0.126 HD
ATOM     12  H   UNL     1      33.433 -24.620 -11.768  0.00  0.00    +0.166 HD
ATOM     13  H   UNL     1      28.716 -23.382 -12.572  0.00  0.00    +0.150 HD
ENDROOT
BRANCH   4  14
ATOM     14  C   UNL     1      35.077 -24.616 -12.933  0.00  0.00    +0.059 C 
ATOM     15  C   UNL     1      37.795 -25.043 -13.424  0.00  0.00    +0.122 C 
ATOM     16  C   UNL     1      36.040 -23.989 -12.140  0.00  0.00    +0.017 C 
ATOM     17  C   UNL     1      35.480 -25.458 -13.974  0.00  0.00    +0.017 C 
ATOM     18  C   UNL     1      37.397 -24.202 -12.383  0.00  0.00    +0.021 C 
ATOM     19  C   UNL     1      36.837 -25.670 -14.218  0.00  0.00    +0.021 C 
BRANCH  15  20
ATOM     20  S   UNL     1      39.494 -25.308 -13.730  0.00  0.00    +0.057 S 
ATOM     21  O   UNL     1      40.189 -24.035 -13.601  0.00  0.00    -0.153 OA
ATOM     22  O   UNL     1      39.931 -26.454 -12.944  0.00  0.00    -0.153 OA
BRANCH  20  23
ATOM     23  N   UNL     1      39.462 -25.755 -15.378  0.00  0.00    -0.203 NA
ATOM     24  H   UNL     1      40.308 -25.420 -15.838  0.00  0.00    +0.144 HD
ATOM     25  H   UNL     1      38.644 -25.341 -15.827  0.00  0.00    +0.144 HD
ENDBRANCH  20  23
ENDBRANCH  15  20
ENDBRANCH   4  14
BRANCH   6  26
ATOM     26  O   UNL     1      32.323 -22.848 -16.886  0.00  0.00    -0.453 OA
BRANCH  26  27
ATOM     27  C   UNL     1      33.649 -22.425 -17.143  0.00  0.00    +0.208 C 
BRANCH  27  28
ATOM     28  C   UNL     1      33.684 -21.751 -18.514  0.00  0.00    +0.044 C 
ATOM     29  C   UNL     1      32.445 -20.868 -18.718  0.00  0.00    +0.004 C 
ATOM     30  C   UNL     1      34.972 -20.933 -18.683  0.00  0.00    +0.004 C 
ATOM     31  C   UNL     1      32.484 -20.142 -20.060  0.00  0.00    +0.000 C 
ATOM     32  C   UNL     1      35.006 -20.207 -20.026  0.00  0.00    +0.000 C 
ATOM     33  C   UNL     1      33.769 -19.336 -20.227  0.00  0.00    +0.000 C 
ENDBRANCH  27  28
ENDBRANCH  26  27
ENDBRANCH   6  26
TORSDOF 6
ENDMDL
MODEL 2
REMARK VINA RESULT:     -12.0      3.311      7.015
REMARK  Name = 4566
REMARK  6 active torsions:
REMARK  status: ('A' for Active; 'I' for Inactive)
REMARK    1  A    between atoms: N_4  and  C_14
REMARK    2  A    between atoms: C_6  and  O_26
REMARK    3  A    between atoms: C_15  and  S_20
REMARK    4  A    between atoms: S_20  and  N_23
REMARK    5  A    between atoms: O_26  and  C_27
REMARK    6  A    between atoms: C_27  and  C_28
REMARK                            x       y       z     vdW  Elec       q    Type
REMARK                         _______ _______ _______ _____ _____    ______ ____
ROOT
ATOM      1  N   UNL     1      33.684 -23.718 -13.694  0.00  0.00    -0.293 NA
ATOM      2  N   UNL     1      37.223 -24.000 -12.734  0.00  0.00    -0.266 NA
ATOM      3  N   UNL     1      34.042 -24.130 -11.316  0.00  0.00    -0.316 NA
ATOM      4  N   UNL     1      31.889 -23.908 -12.203  0.00  0.00    -0.238 N 
ATOM      5  N   UNL     1      36.385 -24.316 -10.693  0.00  0.00    -0.296 N 
ATOM      6  C   UNL     1      35.013 -23.721 -13.939  0.00  0.00    +0.288 C 
ATOM      7  C   UNL     1      35.866 -23.930 -12.875  0.00  0.00    +0.215 C 
ATOM      8  C   UNL     1      35.368 -24.128 -11.594  0.00  0.00    +0.196 C 
ATOM      9  C   UNL     1      33.286 -23.920 -12.415  0.00  0.00    +0.207 C 
ATOM     10  C   UNL     1      37.486 -24.233 -11.409  0.00  0.00    +0.164 C 
ATOM     11  H   UNL     1      37.890 -23.901 -13.451  0.00  0.00    +0.126 HD
ATOM     12  H   UNL     1      31.629 -24.057 -11.264  0.00  0.00    +0.166 HD
ATOM     13  H   UNL     1      36.308 -24.476  -9.724  0.00  0.00    +0.150 HD
ENDROOT
BRANCH   4  14
ATOM     14  C   UNL     1      30.797 -23.726 -13.069  0.00  0.00    +0.059 C 
ATOM     15  C   UNL     1      28.628 -23.362 -14.793  0.00  0.00    +0.122 C 
ATOM     16  C   UNL     1      29.871 -24.754 -13.258  0.00  0.00    +0.017 C 
ATOM     17  C   UNL     1      30.634 -22.514 -13.747  0.00  0.00    +0.017 C 
ATOM     18  C   UNL     1      28.788 -24.573 -14.118  0.00  0.00    +0.021 C 
ATOM     19  C   UNL     1      29.550 -22.334 -14.607  0.00  0.00    +0.021 C 
BRANCH  15  20
ATOM     20  S   UNL     1      27.273 -23.136 -15.870  0.00  0.00    +0.057 S 
ATOM     21  O   UNL     1      27.597 -22.062 -16.798  0.00  0.00    -0.153 OA
ATOM     22  O   UNL     1      26.868 -24.437 -16.383  0.00  0.00    -0.153 OA
BRANCH  20  23
ATOM     23  N   UNL     1      26.079 -22.582 -14.780  0.00  0.00    -0.203 NA
ATOM     24  H   UNL     1      26.270 -22.954 -13.850  0.00  0.00    +0.144 HD
ATOM     25  H   UNL     1      25.161 -22.900 -15.091  0.00  0.00    +0.144 HD
ENDBRANCH  20  23
ENDBRANCH  15  20
ENDBRANCH   4  14
BRANCH   6  26
ATOM     26  O   UNL     1      35.450 -23.521 -15.225  0.00  0.00    -0.453 OA
BRANCH  26  27
ATOM     27  C   UNL     1      35.463 -22.188 -15.700  0.00  0.00    +0.208 C 
BRANCH  27  28
ATOM     28  C   UNL     1      34.826 -22.162 -17.088  0.00  0.00    +0.044 C 
ATOM     29  C   UNL     1      33.298 -22.075 -16.983  0.00  0.00    +0.004 C 
ATOM     30  C   UNL     1      35.385 -20.999 -17.919  0.00  0.00    +0.004 C 
ATOM     31  C   UNL     1      32.641 -21.994 -18.359  0.00  0.00    +0.000 C 
ATOM     32  C   UNL     1      34.724 -20.920 -19.294  0.00  0.00    +0.000 C 
ATOM     33  C   UNL     1      33.205 -20.841 -19.185  0.00  0.00    +0.000 C 
ENDBRANCH  27  28
ENDBRANCH  26  27
ENDBRANCH   6  26
TORSDOF 6
ENDMDL
MODEL 3
REMARK VINA RESULT:     -11.2      3.532      7.297
REMARK  Name = 4566
REMARK  6 active torsions:
REMARK  status: ('A' for Active; 'I' for Inactive)
REMARK    1  A    between atoms: N_4  and  C_14
REMARK    2  A    between atoms: C_6  and  O_26
REMARK    3  A    between atoms: C_15  and  S_20
REMARK    4  A    between atoms: S_20  and  N_23
REMARK    5  A    between atoms: O_26  and  C_27
REMARK    6  A    between atoms: C_27  and  C_28
REMARK                            x       y       z     vdW  Elec       q    Type
REMARK                         _______ _______ _______ _____ _____    ______ ____
ROOT
ATOM      1  N   UNL     1      32.986 -22.371 -15.725  0.00  0.00    -0.293 NA
ATOM      2  N   UNL     1      31.993 -24.255 -12.726  0.00  0.00    -0.266 NA
ATOM      3  N   UNL     1      30.784 -23.409 -15.883  0.00  0.00    -0.316 NA
ATOM      4  N   UNL     1      31.667 -22.151 -17.647  0.00  0.00    -0.238 N 
ATOM      5  N   UNL     1      30.138 -24.653 -13.896  0.00  0.00    -0.296 N 
ATOM      6  C   UNL     1      33.171 -22.853 -14.476  0.00  0.00    +0.288 C 
ATOM      7  C   UNL     1      32.164 -23.617 -13.922  0.00  0.00    +0.215 C 
ATOM      8  C   UNL     1      30.999 -23.878 -14.630  0.00  0.00    +0.196 C 
ATOM      9  C   UNL     1      31.820 -22.675 -16.343  0.00  0.00    +0.207 C 
ATOM     10  C   UNL     1      30.764 -24.861 -12.758  0.00  0.00    +0.164 C 
ATOM     11  H   UNL     1      32.633 -24.276 -11.979  0.00  0.00    +0.126 HD
ATOM     12  H   UNL     1      30.810 -22.387 -18.071  0.00  0.00    +0.166 HD
ATOM     13  H   UNL     1      29.248 -24.979 -14.162  0.00  0.00    +0.150 HD
ENDROOT
BRANCH   4  14
ATOM     14  C   UNL     1      32.499 -21.359 -18.456  0.00  0.00    +0.059 C 
ATOM     15  C   UNL     1      34.151 -19.781 -20.065  0.00  0.00    +0.122 C 
ATOM     16  C   UNL     1      33.886 -21.510 -18.399  0.00  0.00    +0.017 C 
ATOM     17  C   UNL     1      31.941 -20.414 -19.323  0.00  0.00    +0.017 C 
ATOM     18  C   UNL     1      34.712 -20.722 -19.202  0.00  0.00    +0.021 C 
ATOM     19  C   UNL     1      32.767 -19.627 -20.126  0.00  0.00    +0.021 C 
BRANCH  15  20
ATOM     20  S   UNL     1      35.185 -18.795 -21.070  0.00  0.00    +0.057 S 
ATOM     21  O   UNL     1      36.565 -19.004 -20.656  0.00  0.00    -0.153 OA
ATOM     22  O   UNL     1      34.808 -19.001 -22.462  0.00  0.00    -0.153 OA
BRANCH  20  23
ATOM     23  N   UNL     1      34.698 -17.227 -20.598  0.00  0.00    -0.203 NA
ATOM     24  H   UNL     1      35.096 -16.540 -21.239  0.00  0.00    +0.144 HD
ATOM     25  H   UNL     1      35.028 -17.039 -19.651  0.00  0.00    +0.144 HD
ENDBRANCH  20  23
ENDBRANCH  15  20
ENDBRANCH   4  14
BRANCH   6  26
ATOM     26  O   UNL     1      34.343 -22.565 -13.821  0.00  0.00    -0.453 OA
BRANCH  26  27
ATOM     27  C   UNL     1      35.549 -22.835 -14.512  0.00  0.00    +0.208 C 
BRANCH  27  28
ATOM     28  C   UNL     1      36.348 -23.859 -13.708  0.00  0.00    +0.044 C 
ATOM     29  C   UNL     1      36.325 -23.513 -12.213  0.00  0.00    +0.004 C 
ATOM     30  C   UNL     1      35.811 -25.276 -13.951  0.00  0.00    +0.004 C 
ATOM     31  C   UNL     1      37.074 -24.553 -11.382  0.00  0.00    +0.000 C 
ATOM     32  C   UNL     1      36.561 -26.313 -13.116  0.00  0.00    +0.000 C 
ATOM     33  C   UNL     1      36.542 -25.961 -11.632  0.00  0.00    +0.000 C 
ENDBRANCH  27  28
ENDBRANCH  26  27
ENDBRANCH   6  26
TORSDOF 6
ENDMDL
MODEL 4
REMARK VINA RESULT:     -11.1      2.943      5.535
REMARK  Name = 4566
REMARK  6 active torsions:
REMARK  status: ('A' for Active; 'I' for Inactive)
REMARK    1  A    between atoms: N_4  and  C_14
REMARK    2  A    between atoms: C_6  and  O_26
REMARK    3  A    between atoms: C_15  and  S_20
REMARK    4  A    between atoms: S_20  and  N_23
REMARK    5  A    between atoms: O_26  and  C_27
REMARK    6  A    between atoms: C_27  and  C_28
REMARK                            x       y       z     vdW  Elec       q    Type
REMARK                         _______ _______ _______ _____ _____    ______ ____
ROOT
ATOM      1  N   UNL     1      34.156 -21.918 -17.028  0.00  0.00    -0.293 NA
ATOM      2  N   UNL     1      32.948 -20.326 -20.115  0.00  0.00    -0.266 NA
ATOM      3  N   UNL     1      35.850 -20.618 -18.208  0.00  0.00    -0.316 NA
ATOM      4  N   UNL     1      36.344 -21.737 -16.215  0.00  0.00    -0.238 N 
ATOM      5  N   UNL     1      35.041 -19.570 -20.248  0.00  0.00    -0.296 N 
ATOM      6  C   UNL     1      33.220 -21.622 -17.957  0.00  0.00    +0.288 C 
ATOM      7  C   UNL     1      33.592 -20.823 -19.018  0.00  0.00    +0.215 C 
ATOM      8  C   UNL     1      34.889 -20.339 -19.122  0.00  0.00    +0.196 C 
ATOM      9  C   UNL     1      35.396 -21.404 -17.209  0.00  0.00    +0.207 C 
ATOM     10  C   UNL     1      33.857 -19.582 -20.822  0.00  0.00    +0.164 C 
ATOM     11  H   UNL     1      32.005 -20.474 -20.355  0.00  0.00    +0.126 HD
ATOM     12  H   UNL     1      37.236 -21.350 -16.371  0.00  0.00    +0.166 HD
ATOM     13  H   UNL     1      35.855 -19.110 -20.556  0.00  0.00    +0.150 HD
ENDROOT
BRANCH   4  14
ATOM     14  C   UNL     1      36.263 -22.514 -15.045  0.00  0.00    +0.059 C 
ATOM     15  C   UNL     1      36.105 -24.056 -12.721  0.00  0.00    +0.122 C 
ATOM     16  C   UNL     1      35.218 -22.315 -14.141  0.00  0.00    +0.017 C 
ATOM     17  C   UNL     1      37.230 -23.488 -14.782  0.00  0.00    +0.017 C 
ATOM     18  C   UNL     1      35.138 -23.084 -12.980  0.00  0.00    +0.021 C 
ATOM     19  C   UNL     1      37.150 -24.258 -13.621  0.00  0.00    +0.021 C 
BRANCH  15  20
ATOM     20  S   UNL     1      36.005 -25.020 -11.268  0.00  0.00    +0.057 S 
ATOM     21  O   UNL     1      36.176 -26.419 -11.631  0.00  0.00    -0.153 OA
ATOM     22  O   UNL     1      36.870 -24.424 -10.259  0.00  0.00    -0.153 OA
BRANCH  20  23
ATOM     23  N   UNL     1      34.378 -24.761 -10.816  0.00  0.00    -0.203 NA
ATOM     24  H   UNL     1      33.860 -24.383 -11.610  0.00  0.00    +0.144 HD
ATOM     25  H   UNL     1      34.342 -24.097 -10.042  0.00  0.00    +0.144 HD
ENDBRANCH  20  23
ENDBRANCH  15  20
ENDBRANCH   4  14
BRANCH   6  26
ATOM     26  O   UNL     1      31.953 -22.128 -17.804  0.00  0.00    -0.453 OA
BRANCH  26  27
ATOM     27  C   UNL     1      31.799 -23.223 -16.922  0.00  0.00    +0.208 C 
BRANCH  27  28
ATOM     28  C   UNL     1      31.165 -22.717 -15.627  0.00  0.00    +0.044 C 
ATOM     29  C   UNL     1      29.645 -22.925 -15.650  0.00  0.00    +0.004 C 
ATOM     30  C   UNL     1      31.793 -23.409 -14.410  0.00  0.00    +0.004 C 
ATOM     31  C   UNL     1      28.994 -22.476 -14.344  0.00  0.00    +0.000 C 
ATOM     32  C   UNL     1      31.138 -22.958 -13.106  0.00  0.00    +0.000 C 
ATOM     33  C   UNL     1      29.626 -23.160 -13.136  0.00  0.00    +0.000 C 
ENDBRANCH  27  28
ENDBRANCH  26  27
ENDBRANCH   6  26
TORSDOF 6
ENDMDL
MODEL 5
REMARK VINA RESULT:     -10.6      1.459      2.260
REMARK  Name = 4566
REMARK  6 active torsions:
REMARK  status: ('A' for Active; 'I' for Inactive)
REMARK    1  A    between atoms: N_4  and  C_14
REMARK    2  A    between atoms: C_6  and  O_26
REMARK    3  A    between atoms: C_15  and  S_20
REMARK    4  A    between atoms: S_20  and  N_23
REMARK    5  A    between atoms: O_26  and  C_27
REMARK    6  A    between atoms: C_27  and  C_28
REMARK                            x       y       z     vdW  Elec       q    Type
REMARK                         _______ _______ _______ _____ _____    ______ ____
ROOT
ATOM      1  N   UNL     1      31.474 -23.170 -15.019  0.00  0.00    -0.293 NA
ATOM      2  N   UNL     1      28.146 -22.226 -16.267  0.00  0.00    -0.266 NA
ATOM      3  N   UNL     1      29.631 -23.911 -13.603  0.00  0.00    -0.316 NA
ATOM      4  N   UNL     1      31.856 -24.375 -13.048  0.00  0.00    -0.238 N 
ATOM      5  N   UNL     1      27.436 -23.281 -14.437  0.00  0.00    -0.296 N 
ATOM      6  C   UNL     1      30.624 -22.593 -15.898  0.00  0.00    +0.288 C 
ATOM      7  C   UNL     1      29.272 -22.671 -15.635  0.00  0.00    +0.215 C 
ATOM      8  C   UNL     1      28.805 -23.324 -14.502  0.00  0.00    +0.196 C 
ATOM      9  C   UNL     1      30.932 -23.785 -13.941  0.00  0.00    +0.207 C 
ATOM     10  C   UNL     1      27.071 -22.615 -15.511  0.00  0.00    +0.164 C 
ATOM     11  H   UNL     1      28.112 -21.718 -17.110  0.00  0.00    +0.126 HD
ATOM     12  H   UNL     1      31.433 -24.815 -12.275  0.00  0.00    +0.166 HD
ATOM     13  H   UNL     1      26.855 -23.665 -13.741  0.00  0.00    +0.150 HD
ENDROOT
BRANCH   4  14
ATOM     14  C   UNL     1      33.259 -24.456 -13.048  0.00  0.00    +0.059 C 
ATOM     15  C   UNL     1      36.049 -24.620 -13.046  0.00  0.00    +0.122 C 
ATOM     16  C   UNL     1      33.936 -24.914 -14.181  0.00  0.00    +0.017 C 
ATOM     17  C   UNL     1      33.984 -24.081 -11.914  0.00  0.00    +0.017 C 
ATOM     18  C   UNL     1      35.329 -24.996 -14.181  0.00  0.00    +0.021 C 
ATOM     19  C   UNL     1      35.377 -24.163 -11.914  0.00  0.00    +0.021 C 
BRANCH  15  20
ATOM     20  S   UNL     1      37.792 -24.723 -13.045  0.00  0.00    +0.057 S 
ATOM     21  O   UNL     1      38.299 -23.929 -11.935  0.00  0.00    -0.153 OA
ATOM     22  O   UNL     1      38.172 -26.124 -13.166  0.00  0.00    -0.153 OA
BRANCH  20  23
ATOM     23  N   UNL     1      38.166 -23.926 -14.509  0.00  0.00    -0.203 NA
ATOM     24  H   UNL     1      38.721 -23.093 -14.311  0.00  0.00    +0.144 HD
ATOM     25  H   UNL     1      37.301 -23.654 -14.979  0.00  0.00    +0.144 HD
ENDBRANCH  20  23
ENDBRANCH  15  20
ENDBRANCH   4  14
BRANCH   6  26
ATOM     26  O   UNL     1      31.141 -21.960 -17.001  0.00  0.00    -0.453 OA
BRANCH  26  27
ATOM     27  C   UNL     1      32.211 -22.602 -17.669  0.00  0.00    +0.208 C 
BRANCH  27  28
ATOM     28  C   UNL     1      33.383 -21.626 -17.754  0.00  0.00    +0.044 C 
ATOM     29  C   UNL     1      34.548 -22.097 -16.873  0.00  0.00    +0.004 C 
ATOM     30  C   UNL     1      33.836 -21.449 -19.210  0.00  0.00    +0.004 C 
ATOM     31  C   UNL     1      35.752 -21.165 -16.983  0.00  0.00    +0.000 C 
ATOM     32  C   UNL     1      35.041 -20.517 -19.316  0.00  0.00    +0.000 C 
ATOM     33  C   UNL     1      36.194 -20.986 -18.432  0.00  0.00    +0.000 C 
ENDBRANCH  27  28
ENDBRANCH  26  27
ENDBRANCH   6  26
TORSDOF 6
ENDMDL
MODEL 6
REMARK VINA RESULT:      -9.8      3.773      7.505
REMARK  Name = 4566
REMARK  6 active torsions:
REMARK  status: ('A' for Active; 'I' for Inactive)
REMARK    1  A    between atoms: N_4  and  C_14
REMARK    2  A    between atoms: C_6  and  O_26
REMARK    3  A    between atoms: C_15  and  S_20
REMARK    4  A    between atoms: S_20  and  N_23
REMARK    5  A    between atoms: O_26  and  C_27
REMARK    6  A    between atoms: C_27  and  C_28
REMARK                            x       y       z     vdW  Elec       q    Type
REMARK                         _______ _______ _______ _____ _____    ______ ____
ROOT
ATOM      1  N   UNL     1      34.101 -22.541 -15.801  0.00  0.00    -0.293 NA
ATOM      2  N   UNL     1      34.038 -24.452 -12.659  0.00  0.00    -0.266 NA
ATOM      3  N   UNL     1      36.300 -22.901 -14.808  0.00  0.00    -0.316 NA
ATOM      4  N   UNL     1      36.047 -21.716 -16.809  0.00  0.00    -0.238 N 
ATOM      5  N   UNL     1      36.246 -24.164 -12.731  0.00  0.00    -0.296 N 
ATOM      6  C   UNL     1      33.492 -23.215 -14.800  0.00  0.00    +0.288 C 
ATOM      7  C   UNL     1      34.282 -23.736 -13.796  0.00  0.00    +0.215 C 
ATOM      8  C   UNL     1      35.660 -23.570 -13.819  0.00  0.00    +0.196 C 
ATOM      9  C   UNL     1      35.449 -22.427 -15.743  0.00  0.00    +0.207 C 
ATOM     10  C   UNL     1      35.246 -24.684 -12.054  0.00  0.00    +0.164 C 
ATOM     11  H   UNL     1      33.157 -24.746 -12.332  0.00  0.00    +0.126 HD
ATOM     12  H   UNL     1      37.027 -21.650 -16.741  0.00  0.00    +0.166 HD
ATOM     13  H   UNL     1      37.205 -24.195 -12.507  0.00  0.00    +0.150 HD
ENDROOT
BRANCH   4  14
ATOM     14  C   UNL     1      35.515 -21.085 -17.947  0.00  0.00    +0.059 C 
ATOM     15  C   UNL     1      34.455 -19.829 -20.207  0.00  0.00    +0.122 C 
ATOM     16  C   UNL     1      36.275 -20.149 -18.651  0.00  0.00    +0.017 C 
ATOM     17  C   UNL     1      34.221 -21.390 -18.379  0.00  0.00    +0.017 C 
ATOM     18  C   UNL     1      35.747 -19.521 -19.779  0.00  0.00    +0.021 C 
ATOM     19  C   UNL     1      33.693 -20.763 -19.507  0.00  0.00    +0.021 C 
BRANCH  15  20
ATOM     20  S   UNL     1      33.794 -19.044 -21.620  0.00  0.00    +0.057 S 
ATOM     21  O   UNL     1      34.575 -19.450 -22.780  0.00  0.00    -0.153 OA
ATOM     22  O   UNL     1      32.350 -19.232 -21.619  0.00  0.00    -0.153 OA
BRANCH  20  23
ATOM     23  N   UNL     1      34.133 -17.407 -21.271  0.00  0.00    -0.203 NA
ATOM     24  H   UNL     1      33.638 -16.808 -21.932  0.00  0.00    +0.144 HD
ATOM     25  H   UNL     1      35.137 -17.243 -21.352  0.00  0.00    +0.144 HD
ENDBRANCH  20  23
ENDBRANCH  15  20
ENDBRANCH   4  14
BRANCH   6  26
ATOM     26  O   UNL     1      32.125 -23.347 -14.827  0.00  0.00    -0.453 OA
BRANCH  26  27
ATOM     27  C   UNL     1      31.392 -22.660 -13.831  0.00  0.00    +0.208 C 
BRANCH  27  28
ATOM     28  C   UNL     1      29.903 -22.895 -14.077  0.00  0.00    +0.044 C 
ATOM     29  C   UNL     1      29.513 -22.468 -15.498  0.00  0.00    +0.004 C 
ATOM     30  C   UNL     1      29.539 -24.365 -13.829  0.00  0.00    +0.004 C 
ATOM     31  C   UNL     1      28.039 -22.743 -15.787  0.00  0.00    +0.000 C 
ATOM     32  C   UNL     1      28.064 -24.637 -14.120  0.00  0.00    +0.000 C 
ATOM     33  C   UNL     1      27.680 -24.204 -15.531  0.00  0.00    +0.000 C 
ENDBRANCH  27  28
ENDBRANCH  26  27
ENDBRANCH   6  26
TORSDOF 6
ENDMDL
MODEL 7
REMARK VINA RESULT:      -9.4     14.166     18.152
REMARK  Name = 4566
REMARK  6 active torsions:
REMARK  status: ('A' for Active; 'I' for Inactive)
REMARK    1  A    between atoms: N_4  and  C_14
REMARK    2  A    between atoms: C_6  and  O_26
REMARK    3  A    between atoms: C_15  and  S_20
REMARK    4  A    between atoms: S_20  and  N_23
REMARK    5  A    between atoms: O_26  and  C_27
REMARK    6  A    between atoms: C_27  and  C_28
REMARK                            x       y       z     vdW  Elec       q    Type
REMARK                         _______ _______ _______ _____ _____    ______ ____
ROOT
ATOM      1  N   UNL     1      32.202  -9.850 -22.687  0.00  0.00    -0.293 NA
ATOM      2  N   UNL     1      33.525 -13.269 -22.978  0.00  0.00    -0.266 NA
ATOM      3  N   UNL     1      31.339 -11.400 -21.011  0.00  0.00    -0.316 NA
ATOM      4  N   UNL     1      30.666  -9.160 -21.060  0.00  0.00    -0.238 N 
ATOM      5  N   UNL     1      32.220 -13.657 -21.213  0.00  0.00    -0.296 N 
ATOM      6  C   UNL     1      32.964 -10.815 -23.249  0.00  0.00    +0.288 C 
ATOM      7  C   UNL     1      32.918 -12.078 -22.697  0.00  0.00    +0.215 C 
ATOM      8  C   UNL     1      32.114 -12.344 -21.597  0.00  0.00    +0.196 C 
ATOM      9  C   UNL     1      31.447 -10.198 -21.617  0.00  0.00    +0.207 C 
ATOM     10  C   UNL     1      33.075 -14.185 -22.063  0.00  0.00    +0.164 C 
ATOM     11  H   UNL     1      34.168 -13.439 -23.704  0.00  0.00    +0.126 HD
ATOM     12  H   UNL     1      30.128  -9.441 -20.284  0.00  0.00    +0.166 HD
ATOM     13  H   UNL     1      31.759 -14.104 -20.467  0.00  0.00    +0.150 HD
ENDROOT
BRANCH   4  14
ATOM     14  C   UNL     1      30.506  -7.805 -21.397  0.00  0.00    +0.059 C 
ATOM     15  C   UNL     1      30.186  -5.111 -22.067  0.00  0.00    +0.122 C 
ATOM     16  C   UNL     1      30.757  -6.811 -20.448  0.00  0.00    +0.017 C 
ATOM     17  C   UNL     1      30.093  -7.445 -22.683  0.00  0.00    +0.017 C 
ATOM     18  C   UNL     1      30.598  -5.466 -20.782  0.00  0.00    +0.021 C 
ATOM     19  C   UNL     1      29.934  -6.100 -23.016  0.00  0.00    +0.021 C 
BRANCH  15  20
ATOM     20  S   UNL     1      29.985  -3.427 -22.485  0.00  0.00    +0.057 S 
ATOM     21  O   UNL     1      31.305  -2.825 -22.612  0.00  0.00    -0.153 OA
ATOM     22  O   UNL     1      29.038  -3.335 -23.587  0.00  0.00    -0.153 OA
BRANCH  20  23
ATOM     23  N   UNL     1      29.239  -2.827 -21.070  0.00  0.00    -0.203 NA
ATOM     24  H   UNL     1      28.307  -2.480 -21.298  0.00  0.00    +0.144 HD
ATOM     25  H   UNL     1      29.800  -2.066 -20.686  0.00  0.00    +0.144 HD
ENDBRANCH  20  23
ENDBRANCH  15  20
ENDBRANCH   4  14
BRANCH   6  26
ATOM     26  O   UNL     1      33.740 -10.496 -24.335  0.00  0.00    -0.453 OA
BRANCH  26  27
ATOM     27  C   UNL     1      34.632  -9.407 -24.192  0.00  0.00    +0.208 C 
BRANCH  27  28
ATOM     28  C   UNL     1      33.814  -8.122 -24.081  0.00  0.00    +0.044 C 
ATOM     29  C   UNL     1      34.333  -7.244 -22.935  0.00  0.00    +0.004 C 
ATOM     30  C   UNL     1      33.832  -7.353 -25.410  0.00  0.00    +0.004 C 
ATOM     31  C   UNL     1      33.565  -5.928 -22.838  0.00  0.00    +0.000 C 
ATOM     32  C   UNL     1      33.064  -6.036 -25.308  0.00  0.00    +0.000 C 
ATOM     33  C   UNL     1      33.578  -5.171 -24.162  0.00  0.00    +0.000 C 
ENDBRANCH  27  28
ENDBRANCH  26  27
ENDBRANCH   6  26
TORSDOF 6
ENDMDL
MODEL 8
REMARK VINA RESULT:      -9.2      8.110     11.489
REMARK  Name = 4566
REMARK  6 active torsions:
REMARK  status: ('A' for Active; 'I' for Inactive)
REMARK    1  A    between atoms: N_4  and  C_14
REMARK    2  A    between atoms: C_6  and  O_26
REMARK    3  A    between atoms: C_15  and  S_20
REMARK    4  A    between atoms: S_20  and  N_23
REMARK    5  A    between atoms: O_26  and  C_27
REMARK    6  A    between atoms: C_27  and  C_28
REMARK                            x       y       z     vdW  Elec       q    Type
REMARK                         _______ _______ _______ _____ _____    ______ ____
ROOT
ATOM      1  N   UNL     1      33.518 -15.346 -22.348  0.00  0.00    -0.293 NA
ATOM      2  N   UNL     1      32.635 -12.207 -24.048  0.00  0.00    -0.266 NA
ATOM      3  N   UNL     1      33.476 -15.508 -24.782  0.00  0.00    -0.316 NA
ATOM      4  N   UNL     1      34.006 -17.355 -23.448  0.00  0.00    -0.238 N 
ATOM      5  N   UNL     1      32.891 -13.427 -25.895  0.00  0.00    -0.296 N 
ATOM      6  C   UNL     1      33.174 -14.040 -22.386  0.00  0.00    +0.288 C 
ATOM      7  C   UNL     1      32.978 -13.458 -23.622  0.00  0.00    +0.215 C 
ATOM      8  C   UNL     1      33.132 -14.198 -24.787  0.00  0.00    +0.196 C 
ATOM      9  C   UNL     1      33.645 -15.991 -23.532  0.00  0.00    +0.207 C 
ATOM     10  C   UNL     1      32.595 -12.238 -25.418  0.00  0.00    +0.164 C 
ATOM     11  H   UNL     1      32.451 -11.426 -23.478  0.00  0.00    +0.126 HD
ATOM     12  H   UNL     1      34.093 -17.797 -24.324  0.00  0.00    +0.166 HD
ATOM     13  H   UNL     1      32.931 -13.704 -26.840  0.00  0.00    +0.150 HD
ENDROOT
BRANCH   4  14
ATOM     14  C   UNL     1      34.266 -18.204 -22.358  0.00  0.00    +0.059 C 
ATOM     15  C   UNL     1      34.782 -19.893 -20.193  0.00  0.00    +0.122 C 
ATOM     16  C   UNL     1      35.543 -18.253 -21.795  0.00  0.00    +0.017 C 
ATOM     17  C   UNL     1      33.247 -19.004 -21.833  0.00  0.00    +0.017 C 
ATOM     18  C   UNL     1      35.801 -19.096 -20.714  0.00  0.00    +0.021 C 
ATOM     19  C   UNL     1      33.506 -19.847 -20.752  0.00  0.00    +0.021 C 
BRANCH  15  20
ATOM     20  S   UNL     1      35.105 -20.949 -18.840  0.00  0.00    +0.057 S 
ATOM     21  O   UNL     1      35.563 -22.231 -19.356  0.00  0.00    -0.153 OA
ATOM     22  O   UNL     1      35.919 -20.225 -17.874  0.00  0.00    -0.153 OA
BRANCH  20  23
ATOM     23  N   UNL     1      33.534 -21.144 -18.196  0.00  0.00    -0.203 NA
ATOM     24  H   UNL     1      33.525 -21.937 -17.555  0.00  0.00    +0.144 HD
ATOM     25  H   UNL     1      32.874 -21.313 -18.955  0.00  0.00    +0.144 HD
ENDBRANCH  20  23
ENDBRANCH  15  20
ENDBRANCH   4  14
BRANCH   6  26
ATOM     26  O   UNL     1      33.035 -13.357 -21.203  0.00  0.00    -0.453 OA
BRANCH  26  27
ATOM     27  C   UNL     1      31.723 -12.982 -20.827  0.00  0.00    +0.208 C 
BRANCH  27  28
ATOM     28  C   UNL     1      31.759 -11.543 -20.316  0.00  0.00    +0.044 C 
ATOM     29  C   UNL     1      31.143 -10.585 -21.345  0.00  0.00    +0.004 C 
ATOM     30  C   UNL     1      31.040 -11.429 -18.965  0.00  0.00    +0.004 C 
ATOM     31  C   UNL     1      31.119  -9.147 -20.835  0.00  0.00    +0.000 C 
ATOM     32  C   UNL     1      31.017  -9.988 -18.458  0.00  0.00    +0.000 C 
ATOM     33  C   UNL     1      30.410  -9.040 -19.488  0.00  0.00    +0.000 C 
ENDBRANCH  27  28
ENDBRANCH  26  27
ENDBRANCH   6  26
TORSDOF 6
ENDMDL
MODEL 9
REMARK VINA RESULT:      -9.1     13.928     16.590
REMARK  Name = 4566
REMARK  6 active torsions:
REMARK  status: ('A' for Active; 'I' for Inactive)
REMARK    1  A    between atoms: N_4  and  C_14
REMARK    2  A    between atoms: C_6  and  O_26
REMARK    3  A    between atoms: C_15  and  S_20
REMARK    4  A    between atoms: S_20  and  N_23
REMARK    5  A    between atoms: O_26  and  C_27
REMARK    6  A    between atoms: C_27  and  C_28
REMARK                            x       y       z     vdW  Elec       q    Type
REMARK                         _______ _______ _______ _____ _____    ______ ____
ROOT
ATOM      1  N   UNL     1      32.433 -11.070 -22.807  0.00  0.00    -0.293 NA
ATOM      2  N   UNL     1      33.432 -13.659 -25.221  0.00  0.00    -0.266 NA
ATOM      3  N   UNL     1      31.690 -13.318 -22.222  0.00  0.00    -0.316 NA
ATOM      4  N   UNL     1      31.194 -11.480 -20.864  0.00  0.00    -0.238 N 
ATOM      5  N   UNL     1      32.356 -15.022 -23.825  0.00  0.00    -0.296 N 
ATOM      6  C   UNL     1      33.033 -11.515 -23.934  0.00  0.00    +0.288 C 
ATOM      7  C   UNL     1      32.965 -12.864 -24.213  0.00  0.00    +0.215 C 
ATOM      8  C   UNL     1      32.301 -13.733 -23.358  0.00  0.00    +0.196 C 
ATOM      9  C   UNL     1      31.807 -11.987 -22.032  0.00  0.00    +0.207 C 
ATOM     10  C   UNL     1      33.042 -14.943 -24.945  0.00  0.00    +0.164 C 
ATOM     11  H   UNL     1      33.953 -13.364 -26.003  0.00  0.00    +0.126 HD
ATOM     12  H   UNL     1      30.748 -12.169 -20.319  0.00  0.00    +0.166 HD
ATOM     13  H   UNL     1      31.968 -15.828 -23.412  0.00  0.00    +0.150 HD
ENDROOT
BRANCH   4  14
ATOM     14  C   UNL     1      31.096 -10.185 -20.327  0.00  0.00    +0.059 C 
ATOM     15  C   UNL     1      30.904  -7.610 -19.257  0.00  0.00    +0.122 C 
ATOM     16  C   UNL     1      31.160  -9.070 -21.165  0.00  0.00    +0.017 C 
ATOM     17  C   UNL     1      30.937 -10.006 -18.949  0.00  0.00    +0.017 C 
ATOM     18  C   UNL     1      31.064  -7.784 -20.632  0.00  0.00    +0.021 C 
ATOM     19  C   UNL     1      30.841  -8.721 -18.416  0.00  0.00    +0.021 C 
BRANCH  15  20
ATOM     20  S   UNL     1      30.784  -6.001 -18.589  0.00  0.00    +0.057 S 
ATOM     21  O   UNL     1      29.800  -6.021 -17.516  0.00  0.00    -0.153 OA
ATOM     22  O   UNL     1      32.130  -5.509 -18.328  0.00  0.00    -0.153 OA
BRANCH  20  23
ATOM     23  N   UNL     1      30.137  -5.145 -19.917  0.00  0.00    -0.203 NA
ATOM     24  H   UNL     1      30.890  -4.879 -20.551  0.00  0.00    +0.144 HD
ATOM     25  H   UNL     1      29.663  -4.305 -19.582  0.00  0.00    +0.144 HD
ENDBRANCH  20  23
ENDBRANCH  15  20
ENDBRANCH   4  14
BRANCH   6  26
ATOM     26  O   UNL     1      33.675 -10.610 -24.743  0.00  0.00    -0.453 OA
BRANCH  26  27
ATOM     27  C   UNL     1      34.513  -9.661 -24.110  0.00  0.00    +0.208 C 
BRANCH  27  28
ATOM     28  C   UNL     1      33.773  -8.326 -24.052  0.00  0.00    +0.044 C 
ATOM     29  C   UNL     1      34.224  -7.508 -22.834  0.00  0.00    +0.004 C 
ATOM     30  C   UNL     1      33.982  -7.534 -25.350  0.00  0.00    +0.004 C 
ATOM     31  C   UNL     1      33.537  -6.146 -22.783  0.00  0.00    +0.000 C 
ATOM     32  C   UNL     1      33.295  -6.170 -25.294  0.00  0.00    +0.000 C 
ATOM     33  C   UNL     1      33.741  -5.365 -24.078  0.00  0.00    +0.000 C 
ENDBRANCH  27  28
ENDBRANCH  26  27
ENDBRANCH   6  26
TORSDOF 6
ENDMDL
