MODEL 1
REMARK VINA RESULT:     -12.6      0.000      0.000
REMARK  Name = 11952989
REMARK  5 active torsions:
REMARK  status: ('A' for Active; 'I' for Inactive)
REMARK    1  A    between atoms: C_4  and  C_21
REMARK    2  A    between atoms: C_6  and  C_11
REMARK    3  A    between atoms: C_24  and  C_27
REMARK    4  A    between atoms: C_27  and  C_29
REMARK    5  A    between atoms: C_29  and  O_30
REMARK                            x       y       z     vdW  Elec       q    Type
REMARK                         _______ _______ _______ _____ _____    ______ ____
ROOT
ATOM      1  N   UNL     1      33.048 -13.999 -25.108  0.00  0.00    -0.297 N 
ATOM      2  N   UNL     1      34.023 -16.179 -24.791  0.00  0.00    -0.229 NA
ATOM      3  C   UNL     1      33.089 -14.771 -23.014  0.00  0.00    +0.033 C 
ATOM      4  C   UNL     1      32.485 -13.485 -23.018  0.00  0.00    +0.017 C 
ATOM      5  C   UNL     1      33.428 -15.062 -24.332  0.00  0.00    +0.132 C 
ATOM      6  C   UNL     1      34.009 -16.912 -22.462  0.00  0.00    +0.019 C 
ATOM      7  C   UNL     1      33.392 -15.736 -22.040  0.00  0.00    +0.004 C 
ATOM      8  C   UNL     1      32.474 -13.035 -24.321  0.00  0.00    +0.063 C 
ATOM      9  C   UNL     1      34.291 -17.073 -23.811  0.00  0.00    +0.100 C 
ATOM     10  H   UNL     1      33.169 -13.937 -26.084  0.00  0.00    +0.154 HD
ENDROOT
BRANCH   6  11
ATOM     11  C   UNL     1      34.348 -17.946 -21.509  0.00  0.00    +0.001 C 
ATOM     12  C   UNL     1      33.654 -19.749 -20.030  0.00  0.00    +0.000 C 
ATOM     13  C   UNL     1      33.343 -18.741 -20.957  0.00  0.00    +0.000 C 
ATOM     14  C   UNL     1      35.005 -19.954 -19.658  0.00  0.00    +0.000 C 
ATOM     15  C   UNL     1      35.675 -18.147 -21.144  0.00  0.00    +0.000 C 
ATOM     16  C   UNL     1      36.004 -19.144 -20.225  0.00  0.00    +0.000 C 
ATOM     17  C   UNL     1      32.656 -20.559 -19.463  0.00  0.00    +0.000 C 
ATOM     18  C   UNL     1      35.317 -20.962 -18.732  0.00  0.00    +0.000 C 
ATOM     19  C   UNL     1      32.985 -21.555 -18.544  0.00  0.00    +0.000 C 
ATOM     20  C   UNL     1      34.312 -21.757 -18.179  0.00  0.00    +0.000 C 
ENDBRANCH   6  11
BRANCH   4  21
ATOM     21  C   UNL     1      31.956 -12.711 -21.932  0.00  0.00    +0.001 C 
ATOM     22  C   UNL     1      31.748 -11.340 -22.088  0.00  0.00    -0.000 C 
ATOM     23  C   UNL     1      31.648 -13.328 -20.719  0.00  0.00    -0.000 C 
ATOM     24  C   UNL     1      30.925 -11.206 -19.820  0.00  0.00    -0.011 C 
ATOM     25  C   UNL     1      31.233 -10.589 -21.032  0.00  0.00    -0.004 C 
ATOM     26  C   UNL     1      31.133 -12.577 -19.663  0.00  0.00    -0.004 C 
BRANCH  24  27
ATOM     27  C   UNL     1      30.372 -10.402 -18.692  0.00  0.00    +0.136 C 
BRANCH  27  29
ATOM     28  O   UNL     1      30.705  -7.995 -18.534  0.00  0.00    -0.250 OA
ATOM     29  C   UNL     1      31.149  -9.129 -18.420  0.00  0.00    +0.318 C 
BRANCH  29  30
ATOM     30  O   UNL     1      32.424  -9.389 -18.024  0.00  0.00    -0.480 OA
ATOM     31  H   UNL     1      32.656  -9.320 -17.119  0.00  0.00    +0.295 HD
ENDBRANCH  29  30
ENDBRANCH  27  29
ENDBRANCH  24  27
ENDBRANCH   4  21
TORSDOF 5
ENDMDL
MODEL 2
REMARK VINA RESULT:     -12.1      7.249     11.954
REMARK  Name = 11952989
REMARK  5 active torsions:
REMARK  status: ('A' for Active; 'I' for Inactive)
REMARK    1  A    between atoms: C_4  and  C_21
REMARK    2  A    between atoms: C_6  and  C_11
REMARK    3  A    between atoms: C_24  and  C_27
REMARK    4  A    between atoms: C_27  and  C_29
REMARK    5  A    between atoms: C_29  and  O_30
REMARK                            x       y       z     vdW  Elec       q    Type
REMARK                         _______ _______ _______ _____ _____    ______ ____
ROOT
ATOM      1  N   UNL     1      31.112 -23.733 -14.842  0.00  0.00    -0.297 N 
ATOM      2  N   UNL     1      30.899 -22.338 -16.794  0.00  0.00    -0.229 NA
ATOM      3  C   UNL     1      33.017 -23.029 -15.769  0.00  0.00    +0.033 C 
ATOM      4  C   UNL     1      33.326 -23.833 -14.640  0.00  0.00    +0.017 C 
ATOM      5  C   UNL     1      31.629 -22.987 -15.868  0.00  0.00    +0.132 C 
ATOM      6  C   UNL     1      33.047 -21.634 -17.715  0.00  0.00    +0.019 C 
ATOM      7  C   UNL     1      33.755 -22.323 -16.733  0.00  0.00    +0.004 C 
ATOM      8  C   UNL     1      32.134 -24.253 -14.089  0.00  0.00    +0.063 C 
ATOM      9  C   UNL     1      31.660 -21.676 -17.696  0.00  0.00    +0.100 C 
ATOM     10  H   UNL     1      30.152 -23.876 -14.671  0.00  0.00    +0.154 HD
ENDROOT
BRANCH   6  11
ATOM     11  C   UNL     1      33.748 -20.886 -18.737  0.00  0.00    +0.001 C 
ATOM     12  C   UNL     1      33.696 -19.552 -20.771  0.00  0.00    +0.000 C 
ATOM     13  C   UNL     1      33.032 -20.281 -19.770  0.00  0.00    +0.000 C 
ATOM     14  C   UNL     1      35.106 -19.436 -20.721  0.00  0.00    +0.000 C 
ATOM     15  C   UNL     1      35.134 -20.772 -18.688  0.00  0.00    +0.000 C 
ATOM     16  C   UNL     1      35.810 -20.052 -19.673  0.00  0.00    +0.000 C 
ATOM     17  C   UNL     1      32.992 -18.936 -21.819  0.00  0.00    +0.000 C 
ATOM     18  C   UNL     1      35.770 -18.707 -21.722  0.00  0.00    +0.000 C 
ATOM     19  C   UNL     1      33.670 -18.217 -22.804  0.00  0.00    +0.000 C 
ATOM     20  C   UNL     1      35.055 -18.102 -22.756  0.00  0.00    +0.000 C 
ENDBRANCH   6  11
BRANCH   4  21
ATOM     21  C   UNL     1      34.598 -24.200 -14.090  0.00  0.00    +0.001 C 
ATOM     22  C   UNL     1      35.126 -25.469 -14.336  0.00  0.00    -0.000 C 
ATOM     23  C   UNL     1      35.311 -23.290 -13.308  0.00  0.00    -0.000 C 
ATOM     24  C   UNL     1      37.075 -24.914 -13.020  0.00  0.00    -0.011 C 
ATOM     25  C   UNL     1      36.364 -25.825 -13.801  0.00  0.00    -0.004 C 
ATOM     26  C   UNL     1      36.549 -23.646 -12.774  0.00  0.00    -0.004 C 
BRANCH  24  27
ATOM     27  C   UNL     1      38.401 -25.296 -12.451  0.00  0.00    +0.136 C 
BRANCH  27  29
ATOM     28  O   UNL     1      39.795 -26.563 -13.993  0.00  0.00    -0.250 OA
ATOM     29  C   UNL     1      39.476 -25.489 -13.501  0.00  0.00    +0.318 C 
BRANCH  29  30
ATOM     30  O   UNL     1      40.064 -24.313 -13.846  0.00  0.00    -0.480 OA
ATOM     31  H   UNL     1      39.553 -23.528 -13.887  0.00  0.00    +0.295 HD
ENDBRANCH  29  30
ENDBRANCH  27  29
ENDBRANCH  24  27
ENDBRANCH   4  21
TORSDOF 5
ENDMDL
MODEL 3
REMARK VINA RESULT:     -11.5      6.742     10.527
REMARK  Name = 11952989
REMARK  5 active torsions:
REMARK  status: ('A' for Active; 'I' for Inactive)
REMARK    1  A    between atoms: C_4  and  C_21
REMARK    2  A    between atoms: C_6  and  C_11
REMARK    3  A    between atoms: C_24  and  C_27
REMARK    4  A    between atoms: C_27  and  C_29
REMARK    5  A    between atoms: C_29  and  O_30
REMARK                            x       y       z     vdW  Elec       q    Type
REMARK                         _______ _______ _______ _____ _____    ______ ____
ROOT
ATOM      1  N   UNL     1      35.295 -23.661 -13.762  0.00  0.00    -0.297 N 
ATOM      2  N   UNL     1      36.645 -22.525 -15.402  0.00  0.00    -0.229 NA
ATOM      3  C   UNL     1      34.195 -22.605 -15.392  0.00  0.00    +0.033 C 
ATOM      4  C   UNL     1      33.252 -23.214 -14.521  0.00  0.00    +0.017 C 
ATOM      5  C   UNL     1      35.458 -22.902 -14.890  0.00  0.00    +0.132 C 
ATOM      6  C   UNL     1      35.329 -21.409 -17.129  0.00  0.00    +0.019 C 
ATOM      7  C   UNL     1      34.129 -21.826 -16.559  0.00  0.00    +0.004 C 
ATOM      8  C   UNL     1      33.959 -23.857 -13.528  0.00  0.00    +0.063 C 
ATOM      9  C   UNL     1      36.522 -21.778 -16.523  0.00  0.00    +0.100 C 
ATOM     10  H   UNL     1      36.026 -24.013 -13.203  0.00  0.00    +0.154 HD
ENDROOT
BRANCH   6  11
ATOM     11  C   UNL     1      35.331 -20.605 -18.332  0.00  0.00    +0.001 C 
ATOM     12  C   UNL     1      34.180 -19.784 -20.311  0.00  0.00    +0.000 C 
ATOM     13  C   UNL     1      34.195 -20.559 -19.140  0.00  0.00    +0.000 C 
ATOM     14  C   UNL     1      35.334 -19.046 -20.667  0.00  0.00    +0.000 C 
ATOM     15  C   UNL     1      36.466 -19.880 -18.682  0.00  0.00    +0.000 C 
ATOM     16  C   UNL     1      36.469 -19.105 -19.842  0.00  0.00    +0.000 C 
ATOM     17  C   UNL     1      33.045 -19.725 -21.137  0.00  0.00    +0.000 C 
ATOM     18  C   UNL     1      35.319 -18.271 -21.838  0.00  0.00    +0.000 C 
ATOM     19  C   UNL     1      33.049 -18.949 -22.297  0.00  0.00    +0.000 C 
ATOM     20  C   UNL     1      34.183 -18.224 -22.647  0.00  0.00    +0.000 C 
ENDBRANCH   6  11
BRANCH   4  21
ATOM     21  C   UNL     1      31.819 -23.222 -14.574  0.00  0.00    +0.001 C 
ATOM     22  C   UNL     1      31.081 -23.642 -13.467  0.00  0.00    -0.000 C 
ATOM     23  C   UNL     1      31.160 -22.809 -15.733  0.00  0.00    -0.000 C 
ATOM     24  C   UNL     1      29.030 -23.236 -14.678  0.00  0.00    -0.011 C 
ATOM     25  C   UNL     1      29.687 -23.649 -13.519  0.00  0.00    -0.004 C 
ATOM     26  C   UNL     1      29.766 -22.816 -15.785  0.00  0.00    -0.004 C 
BRANCH  24  27
ATOM     27  C   UNL     1      27.539 -23.241 -14.731  0.00  0.00    +0.136 C 
BRANCH  27  29
ATOM     28  O   UNL     1      26.795 -21.433 -16.183  0.00  0.00    -0.250 OA
ATOM     29  C   UNL     1      26.977 -22.629 -15.999  0.00  0.00    +0.318 C 
BRANCH  29  30
ATOM     30  O   UNL     1      26.690 -23.573 -16.933  0.00  0.00    -0.480 OA
ATOM     31  H   UNL     1      27.281 -24.288 -17.074  0.00  0.00    +0.295 HD
ENDBRANCH  29  30
ENDBRANCH  27  29
ENDBRANCH  24  27
ENDBRANCH   4  21
TORSDOF 5
ENDMDL
MODEL 4
REMARK VINA RESULT:     -10.7      5.177     10.659
REMARK  Name = 11952989
REMARK  5 active torsions:
REMARK  status: ('A' for Active; 'I' for Inactive)
REMARK    1  A    between atoms: C_4  and  C_21
REMARK    2  A    between atoms: C_6  and  C_11
REMARK    3  A    between atoms: C_24  and  C_27
REMARK    4  A    between atoms: C_27  and  C_29
REMARK    5  A    between atoms: C_29  and  O_30
REMARK                            x       y       z     vdW  Elec       q    Type
REMARK                         _______ _______ _______ _____ _____    ______ ____
ROOT
ATOM      1  N   UNL     1      30.389 -11.097 -19.497  0.00  0.00    -0.297 N 
ATOM      2  N   UNL     1      30.586  -8.785 -20.142  0.00  0.00    -0.229 NA
ATOM      3  C   UNL     1      31.636 -10.674 -21.300  0.00  0.00    +0.033 C 
ATOM      4  C   UNL     1      31.629 -12.075 -21.065  0.00  0.00    +0.017 C 
ATOM      5  C   UNL     1      30.854 -10.094 -20.305  0.00  0.00    +0.132 C 
ATOM      6  C   UNL     1      31.971  -8.451 -22.124  0.00  0.00    +0.019 C 
ATOM      7  C   UNL     1      32.218  -9.816 -22.248  0.00  0.00    +0.004 C 
ATOM      8  C   UNL     1      30.853 -12.305 -19.949  0.00  0.00    +0.063 C 
ATOM      9  C   UNL     1      31.170  -8.006 -21.082  0.00  0.00    +0.100 C 
ATOM     10  H   UNL     1      29.809 -10.970 -18.711  0.00  0.00    +0.154 HD
ENDROOT
BRANCH   6  11
ATOM     11  C   UNL     1      32.541  -7.513 -23.067  0.00  0.00    +0.001 C 
ATOM     12  C   UNL     1      32.450  -6.381 -25.219  0.00  0.00    +0.000 C 
ATOM     13  C   UNL     1      31.911  -7.287 -24.291  0.00  0.00    +0.000 C 
ATOM     14  C   UNL     1      33.647  -5.694 -24.900  0.00  0.00    +0.000 C 
ATOM     15  C   UNL     1      33.718  -6.839 -22.754  0.00  0.00    +0.000 C 
ATOM     16  C   UNL     1      34.268  -5.935 -23.663  0.00  0.00    +0.000 C 
ATOM     17  C   UNL     1      31.829  -6.140 -26.455  0.00  0.00    +0.000 C 
ATOM     18  C   UNL     1      34.186  -4.788 -25.827  0.00  0.00    +0.000 C 
ATOM     19  C   UNL     1      32.381  -5.236 -27.364  0.00  0.00    +0.000 C 
ATOM     20  C   UNL     1      33.557  -4.561 -27.051  0.00  0.00    +0.000 C 
ENDBRANCH   6  11
BRANCH   4  21
ATOM     21  C   UNL     1      32.271 -13.134 -21.788  0.00  0.00    +0.001 C 
ATOM     22  C   UNL     1      33.123 -14.016 -21.123  0.00  0.00    -0.000 C 
ATOM     23  C   UNL     1      32.044 -13.284 -23.156  0.00  0.00    -0.000 C 
ATOM     24  C   UNL     1      33.520 -15.196 -23.194  0.00  0.00    -0.011 C 
ATOM     25  C   UNL     1      33.748 -15.046 -21.826  0.00  0.00    -0.004 C 
ATOM     26  C   UNL     1      32.668 -14.314 -23.859  0.00  0.00    -0.004 C 
BRANCH  24  27
ATOM     27  C   UNL     1      34.186 -16.300 -23.944  0.00  0.00    +0.136 C 
BRANCH  27  29
ATOM     28  O   UNL     1      33.956 -18.514 -22.956  0.00  0.00    -0.250 OA
ATOM     29  C   UNL     1      33.543 -17.654 -23.724  0.00  0.00    +0.318 C 
BRANCH  29  30
ATOM     30  O   UNL     1      32.431 -17.818 -24.488  0.00  0.00    -0.480 OA
ATOM     31  H   UNL     1      32.022 -18.660 -24.546  0.00  0.00    +0.295 HD
ENDBRANCH  29  30
ENDBRANCH  27  29
ENDBRANCH  24  27
ENDBRANCH   4  21
TORSDOF 5
ENDMDL
MODEL 5
REMARK VINA RESULT:     -10.7      6.550     10.375
REMARK  Name = 11952989
REMARK  5 active torsions:
REMARK  status: ('A' for Active; 'I' for Inactive)
REMARK    1  A    between atoms: C_4  and  C_21
REMARK    2  A    between atoms: C_6  and  C_11
REMARK    3  A    between atoms: C_24  and  C_27
REMARK    4  A    between atoms: C_27  and  C_29
REMARK    5  A    between atoms: C_29  and  O_30
REMARK                            x       y       z     vdW  Elec       q    Type
REMARK                         _______ _______ _______ _____ _____    ______ ____
ROOT
ATOM      1  N   UNL     1      29.956 -22.791 -15.635  0.00  0.00    -0.297 N 
ATOM      2  N   UNL     1      31.104 -23.965 -13.872  0.00  0.00    -0.229 NA
ATOM      3  C   UNL     1      32.185 -22.829 -15.757  0.00  0.00    +0.033 C 
ATOM      4  C   UNL     1      31.676 -22.100 -16.865  0.00  0.00    +0.017 C 
ATOM      5  C   UNL     1      31.087 -23.245 -15.009  0.00  0.00    +0.132 C 
ATOM      6  C   UNL     1      33.532 -23.936 -14.117  0.00  0.00    +0.019 C 
ATOM      7  C   UNL     1      33.459 -23.189 -15.290  0.00  0.00    +0.004 C 
ATOM      8  C   UNL     1      30.301 -22.094 -16.763  0.00  0.00    +0.063 C 
ATOM      9  C   UNL     1      32.355 -24.285 -13.469  0.00  0.00    +0.100 C 
ATOM     10  H   UNL     1      29.034 -22.941 -15.321  0.00  0.00    +0.154 HD
ENDROOT
BRANCH   6  11
ATOM     11  C   UNL     1      34.815 -24.340 -13.582  0.00  0.00    +0.001 C 
ATOM     12  C   UNL     1      37.194 -24.735 -13.903  0.00  0.00    +0.000 C 
ATOM     13  C   UNL     1      35.942 -24.345 -14.405  0.00  0.00    +0.000 C 
ATOM     14  C   UNL     1      37.304 -25.126 -12.547  0.00  0.00    +0.000 C 
ATOM     15  C   UNL     1      34.923 -24.725 -12.250  0.00  0.00    +0.000 C 
ATOM     16  C   UNL     1      36.159 -25.115 -11.734  0.00  0.00    +0.000 C 
ATOM     17  C   UNL     1      38.339 -24.745 -14.716  0.00  0.00    +0.000 C 
ATOM     18  C   UNL     1      38.556 -25.516 -12.045  0.00  0.00    +0.000 C 
ATOM     19  C   UNL     1      39.575 -25.137 -14.199  0.00  0.00    +0.000 C 
ATOM     20  C   UNL     1      39.684 -25.521 -12.867  0.00  0.00    +0.000 C 
ENDBRANCH   6  11
BRANCH   4  21
ATOM     21  C   UNL     1      32.370 -21.455 -17.942  0.00  0.00    +0.001 C 
ATOM     22  C   UNL     1      31.669 -20.661 -18.850  0.00  0.00    -0.000 C 
ATOM     23  C   UNL     1      33.749 -21.620 -18.083  0.00  0.00    -0.000 C 
ATOM     24  C   UNL     1      33.723 -20.200 -20.036  0.00  0.00    -0.011 C 
ATOM     25  C   UNL     1      32.345 -20.034 -19.896  0.00  0.00    -0.004 C 
ATOM     26  C   UNL     1      34.425 -20.993 -19.129  0.00  0.00    -0.004 C 
BRANCH  24  27
ATOM     27  C   UNL     1      34.445 -19.526 -21.154  0.00  0.00    +0.136 C 
BRANCH  27  29
ATOM     28  O   UNL     1      36.605 -18.491 -20.718  0.00  0.00    -0.250 OA
ATOM     29  C   UNL     1      35.383 -18.429 -20.693  0.00  0.00    +0.318 C 
BRANCH  29  30
ATOM     30  O   UNL     1      34.706 -17.341 -20.238  0.00  0.00    -0.480 OA
ATOM     31  H   UNL     1      33.951 -17.033 -20.699  0.00  0.00    +0.295 HD
ENDBRANCH  29  30
ENDBRANCH  27  29
ENDBRANCH  24  27
ENDBRANCH   4  21
TORSDOF 5
ENDMDL
MODEL 6
REMARK VINA RESULT:     -10.4      4.709      6.967
REMARK  Name = 11952989
REMARK  5 active torsions:
REMARK  status: ('A' for Active; 'I' for Inactive)
REMARK    1  A    between atoms: C_4  and  C_21
REMARK    2  A    between atoms: C_6  and  C_11
REMARK    3  A    between atoms: C_24  and  C_27
REMARK    4  A    between atoms: C_27  and  C_29
REMARK    5  A    between atoms: C_29  and  O_30
REMARK                            x       y       z     vdW  Elec       q    Type
REMARK                         _______ _______ _______ _____ _____    ______ ____
ROOT
ATOM      1  N   UNL     1      30.486  -8.436 -20.102  0.00  0.00    -0.297 N 
ATOM      2  N   UNL     1      30.579 -10.836 -19.922  0.00  0.00    -0.229 NA
ATOM      3  C   UNL     1      31.693  -9.500 -21.649  0.00  0.00    +0.033 C 
ATOM      4  C   UNL     1      31.748  -8.103 -21.905  0.00  0.00    +0.017 C 
ATOM      5  C   UNL     1      30.900  -9.673 -20.519  0.00  0.00    +0.132 C 
ATOM      6  C   UNL     1      31.928 -11.883 -21.667  0.00  0.00    +0.019 C 
ATOM      7  C   UNL     1      32.229 -10.653 -22.246  0.00  0.00    +0.004 C 
ATOM      8  C   UNL     1      30.995  -7.475 -20.936  0.00  0.00    +0.063 C 
ATOM      9  C   UNL     1      31.122 -11.912 -20.538  0.00  0.00    +0.100 C 
ATOM     10  H   UNL     1      29.910  -8.263 -19.322  0.00  0.00    +0.154 HD
ENDROOT
BRANCH   6  11
ATOM     11  C   UNL     1      32.448 -13.109 -22.233  0.00  0.00    +0.001 C 
ATOM     12  C   UNL     1      33.574 -15.245 -21.941  0.00  0.00    +0.000 C 
ATOM     13  C   UNL     1      33.063 -14.051 -21.408  0.00  0.00    +0.000 C 
ATOM     14  C   UNL     1      33.458 -15.488 -23.331  0.00  0.00    +0.000 C 
ATOM     15  C   UNL     1      32.334 -13.347 -23.599  0.00  0.00    +0.000 C 
ATOM     16  C   UNL     1      32.835 -14.528 -24.146  0.00  0.00    +0.000 C 
ATOM     17  C   UNL     1      34.197 -16.205 -21.126  0.00  0.00    +0.000 C 
ATOM     18  C   UNL     1      33.968 -16.683 -23.864  0.00  0.00    +0.000 C 
ATOM     19  C   UNL     1      34.698 -17.386 -21.674  0.00  0.00    +0.000 C 
ATOM     20  C   UNL     1      34.584 -17.625 -23.040  0.00  0.00    +0.000 C 
ENDBRANCH   6  11
BRANCH   4  21
ATOM     21  C   UNL     1      32.424  -7.382 -22.943  0.00  0.00    +0.001 C 
ATOM     22  C   UNL     1      31.934  -7.413 -24.249  0.00  0.00    -0.000 C 
ATOM     23  C   UNL     1      33.573  -6.646 -22.649  0.00  0.00    -0.000 C 
ATOM     24  C   UNL     1      33.740  -5.975 -24.963  0.00  0.00    -0.011 C 
ATOM     25  C   UNL     1      32.592  -6.711 -25.258  0.00  0.00    -0.004 C 
ATOM     26  C   UNL     1      34.230  -5.943 -23.658  0.00  0.00    -0.004 C 
BRANCH  24  27
ATOM     27  C   UNL     1      34.441  -5.222 -26.043  0.00  0.00    +0.136 C 
BRANCH  27  29
ATOM     28  O   UNL     1      33.436  -5.547 -28.237  0.00  0.00    -0.250 OA
ATOM     29  C   UNL     1      34.289  -5.850 -27.414  0.00  0.00    +0.318 C 
BRANCH  29  30
ATOM     30  O   UNL     1      35.226  -6.810 -27.638  0.00  0.00    -0.480 OA
ATOM     31  H   UNL     1      34.962  -7.701 -27.765  0.00  0.00    +0.295 HD
ENDBRANCH  29  30
ENDBRANCH  27  29
ENDBRANCH  24  27
ENDBRANCH   4  21
TORSDOF 5
ENDMDL
MODEL 7
REMARK VINA RESULT:     -10.3      5.762      9.915
REMARK  Name = 11952989
REMARK  5 active torsions:
REMARK  status: ('A' for Active; 'I' for Inactive)
REMARK    1  A    between atoms: C_4  and  C_21
REMARK    2  A    between atoms: C_6  and  C_11
REMARK    3  A    between atoms: C_24  and  C_27
REMARK    4  A    between atoms: C_27  and  C_29
REMARK    5  A    between atoms: C_29  and  O_30
REMARK                            x       y       z     vdW  Elec       q    Type
REMARK                         _______ _______ _______ _____ _____    ______ ____
ROOT
ATOM      1  N   UNL     1      37.189 -22.368 -15.335  0.00  0.00    -0.297 N 
ATOM      2  N   UNL     1      35.579 -23.469 -13.922  0.00  0.00    -0.229 NA
ATOM      3  C   UNL     1      35.056 -22.246 -15.982  0.00  0.00    +0.033 C 
ATOM      4  C   UNL     1      35.862 -21.550 -16.922  0.00  0.00    +0.017 C 
ATOM      5  C   UNL     1      35.914 -22.744 -15.006  0.00  0.00    +0.132 C 
ATOM      6  C   UNL     1      33.285 -23.265 -14.734  0.00  0.00    +0.019 C 
ATOM      7  C   UNL     1      33.686 -22.519 -15.839  0.00  0.00    +0.004 C 
ATOM      8  C   UNL     1      37.170 -21.642 -16.497  0.00  0.00    +0.063 C 
ATOM      9  C   UNL     1      34.248 -23.702 -13.835  0.00  0.00    +0.100 C 
ATOM     10  H   UNL     1      37.998 -22.586 -14.816  0.00  0.00    +0.154 HD
ENDROOT
BRANCH   6  11
ATOM     11  C   UNL     1      31.888 -23.581 -14.527  0.00  0.00    +0.001 C 
ATOM     12  C   UNL     1      29.549 -23.231 -15.099  0.00  0.00    +0.000 C 
ATOM     13  C   UNL     1      30.910 -22.938 -15.286  0.00  0.00    +0.000 C 
ATOM     14  C   UNL     1      29.176 -24.191 -14.128  0.00  0.00    +0.000 C 
ATOM     15  C   UNL     1      31.522 -24.524 -13.573  0.00  0.00    +0.000 C 
ATOM     16  C   UNL     1      30.175 -24.829 -13.373  0.00  0.00    +0.000 C 
ATOM     17  C   UNL     1      28.551 -22.594 -15.853  0.00  0.00    +0.000 C 
ATOM     18  C   UNL     1      27.816 -24.485 -13.940  0.00  0.00    +0.000 C 
ATOM     19  C   UNL     1      27.204 -22.899 -15.652  0.00  0.00    +0.000 C 
ATOM     20  C   UNL     1      26.837 -23.842 -14.698  0.00  0.00    +0.000 C 
ENDBRANCH   6  11
BRANCH   4  21
ATOM     21  C   UNL     1      35.488 -20.849 -18.117  0.00  0.00    +0.001 C 
ATOM     22  C   UNL     1      34.233 -21.063 -18.689  0.00  0.00    -0.000 C 
ATOM     23  C   UNL     1      36.378 -19.952 -18.708  0.00  0.00    -0.000 C 
ATOM     24  C   UNL     1      34.761 -19.485 -20.440  0.00  0.00    -0.011 C 
ATOM     25  C   UNL     1      33.871 -20.382 -19.850  0.00  0.00    -0.004 C 
ATOM     26  C   UNL     1      36.016 -19.270 -19.869  0.00  0.00    -0.004 C 
BRANCH  24  27
ATOM     27  C   UNL     1      34.371 -18.754 -21.681  0.00  0.00    +0.136 C 
BRANCH  27  29
ATOM     28  O   UNL     1      34.205 -16.606 -20.546  0.00  0.00    -0.250 OA
ATOM     29  C   UNL     1      34.474 -17.248 -21.553  0.00  0.00    +0.318 C 
BRANCH  29  30
ATOM     30  O   UNL     1      34.910 -16.670 -22.704  0.00  0.00    -0.480 OA
ATOM     31  H   UNL     1      34.290 -16.356 -23.334  0.00  0.00    +0.295 HD
ENDBRANCH  29  30
ENDBRANCH  27  29
ENDBRANCH  24  27
ENDBRANCH   4  21
TORSDOF 5
ENDMDL
MODEL 8
REMARK VINA RESULT:     -10.3      1.057      1.612
REMARK  Name = 11952989
REMARK  5 active torsions:
REMARK  status: ('A' for Active; 'I' for Inactive)
REMARK    1  A    between atoms: C_4  and  C_21
REMARK    2  A    between atoms: C_6  and  C_11
REMARK    3  A    between atoms: C_24  and  C_27
REMARK    4  A    between atoms: C_27  and  C_29
REMARK    5  A    between atoms: C_29  and  O_30
REMARK                            x       y       z     vdW  Elec       q    Type
REMARK                         _______ _______ _______ _____ _____    ______ ____
ROOT
ATOM      1  N   UNL     1      33.456 -15.270 -24.847  0.00  0.00    -0.297 N 
ATOM      2  N   UNL     1      34.211 -17.488 -24.287  0.00  0.00    -0.229 NA
ATOM      3  C   UNL     1      33.421 -15.812 -22.681  0.00  0.00    +0.033 C 
ATOM      4  C   UNL     1      32.947 -14.481 -22.829  0.00  0.00    +0.017 C 
ATOM      5  C   UNL     1      33.729 -16.275 -23.957  0.00  0.00    +0.132 C 
ATOM      6  C   UNL     1      34.125 -17.961 -21.894  0.00  0.00    +0.019 C 
ATOM      7  C   UNL     1      33.627 -16.692 -21.607  0.00  0.00    +0.004 C 
ATOM      8  C   UNL     1      32.980 -14.175 -24.173  0.00  0.00    +0.063 C 
ATOM      9  C   UNL     1      34.390 -18.293 -23.215  0.00  0.00    +0.100 C 
ATOM     10  H   UNL     1      33.581 -15.325 -25.822  0.00  0.00    +0.154 HD
ENDROOT
BRANCH   6  11
ATOM     11  C   UNL     1      34.361 -18.915 -20.832  0.00  0.00    +0.001 C 
ATOM     12  C   UNL     1      33.502 -20.550 -19.249  0.00  0.00    +0.000 C 
ATOM     13  C   UNL     1      33.291 -19.621 -20.280  0.00  0.00    +0.000 C 
ATOM     14  C   UNL     1      34.817 -20.767 -18.771  0.00  0.00    +0.000 C 
ATOM     15  C   UNL     1      35.653 -19.128 -20.363  0.00  0.00    +0.000 C 
ATOM     16  C   UNL     1      35.882 -20.048 -19.339  0.00  0.00    +0.000 C 
ATOM     17  C   UNL     1      32.438 -21.270 -18.681  0.00  0.00    +0.000 C 
ATOM     18  C   UNL     1      35.028 -21.696 -17.739  0.00  0.00    +0.000 C 
ATOM     19  C   UNL     1      32.667 -22.189 -17.656  0.00  0.00    +0.000 C 
ATOM     20  C   UNL     1      33.959 -22.402 -17.186  0.00  0.00    +0.000 C 
ENDBRANCH   6  11
BRANCH   4  21
ATOM     21  C   UNL     1      32.497 -13.547 -21.838  0.00  0.00    +0.001 C 
ATOM     22  C   UNL     1      32.259 -13.975 -20.531  0.00  0.00    -0.000 C 
ATOM     23  C   UNL     1      32.297 -12.208 -22.179  0.00  0.00    -0.000 C 
ATOM     24  C   UNL     1      31.622 -11.729 -19.910  0.00  0.00    -0.011 C 
ATOM     25  C   UNL     1      31.821 -13.066 -19.568  0.00  0.00    -0.004 C 
ATOM     26  C   UNL     1      31.860 -11.300 -21.216  0.00  0.00    -0.004 C 
BRANCH  24  27
ATOM     27  C   UNL     1      31.157 -10.757 -18.878  0.00  0.00    +0.136 C 
BRANCH  27  29
ATOM     28  O   UNL     1      30.540  -8.439 -19.293  0.00  0.00    -0.250 OA
ATOM     29  C   UNL     1      30.314  -9.632 -19.443  0.00  0.00    +0.318 C 
BRANCH  29  30
ATOM     30  O   UNL     1      29.254 -10.100 -20.154  0.00  0.00    -0.480 OA
ATOM     31  H   UNL     1      28.390  -9.790 -19.965  0.00  0.00    +0.295 HD
ENDBRANCH  29  30
ENDBRANCH  27  29
ENDBRANCH  24  27
ENDBRANCH   4  21
TORSDOF 5
ENDMDL
MODEL 9
REMARK VINA RESULT:     -10.2      3.620      8.675
REMARK  Name = 11952989
REMARK  5 active torsions:
REMARK  status: ('A' for Active; 'I' for Inactive)
REMARK    1  A    between atoms: C_4  and  C_21
REMARK    2  A    between atoms: C_6  and  C_11
REMARK    3  A    between atoms: C_24  and  C_27
REMARK    4  A    between atoms: C_27  and  C_29
REMARK    5  A    between atoms: C_29  and  O_30
REMARK                            x       y       z     vdW  Elec       q    Type
REMARK                         _______ _______ _______ _____ _____    ______ ____
ROOT
ATOM      1  N   UNL     1      34.202 -17.012 -24.720  0.00  0.00    -0.297 N 
ATOM      2  N   UNL     1      33.435 -14.739 -24.508  0.00  0.00    -0.229 NA
ATOM      3  C   UNL     1      33.532 -16.378 -22.687  0.00  0.00    +0.033 C 
ATOM      4  C   UNL     1      33.948 -17.735 -22.631  0.00  0.00    +0.017 C 
ATOM      5  C   UNL     1      33.703 -15.957 -24.003  0.00  0.00    +0.132 C 
ATOM      6  C   UNL     1      32.730 -14.167 -22.241  0.00  0.00    +0.019 C 
ATOM      7  C   UNL     1      33.025 -15.444 -21.770  0.00  0.00    +0.004 C 
ATOM      8  C   UNL     1      34.355 -18.098 -23.897  0.00  0.00    +0.063 C 
ATOM      9  C   UNL     1      32.950 -13.880 -23.581  0.00  0.00    +0.100 C 
ATOM     10  H   UNL     1      34.418 -16.994 -25.681  0.00  0.00    +0.154 HD
ENDROOT
BRANCH   6  11
ATOM     11  C   UNL     1      32.205 -13.157 -21.348  0.00  0.00    +0.001 C 
ATOM     12  C   UNL     1      31.515 -10.858 -20.949  0.00  0.00    +0.000 C 
ATOM     13  C   UNL     1      32.024 -11.851 -21.803  0.00  0.00    +0.000 C 
ATOM     14  C   UNL     1      31.186 -11.196 -19.614  0.00  0.00    +0.000 C 
ATOM     15  C   UNL     1      31.882 -13.489 -20.036  0.00  0.00    +0.000 C 
ATOM     16  C   UNL     1      31.375 -12.516 -19.174  0.00  0.00    +0.000 C 
ATOM     17  C   UNL     1      31.326  -9.538 -21.390  0.00  0.00    +0.000 C 
ATOM     18  C   UNL     1      30.678 -10.204 -18.761  0.00  0.00    +0.000 C 
ATOM     19  C   UNL     1      30.820  -8.566 -20.527  0.00  0.00    +0.000 C 
ATOM     20  C   UNL     1      30.496  -8.897 -19.215  0.00  0.00    +0.000 C 
ENDBRANCH   6  11
BRANCH   4  21
ATOM     21  C   UNL     1      33.979 -18.646 -21.523  0.00  0.00    +0.001 C 
ATOM     22  C   UNL     1      32.804 -19.267 -21.097  0.00  0.00    -0.000 C 
ATOM     23  C   UNL     1      35.183 -18.912 -20.871  0.00  0.00    -0.000 C 
ATOM     24  C   UNL     1      34.039 -20.418 -19.368  0.00  0.00    -0.011 C 
ATOM     25  C   UNL     1      32.835 -20.152 -20.020  0.00  0.00    -0.004 C 
ATOM     26  C   UNL     1      35.214 -19.797 -19.794  0.00  0.00    -0.004 C 
BRANCH  24  27
ATOM     27  C   UNL     1      34.071 -21.367 -18.218  0.00  0.00    +0.136 C 
BRANCH  27  29
ATOM     28  O   UNL     1      31.787 -21.993 -17.651  0.00  0.00    -0.250 OA
ATOM     29  C   UNL     1      32.864 -22.282 -18.156  0.00  0.00    +0.318 C 
BRANCH  29  30
ATOM     30  O   UNL     1      33.111 -23.487 -18.734  0.00  0.00    -0.480 OA
ATOM     31  H   UNL     1      33.995 -23.780 -18.846  0.00  0.00    +0.295 HD
ENDBRANCH  29  30
ENDBRANCH  27  29
ENDBRANCH  24  27
ENDBRANCH   4  21
TORSDOF 5
ENDMDL
