MODEL 1
REMARK VINA RESULT:     -11.3      0.000      0.000
REMARK  Name = 56832738
REMARK  10 active torsions:
REMARK  status: ('A' for Active; 'I' for Inactive)
REMARK    1  A    between atoms: C_2  and  C_11
REMARK    2  A    between atoms: C_5  and  C_25
REMARK    3  A    between atoms: C_10  and  C_22
REMARK    4  A    between atoms: C_12  and  O_16
REMARK    5  A    between atoms: C_13  and  O_18
REMARK    6  A    between atoms: C_14  and  O_20
REMARK    7  A    between atoms: C_22  and  O_23
REMARK    8  A    between atoms: C_25  and  C_27
REMARK    9  A    between atoms: C_32  and  O_33
REMARK   10  A    between atoms: O_33  and  C_34
REMARK                            x       y       z     vdW  Elec       q    Type
REMARK                         _______ _______ _______ _____ _____    ______ ____
ROOT
ATOM      1 CL   UNL     1      29.754 -22.233 -16.324  0.00  0.00    -0.083 Cl
ATOM      2  C   UNL     1      33.472 -23.414 -14.049  0.00  0.00    +0.031 C 
ATOM      3  C   UNL     1      33.449 -23.535 -15.438  0.00  0.00    -0.003 C 
ATOM      4  C   UNL     1      32.352 -22.929 -13.373  0.00  0.00    +0.001 C 
ATOM      5  C   UNL     1      32.306 -23.173 -16.151  0.00  0.00    -0.007 C 
ATOM      6  C   UNL     1      31.209 -22.567 -14.086  0.00  0.00    +0.011 C 
ATOM      7  C   UNL     1      31.186 -22.688 -15.475  0.00  0.00    +0.054 C 
ENDROOT
BRANCH   2  11
ATOM      8  O   UNL     1      34.400 -24.255 -11.941  0.00  0.00    -0.326 OA
ATOM      9  O   UNL     1      35.588 -22.663 -13.144  0.00  0.00    -0.326 OA
ATOM     10  C   UNL     1      35.626 -24.018 -11.237  0.00  0.00    +0.176 C 
ATOM     11  C   UNL     1      34.714 -23.807 -13.274  0.00  0.00    +0.235 C 
ATOM     12  C   UNL     1      36.628 -25.126 -11.654  0.00  0.00    +0.169 C 
ATOM     13  C   UNL     1      35.515 -24.941 -13.953  0.00  0.00    +0.196 C 
ATOM     14  C   UNL     1      36.816 -25.243 -13.182  0.00  0.00    +0.172 C 
ATOM     15  C   UNL     1      35.983 -22.637 -11.766  0.00  0.00    +0.177 C 
BRANCH  12  16
ATOM     16  O   UNL     1      36.138 -26.379 -11.168  0.00  0.00    -0.379 OA
ATOM     17  H   UNL     1      35.279 -26.570 -11.575  0.00  0.00    +0.211 HD
ENDBRANCH  12  16
BRANCH  13  18
ATOM     18  O   UNL     1      34.723 -26.127 -14.001  0.00  0.00    -0.377 OA
ATOM     19  H   UNL     1      33.783 -25.887 -14.014  0.00  0.00    +0.211 HD
ENDBRANCH  13  18
BRANCH  14  20
ATOM     20  O   UNL     1      37.815 -24.315 -13.606  0.00  0.00    -0.379 OA
ATOM     21  H   UNL     1      38.694 -24.701 -13.469  0.00  0.00    +0.211 HD
ENDBRANCH  14  20
BRANCH  10  22
ATOM     22  C   UNL     1      35.359 -24.009  -9.737  0.00  0.00    +0.169 C 
BRANCH  22  23
ATOM     23  O   UNL     1      34.299 -24.909  -9.462  0.00  0.00    -0.379 OA
ATOM     24  H   UNL     1      33.666 -24.897 -10.198  0.00  0.00    +0.211 HD
ENDBRANCH  22  23
ENDBRANCH  10  22
ENDBRANCH   2  11
BRANCH   5  25
ATOM     25  C   UNL     1      32.321 -23.319 -17.638  0.00  0.00    +0.054 C 
BRANCH  25  27
ATOM     26  F   UNL     1      36.019 -20.555 -19.235  0.00  0.00    -0.201 F 
ATOM     27  C   UNL     1      32.843 -22.099 -18.368  0.00  0.00    -0.015 C 
ATOM     28  C   UNL     1      34.217 -21.882 -18.470  0.00  0.00    +0.029 C 
ATOM     29  C   UNL     1      31.950 -21.192 -18.937  0.00  0.00    -0.001 C 
ATOM     30  C   UNL     1      34.697 -20.758 -19.141  0.00  0.00    +0.174 C 
ATOM     31  C   UNL     1      32.430 -20.068 -19.608  0.00  0.00    +0.039 C 
ATOM     32  C   UNL     1      33.804 -19.851 -19.710  0.00  0.00    +0.166 C 
BRANCH  32  33
ATOM     33  O   UNL     1      34.272 -18.753 -20.365  0.00  0.00    -0.473 OA
BRANCH  33  34
ATOM     34  C   UNL     1      34.206 -18.772 -21.791  0.00  0.00    +0.206 C 
ATOM     35  C   UNL     1      34.595 -17.408 -22.319  0.00  0.00    +0.051 C 
ENDBRANCH  33  34
ENDBRANCH  32  33
ENDBRANCH  25  27
ENDBRANCH   5  25
TORSDOF 10
ENDMDL
MODEL 2
REMARK VINA RESULT:     -10.6      0.986      2.387
REMARK  Name = 56832738
REMARK  10 active torsions:
REMARK  status: ('A' for Active; 'I' for Inactive)
REMARK    1  A    between atoms: C_2  and  C_11
REMARK    2  A    between atoms: C_5  and  C_25
REMARK    3  A    between atoms: C_10  and  C_22
REMARK    4  A    between atoms: C_12  and  O_16
REMARK    5  A    between atoms: C_13  and  O_18
REMARK    6  A    between atoms: C_14  and  O_20
REMARK    7  A    between atoms: C_22  and  O_23
REMARK    8  A    between atoms: C_25  and  C_27
REMARK    9  A    between atoms: C_32  and  O_33
REMARK   10  A    between atoms: O_33  and  C_34
REMARK                            x       y       z     vdW  Elec       q    Type
REMARK                         _______ _______ _______ _____ _____    ______ ____
ROOT
ATOM      1 CL   UNL     1      30.197 -22.187 -16.203  0.00  0.00    -0.083 Cl
ATOM      2  C   UNL     1      33.849 -23.829 -14.116  0.00  0.00    +0.031 C 
ATOM      3  C   UNL     1      33.767 -23.889 -15.507  0.00  0.00    -0.003 C 
ATOM      4  C   UNL     1      32.808 -23.262 -13.381  0.00  0.00    +0.001 C 
ATOM      5  C   UNL     1      32.644 -23.385 -16.162  0.00  0.00    -0.007 C 
ATOM      6  C   UNL     1      31.685 -22.758 -14.036  0.00  0.00    +0.011 C 
ATOM      7  C   UNL     1      31.602 -22.818 -15.427  0.00  0.00    +0.054 C 
ENDROOT
BRANCH   2  11
ATOM      8  O   UNL     1      36.273 -23.676 -13.776  0.00  0.00    -0.326 OA
ATOM      9  O   UNL     1      35.257 -25.765 -13.759  0.00  0.00    -0.326 OA
ATOM     10  C   UNL     1      37.294 -24.643 -13.497  0.00  0.00    +0.176 C 
ATOM     11  C   UNL     1      35.069 -24.376 -13.404  0.00  0.00    +0.235 C 
ATOM     12  C   UNL     1      37.487 -24.690 -11.959  0.00  0.00    +0.169 C 
ATOM     13  C   UNL     1      34.959 -24.292 -11.864  0.00  0.00    +0.196 C 
ATOM     14  C   UNL     1      36.177 -24.943 -11.181  0.00  0.00    +0.172 C 
ATOM     15  C   UNL     1      36.651 -25.896 -14.072  0.00  0.00    +0.177 C 
BRANCH  12  16
ATOM     16  O   UNL     1      38.018 -23.430 -11.536  0.00  0.00    -0.379 OA
ATOM     17  H   UNL     1      37.310 -22.895 -11.146  0.00  0.00    +0.211 HD
ENDBRANCH  12  16
BRANCH  13  18
ATOM     18  O   UNL     1      34.883 -22.924 -11.462  0.00  0.00    -0.377 OA
ATOM     19  H   UNL     1      33.962 -22.699 -11.256  0.00  0.00    +0.211 HD
ENDBRANCH  13  18
BRANCH  14  20
ATOM     20  O   UNL     1      35.945 -26.350 -11.097  0.00  0.00    -0.379 OA
ATOM     21  H   UNL     1      36.725 -26.826 -11.422  0.00  0.00    +0.211 HD
ENDBRANCH  14  20
BRANCH  10  22
ATOM     22  C   UNL     1      38.572 -24.261 -14.233  0.00  0.00    +0.169 C 
BRANCH  22  23
ATOM     23  O   UNL     1      39.681 -24.679 -13.457  0.00  0.00    -0.379 OA
ATOM     24  H   UNL     1      39.377 -24.940 -12.573  0.00  0.00    +0.211 HD
ENDBRANCH  22  23
ENDBRANCH  10  22
ENDBRANCH   2  11
BRANCH   5  25
ATOM     25  C   UNL     1      32.594 -23.470 -17.654  0.00  0.00    +0.054 C 
BRANCH  25  27
ATOM     26  F   UNL     1      36.027 -20.335 -19.154  0.00  0.00    -0.201 F 
ATOM     27  C   UNL     1      33.004 -22.192 -18.354  0.00  0.00    -0.015 C 
ATOM     28  C   UNL     1      34.352 -21.843 -18.435  0.00  0.00    +0.029 C 
ATOM     29  C   UNL     1      32.034 -21.363 -18.917  0.00  0.00    -0.001 C 
ATOM     30  C   UNL     1      34.730 -20.665 -19.079  0.00  0.00    +0.174 C 
ATOM     31  C   UNL     1      32.412 -20.186 -19.561  0.00  0.00    +0.039 C 
ATOM     32  C   UNL     1      33.760 -19.836 -19.642  0.00  0.00    +0.166 C 
BRANCH  32  33
ATOM     33  O   UNL     1      34.127 -18.686 -20.271  0.00  0.00    -0.473 OA
BRANCH  33  34
ATOM     34  C   UNL     1      34.479 -18.786 -21.651  0.00  0.00    +0.206 C 
ATOM     35  C   UNL     1      35.913 -18.335 -21.827  0.00  0.00    +0.051 C 
ENDBRANCH  33  34
ENDBRANCH  32  33
ENDBRANCH  25  27
ENDBRANCH   5  25
TORSDOF 10
ENDMDL
MODEL 3
REMARK VINA RESULT:     -10.0      0.984      1.926
REMARK  Name = 56832738
REMARK  10 active torsions:
REMARK  status: ('A' for Active; 'I' for Inactive)
REMARK    1  A    between atoms: C_2  and  C_11
REMARK    2  A    between atoms: C_5  and  C_25
REMARK    3  A    between atoms: C_10  and  C_22
REMARK    4  A    between atoms: C_12  and  O_16
REMARK    5  A    between atoms: C_13  and  O_18
REMARK    6  A    between atoms: C_14  and  O_20
REMARK    7  A    between atoms: C_22  and  O_23
REMARK    8  A    between atoms: C_25  and  C_27
REMARK    9  A    between atoms: C_32  and  O_33
REMARK   10  A    between atoms: O_33  and  C_34
REMARK                            x       y       z     vdW  Elec       q    Type
REMARK                         _______ _______ _______ _____ _____    ______ ____
ROOT
ATOM      1 CL   UNL     1      29.670 -22.412 -16.223  0.00  0.00    -0.083 Cl
ATOM      2  C   UNL     1      33.366 -23.166 -13.742  0.00  0.00    +0.031 C 
ATOM      3  C   UNL     1      33.408 -23.379 -15.120  0.00  0.00    -0.003 C 
ATOM      4  C   UNL     1      32.189 -22.721 -13.141  0.00  0.00    +0.001 C 
ATOM      5  C   UNL     1      32.272 -23.149 -15.896  0.00  0.00    -0.007 C 
ATOM      6  C   UNL     1      31.053 -22.491 -13.917  0.00  0.00    +0.011 C 
ATOM      7  C   UNL     1      31.094 -22.704 -15.295  0.00  0.00    +0.054 C 
ENDROOT
BRANCH   2  11
ATOM      8  O   UNL     1      35.247 -24.657 -13.240  0.00  0.00    -0.326 OA
ATOM      9  O   UNL     1      34.228 -23.499 -11.505  0.00  0.00    -0.326 OA
ATOM     10  C   UNL     1      35.962 -24.975 -12.040  0.00  0.00    +0.176 C 
ATOM     11  C   UNL     1      34.600 -23.415 -12.899  0.00  0.00    +0.235 C 
ATOM     12  C   UNL     1      37.202 -24.047 -11.971  0.00  0.00    +0.169 C 
ATOM     13  C   UNL     1      35.663 -22.301 -13.039  0.00  0.00    +0.196 C 
ATOM     14  C   UNL     1      36.857 -22.547 -12.095  0.00  0.00    +0.172 C 
ATOM     15  C   UNL     1      34.901 -24.659 -10.997  0.00  0.00    +0.177 C 
BRANCH  12  16
ATOM     16  O   UNL     1      38.079 -24.391 -13.048  0.00  0.00    -0.379 OA
ATOM     17  H   UNL     1      38.038 -23.705 -13.732  0.00  0.00    +0.211 HD
ENDBRANCH  12  16
BRANCH  13  18
ATOM     18  O   UNL     1      36.140 -22.258 -14.384  0.00  0.00    -0.377 OA
ATOM     19  H   UNL     1      35.388 -22.176 -14.991  0.00  0.00    +0.211 HD
ENDBRANCH  13  18
BRANCH  14  20
ATOM     20  O   UNL     1      36.522 -22.034 -10.805  0.00  0.00    -0.379 OA
ATOM     21  H   UNL     1      35.558 -21.982 -10.718  0.00  0.00    +0.211 HD
ENDBRANCH  14  20
BRANCH  10  22
ATOM     22  C   UNL     1      36.339 -26.452 -12.048  0.00  0.00    +0.169 C 
BRANCH  22  23
ATOM     23  O   UNL     1      36.780 -26.797 -13.350  0.00  0.00    -0.379 OA
ATOM     24  H   UNL     1      36.529 -27.714 -13.543  0.00  0.00    +0.211 HD
ENDBRANCH  22  23
ENDBRANCH  10  22
ENDBRANCH   2  11
BRANCH   5  25
ATOM     25  C   UNL     1      32.357 -23.391 -17.368  0.00  0.00    +0.054 C 
BRANCH  25  27
ATOM     26  F   UNL     1      35.967 -20.639 -19.175  0.00  0.00    -0.201 F 
ATOM     27  C   UNL     1      32.840 -22.193 -18.158  0.00  0.00    -0.015 C 
ATOM     28  C   UNL     1      34.208 -21.960 -18.308  0.00  0.00    +0.029 C 
ATOM     29  C   UNL     1      31.918 -21.320 -18.735  0.00  0.00    -0.001 C 
ATOM     30  C   UNL     1      34.651 -20.857 -19.035  0.00  0.00    +0.174 C 
ATOM     31  C   UNL     1      32.361 -20.217 -19.462  0.00  0.00    +0.039 C 
ATOM     32  C   UNL     1      33.729 -19.985 -19.612  0.00  0.00    +0.166 C 
BRANCH  32  33
ATOM     33  O   UNL     1      34.161 -18.906 -20.322  0.00  0.00    -0.473 OA
BRANCH  33  34
ATOM     34  C   UNL     1      34.168 -19.027 -21.744  0.00  0.00    +0.206 C 
ATOM     35  C   UNL     1      34.149 -17.641 -22.355  0.00  0.00    +0.051 C 
ENDBRANCH  33  34
ENDBRANCH  32  33
ENDBRANCH  25  27
ENDBRANCH   5  25
TORSDOF 10
ENDMDL
MODEL 4
REMARK VINA RESULT:      -9.9      3.121      4.902
REMARK  Name = 56832738
REMARK  10 active torsions:
REMARK  status: ('A' for Active; 'I' for Inactive)
REMARK    1  A    between atoms: C_2  and  C_11
REMARK    2  A    between atoms: C_5  and  C_25
REMARK    3  A    between atoms: C_10  and  C_22
REMARK    4  A    between atoms: C_12  and  O_16
REMARK    5  A    between atoms: C_13  and  O_18
REMARK    6  A    between atoms: C_14  and  O_20
REMARK    7  A    between atoms: C_22  and  O_23
REMARK    8  A    between atoms: C_25  and  C_27
REMARK    9  A    between atoms: C_32  and  O_33
REMARK   10  A    between atoms: O_33  and  C_34
REMARK                            x       y       z     vdW  Elec       q    Type
REMARK                         _______ _______ _______ _____ _____    ______ ____
ROOT
ATOM      1 CL   UNL     1      36.302 -21.653 -16.931  0.00  0.00    -0.083 Cl
ATOM      2  C   UNL     1      32.417 -22.853 -14.967  0.00  0.00    +0.031 C 
ATOM      3  C   UNL     1      32.533 -22.914 -16.355  0.00  0.00    -0.003 C 
ATOM      4  C   UNL     1      33.498 -22.425 -14.195  0.00  0.00    +0.001 C 
ATOM      5  C   UNL     1      33.729 -22.546 -16.972  0.00  0.00    -0.007 C 
ATOM      6  C   UNL     1      34.693 -22.057 -14.813  0.00  0.00    +0.011 C 
ATOM      7  C   UNL     1      34.809 -22.118 -16.202  0.00  0.00    +0.054 C 
ENDROOT
BRANCH   2  11
ATOM      8  O   UNL     1      30.222 -23.919 -15.206  0.00  0.00    -0.326 OA
ATOM      9  O   UNL     1      30.437 -22.073 -13.813  0.00  0.00    -0.326 OA
ATOM     10  C   UNL     1      28.941 -23.689 -14.605  0.00  0.00    +0.176 C 
ATOM     11  C   UNL     1      31.118 -23.253 -14.296  0.00  0.00    +0.235 C 
ATOM     12  C   UNL     1      28.819 -24.636 -13.383  0.00  0.00    +0.169 C 
ATOM     13  C   UNL     1      31.327 -24.204 -13.095  0.00  0.00    +0.196 C 
ATOM     14  C   UNL     1      29.992 -24.509 -12.387  0.00  0.00    +0.172 C 
ATOM     15  C   UNL     1      29.073 -22.220 -14.232  0.00  0.00    +0.177 C 
BRANCH  12  16
ATOM     16  O   UNL     1      28.787 -25.983 -13.863  0.00  0.00    -0.379 OA
ATOM     17  H   UNL     1      29.549 -26.140 -14.441  0.00  0.00    +0.211 HD
ENDBRANCH  12  16
BRANCH  13  18
ATOM     18  O   UNL     1      31.899 -25.431 -13.547  0.00  0.00    -0.377 OA
ATOM     19  H   UNL     1      32.331 -25.880 -12.803  0.00  0.00    +0.211 HD
ENDBRANCH  13  18
BRANCH  14  20
ATOM     20  O   UNL     1      29.718 -23.449 -11.470  0.00  0.00    -0.379 OA
ATOM     21  H   UNL     1      30.541 -23.176 -11.036  0.00  0.00    +0.211 HD
ENDBRANCH  14  20
BRANCH  10  22
ATOM     22  C   UNL     1      27.845 -23.925 -15.637  0.00  0.00    +0.169 C 
BRANCH  22  23
ATOM     23  O   UNL     1      27.751 -22.780 -16.466  0.00  0.00    -0.379 OA
ATOM     24  H   UNL     1      28.111 -22.011 -15.996  0.00  0.00    +0.211 HD
ENDBRANCH  22  23
ENDBRANCH  10  22
ENDBRANCH   2  11
BRANCH   5  25
ATOM     25  C   UNL     1      33.812 -22.624 -18.463  0.00  0.00    +0.054 C 
BRANCH  25  27
ATOM     26  F   UNL     1      36.422 -18.939 -20.325  0.00  0.00    -0.201 F 
ATOM     27  C   UNL     1      33.898 -21.274 -19.142  0.00  0.00    -0.015 C 
ATOM     28  C   UNL     1      35.144 -20.714 -19.428  0.00  0.00    +0.029 C 
ATOM     29  C   UNL     1      32.732 -20.588 -19.481  0.00  0.00    -0.001 C 
ATOM     30  C   UNL     1      35.222 -19.471 -20.053  0.00  0.00    +0.174 C 
ATOM     31  C   UNL     1      32.810 -19.345 -20.106  0.00  0.00    +0.039 C 
ATOM     32  C   UNL     1      34.056 -18.785 -20.392  0.00  0.00    +0.166 C 
BRANCH  32  33
ATOM     33  O   UNL     1      34.132 -17.570 -21.002  0.00  0.00    -0.473 OA
BRANCH  33  34
ATOM     34  C   UNL     1      34.146 -17.561 -22.429  0.00  0.00    +0.206 C 
ATOM     35  C   UNL     1      34.141 -16.126 -22.912  0.00  0.00    +0.051 C 
ENDBRANCH  33  34
ENDBRANCH  32  33
ENDBRANCH  25  27
ENDBRANCH   5  25
TORSDOF 10
ENDMDL
MODEL 5
REMARK VINA RESULT:      -9.7      3.204      5.168
REMARK  Name = 56832738
REMARK  10 active torsions:
REMARK  status: ('A' for Active; 'I' for Inactive)
REMARK    1  A    between atoms: C_2  and  C_11
REMARK    2  A    between atoms: C_5  and  C_25
REMARK    3  A    between atoms: C_10  and  C_22
REMARK    4  A    between atoms: C_12  and  O_16
REMARK    5  A    between atoms: C_13  and  O_18
REMARK    6  A    between atoms: C_14  and  O_20
REMARK    7  A    between atoms: C_22  and  O_23
REMARK    8  A    between atoms: C_25  and  C_27
REMARK    9  A    between atoms: C_32  and  O_33
REMARK   10  A    between atoms: O_33  and  C_34
REMARK                            x       y       z     vdW  Elec       q    Type
REMARK                         _______ _______ _______ _____ _____    ______ ____
ROOT
ATOM      1 CL   UNL     1      34.929 -20.566 -18.942  0.00  0.00    -0.083 Cl
ATOM      2  C   UNL     1      35.924 -22.670 -15.073  0.00  0.00    +0.031 C 
ATOM      3  C   UNL     1      34.653 -22.817 -15.628  0.00  0.00    -0.003 C 
ATOM      4  C   UNL     1      36.878 -21.879 -15.714  0.00  0.00    +0.001 C 
ATOM      5  C   UNL     1      34.335 -22.172 -16.823  0.00  0.00    -0.007 C 
ATOM      6  C   UNL     1      36.560 -21.234 -16.909  0.00  0.00    +0.011 C 
ATOM      7  C   UNL     1      35.288 -21.380 -17.464  0.00  0.00    +0.054 C 
ENDROOT
BRANCH   2  11
ATOM      8  O   UNL     1      35.113 -23.966 -13.156  0.00  0.00    -0.326 OA
ATOM      9  O   UNL     1      36.812 -22.416 -12.836  0.00  0.00    -0.326 OA
ATOM     10  C   UNL     1      35.501 -24.040 -11.778  0.00  0.00    +0.176 C 
ATOM     11  C   UNL     1      36.270 -23.371 -13.775  0.00  0.00    +0.235 C 
ATOM     12  C   UNL     1      36.504 -25.214 -11.635  0.00  0.00    +0.169 C 
ATOM     13  C   UNL     1      37.312 -24.499 -13.957  0.00  0.00    +0.196 C 
ATOM     14  C   UNL     1      37.704 -25.120 -12.602  0.00  0.00    +0.172 C 
ATOM     15  C   UNL     1      36.133 -22.668 -11.598  0.00  0.00    +0.177 C 
BRANCH  12  16
ATOM     16  O   UNL     1      35.807 -26.433 -11.907  0.00  0.00    -0.379 OA
ATOM     17  H   UNL     1      36.414 -27.183 -11.805  0.00  0.00    +0.211 HD
ENDBRANCH  12  16
BRANCH  13  18
ATOM     18  O   UNL     1      36.772 -25.522 -14.794  0.00  0.00    -0.377 OA
ATOM     19  H   UNL     1      35.885 -25.262 -15.089  0.00  0.00    +0.211 HD
ENDBRANCH  13  18
BRANCH  14  20
ATOM     20  O   UNL     1      38.720 -24.308 -12.013  0.00  0.00    -0.379 OA
ATOM     21  H   UNL     1      39.561 -24.790 -12.015  0.00  0.00    +0.211 HD
ENDBRANCH  14  20
BRANCH  10  22
ATOM     22  C   UNL     1      34.262 -24.222 -10.909  0.00  0.00    +0.169 C 
BRANCH  22  23
ATOM     23  O   UNL     1      34.643 -24.880  -9.714  0.00  0.00    -0.379 OA
ATOM     24  H   UNL     1      35.120 -25.696  -9.932  0.00  0.00    +0.211 HD
ENDBRANCH  22  23
ENDBRANCH  10  22
ENDBRANCH   2  11
BRANCH   5  25
ATOM     25  C   UNL     1      32.961 -22.353 -17.384  0.00  0.00    +0.054 C 
BRANCH  25  27
ATOM     26  F   UNL     1      28.342 -22.143 -15.809  0.00  0.00    -0.201 F 
ATOM     27  C   UNL     1      31.905 -22.637 -16.336  0.00  0.00    -0.015 C 
ATOM     28  C   UNL     1      30.582 -22.253 -16.556  0.00  0.00    +0.029 C 
ATOM     29  C   UNL     1      32.256 -23.281 -15.150  0.00  0.00    -0.001 C 
ATOM     30  C   UNL     1      29.611 -22.514 -15.591  0.00  0.00    +0.174 C 
ATOM     31  C   UNL     1      31.285 -23.542 -14.185  0.00  0.00    +0.039 C 
ATOM     32  C   UNL     1      29.962 -23.158 -14.405  0.00  0.00    +0.166 C 
BRANCH  32  33
ATOM     33  O   UNL     1      29.014 -23.413 -13.461  0.00  0.00    -0.473 OA
BRANCH  33  34
ATOM     34  C   UNL     1      28.872 -24.768 -13.035  0.00  0.00    +0.206 C 
ATOM     35  C   UNL     1      28.295 -25.583 -14.173  0.00  0.00    +0.051 C 
ENDBRANCH  33  34
ENDBRANCH  32  33
ENDBRANCH  25  27
ENDBRANCH   5  25
TORSDOF 10
ENDMDL
MODEL 6
REMARK VINA RESULT:      -9.1     11.030     16.885
REMARK  Name = 56832738
REMARK  10 active torsions:
REMARK  status: ('A' for Active; 'I' for Inactive)
REMARK    1  A    between atoms: C_2  and  C_11
REMARK    2  A    between atoms: C_5  and  C_25
REMARK    3  A    between atoms: C_10  and  C_22
REMARK    4  A    between atoms: C_12  and  O_16
REMARK    5  A    between atoms: C_13  and  O_18
REMARK    6  A    between atoms: C_14  and  O_20
REMARK    7  A    between atoms: C_22  and  O_23
REMARK    8  A    between atoms: C_25  and  C_27
REMARK    9  A    between atoms: C_32  and  O_33
REMARK   10  A    between atoms: O_33  and  C_34
REMARK                            x       y       z     vdW  Elec       q    Type
REMARK                         _______ _______ _______ _____ _____    ______ ____
ROOT
ATOM      1 CL   UNL     1      30.815 -10.208 -17.466  0.00  0.00    -0.083 Cl
ATOM      2  C   UNL     1      31.185  -7.807 -21.272  0.00  0.00    +0.031 C 
ATOM      3  C   UNL     1      30.818  -9.151 -21.340  0.00  0.00    -0.003 C 
ATOM      4  C   UNL     1      31.433  -7.214 -20.034  0.00  0.00    +0.001 C 
ATOM      5  C   UNL     1      30.701  -9.902 -20.171  0.00  0.00    -0.007 C 
ATOM      6  C   UNL     1      31.315  -7.965 -18.865  0.00  0.00    +0.011 C 
ATOM      7  C   UNL     1      30.949  -9.309 -18.933  0.00  0.00    +0.054 C 
ENDROOT
BRANCH   2  11
ATOM      8  O   UNL     1      31.741  -5.640 -22.277  0.00  0.00    -0.326 OA
ATOM      9  O   UNL     1      30.028  -6.908 -23.199  0.00  0.00    -0.326 OA
ATOM     10  C   UNL     1      31.256  -4.929 -23.423  0.00  0.00    +0.176 C 
ATOM     11  C   UNL     1      31.313  -6.990 -22.542  0.00  0.00    +0.235 C 
ATOM     12  C   UNL     1      32.188  -5.268 -24.615  0.00  0.00    +0.169 C 
ATOM     13  C   UNL     1      32.321  -7.592 -23.548  0.00  0.00    +0.196 C 
ATOM     14  C   UNL     1      32.349  -6.783 -24.860  0.00  0.00    +0.172 C 
ATOM     15  C   UNL     1      29.862  -5.527 -23.547  0.00  0.00    +0.177 C 
BRANCH  12  16
ATOM     16  O   UNL     1      33.482  -4.722 -24.339  0.00  0.00    -0.379 OA
ATOM     17  H   UNL     1      33.702  -4.056 -25.009  0.00  0.00    +0.211 HD
ENDBRANCH  12  16
BRANCH  13  18
ATOM     18  O   UNL     1      33.629  -7.589 -22.978  0.00  0.00    -0.377 OA
ATOM     19  H   UNL     1      33.560  -7.594 -22.010  0.00  0.00    +0.211 HD
ENDBRANCH  13  18
BRANCH  14  20
ATOM     20  O   UNL     1      31.281  -7.241 -25.692  0.00  0.00    -0.379 OA
ATOM     21  H   UNL     1      30.458  -6.799 -25.433  0.00  0.00    +0.211 HD
ENDBRANCH  14  20
BRANCH  10  22
ATOM     22  C   UNL     1      31.217  -3.437 -23.118  0.00  0.00    +0.169 C 
BRANCH  22  23
ATOM     23  O   UNL     1      30.871  -3.264 -21.755  0.00  0.00    -0.379 OA
ATOM     24  H   UNL     1      31.075  -4.075 -21.265  0.00  0.00    +0.211 HD
ENDBRANCH  22  23
ENDBRANCH  10  22
ENDBRANCH   2  11
BRANCH   5  25
ATOM     25  C   UNL     1      30.307 -11.339 -20.287  0.00  0.00    +0.054 C 
BRANCH  25  27
ATOM     26  F   UNL     1      33.455 -12.614 -23.798  0.00  0.00    -0.201 F 
ATOM     27  C   UNL     1      31.407 -12.234 -20.817  0.00  0.00    -0.015 C 
ATOM     28  C   UNL     1      31.937 -12.010 -22.088  0.00  0.00    +0.029 C 
ATOM     29  C   UNL     1      31.891 -13.283 -20.036  0.00  0.00    -0.001 C 
ATOM     30  C   UNL     1      32.951 -12.834 -22.576  0.00  0.00    +0.174 C 
ATOM     31  C   UNL     1      32.904 -14.107 -20.523  0.00  0.00    +0.039 C 
ATOM     32  C   UNL     1      33.434 -13.883 -21.794  0.00  0.00    +0.166 C 
BRANCH  32  33
ATOM     33  O   UNL     1      34.423 -14.689 -22.270  0.00  0.00    -0.473 OA
BRANCH  33  34
ATOM     34  C   UNL     1      34.081 -16.050 -22.529  0.00  0.00    +0.206 C 
ATOM     35  C   UNL     1      33.830 -16.221 -24.012  0.00  0.00    +0.051 C 
ENDBRANCH  33  34
ENDBRANCH  32  33
ENDBRANCH  25  27
ENDBRANCH   5  25
TORSDOF 10
ENDMDL
MODEL 7
REMARK VINA RESULT:      -9.1     10.584     16.998
REMARK  Name = 56832738
REMARK  10 active torsions:
REMARK  status: ('A' for Active; 'I' for Inactive)
REMARK    1  A    between atoms: C_2  and  C_11
REMARK    2  A    between atoms: C_5  and  C_25
REMARK    3  A    between atoms: C_10  and  C_22
REMARK    4  A    between atoms: C_12  and  O_16
REMARK    5  A    between atoms: C_13  and  O_18
REMARK    6  A    between atoms: C_14  and  O_20
REMARK    7  A    between atoms: C_22  and  O_23
REMARK    8  A    between atoms: C_25  and  C_27
REMARK    9  A    between atoms: C_32  and  O_33
REMARK   10  A    between atoms: O_33  and  C_34
REMARK                            x       y       z     vdW  Elec       q    Type
REMARK                         _______ _______ _______ _____ _____    ______ ____
ROOT
ATOM      1 CL   UNL     1      30.786 -10.022 -17.729  0.00  0.00    -0.083 Cl
ATOM      2  C   UNL     1      31.586  -7.787 -21.570  0.00  0.00    +0.031 C 
ATOM      3  C   UNL     1      31.118  -9.099 -21.624  0.00  0.00    -0.003 C 
ATOM      4  C   UNL     1      31.801  -7.173 -20.336  0.00  0.00    +0.001 C 
ATOM      5  C   UNL     1      30.867  -9.799 -20.443  0.00  0.00    -0.007 C 
ATOM      6  C   UNL     1      31.550  -7.873 -19.156  0.00  0.00    +0.011 C 
ATOM      7  C   UNL     1      31.083  -9.186 -19.209  0.00  0.00    +0.054 C 
ENDROOT
BRANCH   2  11
ATOM      8  O   UNL     1      30.747  -7.092 -23.767  0.00  0.00    -0.326 OA
ATOM      9  O   UNL     1      33.000  -7.601 -23.526  0.00  0.00    -0.326 OA
ATOM     10  C   UNL     1      31.373  -6.857 -25.035  0.00  0.00    +0.176 C 
ATOM     11  C   UNL     1      31.858  -7.026 -22.852  0.00  0.00    +0.235 C 
ATOM     12  C   UNL     1      31.694  -5.342 -25.126  0.00  0.00    +0.169 C 
ATOM     13  C   UNL     1      32.154  -5.527 -22.613  0.00  0.00    +0.196 C 
ATOM     14  C   UNL     1      32.517  -4.814 -23.931  0.00  0.00    +0.172 C 
ATOM     15  C   UNL     1      32.607  -7.737 -24.898  0.00  0.00    +0.177 C 
BRANCH  12  16
ATOM     16  O   UNL     1      30.456  -4.625 -25.166  0.00  0.00    -0.379 OA
ATOM     17  H   UNL     1      30.612  -3.698 -24.927  0.00  0.00    +0.211 HD
ENDBRANCH  12  16
BRANCH  13  18
ATOM     18  O   UNL     1      31.006  -4.894 -22.048  0.00  0.00    -0.377 OA
ATOM     19  H   UNL     1      31.114  -4.829 -21.086  0.00  0.00    +0.211 HD
ENDBRANCH  13  18
BRANCH  14  20
ATOM     20  O   UNL     1      33.906  -5.024 -24.188  0.00  0.00    -0.379 OA
ATOM     21  H   UNL     1      34.424  -4.333 -23.747  0.00  0.00    +0.211 HD
ENDBRANCH  14  20
BRANCH  10  22
ATOM     22  C   UNL     1      30.452  -7.326 -26.153  0.00  0.00    +0.169 C 
BRANCH  22  23
ATOM     23  O   UNL     1      30.788  -6.626 -27.338  0.00  0.00    -0.379 OA
ATOM     24  H   UNL     1      30.525  -5.696 -27.250  0.00  0.00    +0.211 HD
ENDBRANCH  22  23
ENDBRANCH  10  22
ENDBRANCH   2  11
BRANCH   5  25
ATOM     25  C   UNL     1      30.369 -11.205 -20.544  0.00  0.00    +0.054 C 
BRANCH  25  27
ATOM     26  F   UNL     1      33.285 -14.986 -19.513  0.00  0.00    -0.201 F 
ATOM     27  C   UNL     1      31.433 -12.204 -20.946  0.00  0.00    -0.015 C 
ATOM     28  C   UNL     1      31.880 -13.155 -20.028  0.00  0.00    +0.029 C 
ATOM     29  C   UNL     1      31.968 -12.173 -22.234  0.00  0.00    -0.001 C 
ATOM     30  C   UNL     1      32.860 -14.074 -20.399  0.00  0.00    +0.174 C 
ATOM     31  C   UNL     1      32.948 -13.092 -22.604  0.00  0.00    +0.039 C 
ATOM     32  C   UNL     1      33.395 -14.043 -21.687  0.00  0.00    +0.166 C 
BRANCH  32  33
ATOM     33  O   UNL     1      34.353 -14.940 -22.050  0.00  0.00    -0.473 OA
BRANCH  33  34
ATOM     34  C   UNL     1      34.077 -15.759 -23.186  0.00  0.00    +0.206 C 
ATOM     35  C   UNL     1      34.212 -17.214 -22.788  0.00  0.00    +0.051 C 
ENDBRANCH  33  34
ENDBRANCH  32  33
ENDBRANCH  25  27
ENDBRANCH   5  25
TORSDOF 10
ENDMDL
MODEL 8
REMARK VINA RESULT:      -8.8      3.429      7.326
REMARK  Name = 56832738
REMARK  10 active torsions:
REMARK  status: ('A' for Active; 'I' for Inactive)
REMARK    1  A    between atoms: C_2  and  C_11
REMARK    2  A    between atoms: C_5  and  C_25
REMARK    3  A    between atoms: C_10  and  C_22
REMARK    4  A    between atoms: C_12  and  O_16
REMARK    5  A    between atoms: C_13  and  O_18
REMARK    6  A    between atoms: C_14  and  O_20
REMARK    7  A    between atoms: C_22  and  O_23
REMARK    8  A    between atoms: C_25  and  C_27
REMARK    9  A    between atoms: C_32  and  O_33
REMARK   10  A    between atoms: O_33  and  C_34
REMARK                            x       y       z     vdW  Elec       q    Type
REMARK                         _______ _______ _______ _____ _____    ______ ____
ROOT
ATOM      1 CL   UNL     1      35.397 -21.420 -18.607  0.00  0.00    -0.083 Cl
ATOM      2  C   UNL     1      32.152 -22.723 -15.750  0.00  0.00    +0.031 C 
ATOM      3  C   UNL     1      33.480 -22.719 -15.326  0.00  0.00    -0.003 C 
ATOM      4  C   UNL     1      31.834 -22.324 -17.048  0.00  0.00    +0.001 C 
ATOM      5  C   UNL     1      34.491 -22.318 -16.200  0.00  0.00    -0.007 C 
ATOM      6  C   UNL     1      32.844 -21.923 -17.922  0.00  0.00    +0.011 C 
ATOM      7  C   UNL     1      34.173 -21.920 -17.498  0.00  0.00    +0.054 C 
ENDROOT
BRANCH   2  11
ATOM      8  O   UNL     1      30.046 -23.946 -15.464  0.00  0.00    -0.326 OA
ATOM      9  O   UNL     1      30.394 -21.994 -14.254  0.00  0.00    -0.326 OA
ATOM     10  C   UNL     1      28.901 -23.758 -14.623  0.00  0.00    +0.176 C 
ATOM     11  C   UNL     1      31.054 -23.158 -14.801  0.00  0.00    +0.235 C 
ATOM     12  C   UNL     1      29.107 -24.620 -13.350  0.00  0.00    +0.169 C 
ATOM     13  C   UNL     1      31.579 -24.004 -13.618  0.00  0.00    +0.196 C 
ATOM     14  C   UNL     1      30.445 -24.345 -12.630  0.00  0.00    +0.172 C 
ATOM     15  C   UNL     1      28.989 -22.261 -14.370  0.00  0.00    +0.177 C 
BRANCH  12  16
ATOM     16  O   UNL     1      29.085 -25.998 -13.734  0.00  0.00    -0.379 OA
ATOM     17  H   UNL     1      28.961 -26.065 -14.694  0.00  0.00    +0.211 HD
ENDBRANCH  12  16
BRANCH  13  18
ATOM     18  O   UNL     1      32.142 -25.220 -14.109  0.00  0.00    -0.377 OA
ATOM     19  H   UNL     1      33.110 -25.163 -14.078  0.00  0.00    +0.211 HD
ENDBRANCH  13  18
BRANCH  14  20
ATOM     20  O   UNL     1      30.281 -23.241 -11.738  0.00  0.00    -0.379 OA
ATOM     21  H   UNL     1      30.845 -22.507 -12.025  0.00  0.00    +0.211 HD
ENDBRANCH  14  20
BRANCH  10  22
ATOM     22  C   UNL     1      27.639 -24.140 -15.386  0.00  0.00    +0.169 C 
BRANCH  22  23
ATOM     23  O   UNL     1      27.519 -23.290 -16.513  0.00  0.00    -0.379 OA
ATOM     24  H   UNL     1      26.685 -23.477 -16.972  0.00  0.00    +0.211 HD
ENDBRANCH  22  23
ENDBRANCH  10  22
ENDBRANCH   2  11
BRANCH   5  25
ATOM     25  C   UNL     1      35.902 -22.331 -15.707  0.00  0.00    +0.054 C 
BRANCH  25  27
ATOM     26  F   UNL     1      36.326 -26.122 -12.656  0.00  0.00    -0.201 F 
ATOM     27  C   UNL     1      36.057 -22.896 -14.311  0.00  0.00    -0.015 C 
ATOM     28  C   UNL     1      36.122 -24.276 -14.119  0.00  0.00    +0.029 C 
ATOM     29  C   UNL     1      36.134 -22.035 -13.215  0.00  0.00    -0.001 C 
ATOM     30  C   UNL     1      36.264 -24.795 -12.833  0.00  0.00    +0.174 C 
ATOM     31  C   UNL     1      36.277 -22.555 -11.930  0.00  0.00    +0.039 C 
ATOM     32  C   UNL     1      36.342 -23.935 -11.738  0.00  0.00    +0.166 C 
BRANCH  32  33
ATOM     33  O   UNL     1      36.480 -24.441 -10.482  0.00  0.00    -0.473 OA
BRANCH  33  34
ATOM     34  C   UNL     1      35.632 -23.902  -9.468  0.00  0.00    +0.206 C 
ATOM     35  C   UNL     1      34.220 -24.401  -9.693  0.00  0.00    +0.051 C 
ENDBRANCH  33  34
ENDBRANCH  32  33
ENDBRANCH  25  27
ENDBRANCH   5  25
TORSDOF 10
ENDMDL
MODEL 9
REMARK VINA RESULT:      -8.7      3.717      7.410
REMARK  Name = 56832738
REMARK  10 active torsions:
REMARK  status: ('A' for Active; 'I' for Inactive)
REMARK    1  A    between atoms: C_2  and  C_11
REMARK    2  A    between atoms: C_5  and  C_25
REMARK    3  A    between atoms: C_10  and  C_22
REMARK    4  A    between atoms: C_12  and  O_16
REMARK    5  A    between atoms: C_13  and  O_18
REMARK    6  A    between atoms: C_14  and  O_20
REMARK    7  A    between atoms: C_22  and  O_23
REMARK    8  A    between atoms: C_25  and  C_27
REMARK    9  A    between atoms: C_32  and  O_33
REMARK   10  A    between atoms: O_33  and  C_34
REMARK                            x       y       z     vdW  Elec       q    Type
REMARK                         _______ _______ _______ _____ _____    ______ ____
ROOT
ATOM      1 CL   UNL     1      35.772 -21.490 -17.849  0.00  0.00    -0.083 Cl
ATOM      2  C   UNL     1      32.219 -22.798 -15.389  0.00  0.00    +0.031 C 
ATOM      3  C   UNL     1      33.401 -22.432 -14.747  0.00  0.00    -0.003 C 
ATOM      4  C   UNL     1      32.139 -22.756 -16.780  0.00  0.00    +0.001 C 
ATOM      5  C   UNL     1      34.505 -22.026 -15.497  0.00  0.00    -0.007 C 
ATOM      6  C   UNL     1      33.243 -22.350 -17.530  0.00  0.00    +0.011 C 
ATOM      7  C   UNL     1      34.426 -21.984 -16.889  0.00  0.00    +0.054 C 
ENDROOT
BRANCH   2  11
ATOM      8  O   UNL     1      30.071 -23.982 -15.365  0.00  0.00    -0.326 OA
ATOM      9  O   UNL     1      30.328 -22.078 -14.060  0.00  0.00    -0.326 OA
ATOM     10  C   UNL     1      28.849 -23.796 -14.641  0.00  0.00    +0.176 C 
ATOM     11  C   UNL     1      31.019 -23.239 -14.574  0.00  0.00    +0.235 C 
ATOM     12  C   UNL     1      28.905 -24.702 -13.384  0.00  0.00    +0.169 C 
ATOM     13  C   UNL     1      31.402 -24.133 -13.372  0.00  0.00    +0.196 C 
ATOM     14  C   UNL     1      30.164 -24.480 -12.520  0.00  0.00    +0.172 C 
ATOM     15  C   UNL     1      28.938 -22.310 -14.329  0.00  0.00    +0.177 C 
BRANCH  12  16
ATOM     16  O   UNL     1      28.896 -26.067 -13.815  0.00  0.00    -0.379 OA
ATOM     17  H   UNL     1      28.349 -26.593 -13.212  0.00  0.00    +0.211 HD
ENDBRANCH  12  16
BRANCH  13  18
ATOM     18  O   UNL     1      31.990 -25.345 -13.843  0.00  0.00    -0.377 OA
ATOM     19  H   UNL     1      32.915 -25.389 -13.553  0.00  0.00    +0.211 HD
ENDBRANCH  13  18
BRANCH  14  20
ATOM     20  O   UNL     1      29.928 -23.402 -11.613  0.00  0.00    -0.379 OA
ATOM     21  H   UNL     1      29.152 -22.899 -11.903  0.00  0.00    +0.211 HD
ENDBRANCH  14  20
BRANCH  10  22
ATOM     22  C   UNL     1      27.667 -24.125 -15.544  0.00  0.00    +0.169 C 
BRANCH  22  23
ATOM     23  O   UNL     1      27.617 -23.168 -16.588  0.00  0.00    -0.379 OA
ATOM     24  H   UNL     1      27.982 -23.556 -17.399  0.00  0.00    +0.211 HD
ENDBRANCH  22  23
ENDBRANCH  10  22
ENDBRANCH   2  11
BRANCH   5  25
ATOM     25  C   UNL     1      35.755 -21.643 -14.771  0.00  0.00    +0.054 C 
BRANCH  25  27
ATOM     26  F   UNL     1      36.643 -25.075 -11.411  0.00  0.00    -0.201 F 
ATOM     27  C   UNL     1      36.555 -22.825 -14.265  0.00  0.00    -0.015 C 
ATOM     28  C   UNL     1      36.227 -23.420 -13.047  0.00  0.00    +0.029 C 
ATOM     29  C   UNL     1      37.621 -23.318 -15.017  0.00  0.00    -0.001 C 
ATOM     30  C   UNL     1      36.963 -24.508 -12.582  0.00  0.00    +0.174 C 
ATOM     31  C   UNL     1      38.358 -24.407 -14.552  0.00  0.00    +0.039 C 
ATOM     32  C   UNL     1      38.029 -25.001 -13.334  0.00  0.00    +0.166 C 
BRANCH  32  33
ATOM     33  O   UNL     1      38.750 -26.064 -12.881  0.00  0.00    -0.473 OA
BRANCH  33  34
ATOM     34  C   UNL     1      40.036 -26.272 -13.464  0.00  0.00    +0.206 C 
ATOM     35  C   UNL     1      40.771 -27.331 -12.671  0.00  0.00    +0.051 C 
ENDBRANCH  33  34
ENDBRANCH  32  33
ENDBRANCH  25  27
ENDBRANCH   5  25
TORSDOF 10
ENDMDL
