MODEL 1
REMARK VINA RESULT:     -12.1      0.000      0.000
REMARK  Name = 6914657
REMARK  8 active torsions:
REMARK  status: ('A' for Active; 'I' for Inactive)
REMARK    1  A    between atoms: C_1  and  C_4
REMARK    2  A    between atoms: C_1  and  C_16
REMARK    3  A    between atoms: C_9  and  C_10
REMARK    4  A    between atoms: C_16  and  C_17
REMARK    5  A    between atoms: C_17  and  C_18
REMARK    6  A    between atoms: C_18  and  N_20
REMARK    7  A    between atoms: C_21  and  C_23
REMARK    8  A    between atoms: C_24  and  C_26
REMARK                            x       y       z     vdW  Elec       q    Type
REMARK                         _______ _______ _______ _____ _____    ______ ____
ROOT
ATOM      1  C   UNL     1      31.261 -12.701 -19.921  0.00  0.00    +0.000 C 
ENDROOT
BRANCH   1   4
ATOM      2  O   UNL     1      32.253  -6.623 -19.006  0.00  0.00    -0.270 OA
ATOM      3  N   UNL     1      31.218  -8.410 -20.102  0.00  0.00    -0.276 N 
ATOM      4  C   UNL     1      30.747 -11.267 -20.013  0.00  0.00    +0.003 C 
ATOM      5  C   UNL     1      31.286 -10.572 -21.275  0.00  0.00    +0.022 C 
ATOM      6  C   UNL     1      31.131 -10.467 -18.757  0.00  0.00    +0.022 C 
ATOM      7  C   UNL     1      30.839  -9.114 -21.334  0.00  0.00    +0.094 C 
ATOM      8  C   UNL     1      30.695  -9.007 -18.874  0.00  0.00    +0.094 C 
ATOM      9  C   UNL     1      31.971  -7.236 -20.034  0.00  0.00    +0.249 C 
BRANCH   9  10
ATOM     10  C   UNL     1      32.490  -6.672 -21.286  0.00  0.00    +0.054 C 
ATOM     11  C   UNL     1      31.777  -5.674 -21.951  0.00  0.00    +0.005 C 
ATOM     12  C   UNL     1      33.696  -7.135 -21.813  0.00  0.00    +0.005 C 
ATOM     13  C   UNL     1      32.270  -5.138 -23.140  0.00  0.00    +0.000 C 
ATOM     14  C   UNL     1      34.189  -6.599 -23.003  0.00  0.00    +0.000 C 
ATOM     15  C   UNL     1      33.476  -5.600 -23.666  0.00  0.00    +0.000 C 
ENDBRANCH   9  10
ENDBRANCH   1   4
BRANCH   1  16
ATOM     16  C   UNL     1      32.009 -13.103 -21.189  0.00  0.00    +0.002 C 
BRANCH  16  17
ATOM     17  C   UNL     1      33.344 -13.767 -20.854  0.00  0.00    +0.021 C 
BRANCH  17  18
ATOM     18  C   UNL     1      33.806 -14.684 -21.979  0.00  0.00    +0.090 C 
BRANCH  18  20
ATOM     19  O   UNL     1      34.298 -17.029 -23.609  0.00  0.00    -0.270 OA
ATOM     20  N   UNL     1      33.933 -16.045 -21.533  0.00  0.00    -0.301 N 
ATOM     21  C   UNL     1      34.171 -17.111 -22.392  0.00  0.00    +0.246 C 
ATOM     22  H   UNL     1      33.849 -16.230 -20.570  0.00  0.00    +0.150 HD
BRANCH  21  23
ATOM     23  C   UNL     1      34.259 -18.409 -21.663  0.00  0.00    +0.058 C 
ATOM     24  C   UNL     1      33.430 -18.660 -20.640  0.00  0.00    +0.006 C 
BRANCH  24  26
ATOM     25  N   UNL     1      32.151 -21.649 -18.762  0.00  0.00    -0.242 NA
ATOM     26  C   UNL     1      33.422 -19.908 -19.857  0.00  0.00    +0.019 C 
ATOM     27  C   UNL     1      34.609 -20.522 -19.473  0.00  0.00    +0.003 C 
ATOM     28  C   UNL     1      32.230 -20.506 -19.480  0.00  0.00    +0.099 C 
ATOM     29  C   UNL     1      34.568 -21.699 -18.734  0.00  0.00    +0.021 C 
ATOM     30  C   UNL     1      33.326 -22.217 -18.406  0.00  0.00    +0.099 C 
ENDBRANCH  24  26
ENDBRANCH  21  23
ENDBRANCH  18  20
ENDBRANCH  17  18
ENDBRANCH  16  17
ENDBRANCH   1  16
TORSDOF 8
ENDMDL
MODEL 2
REMARK VINA RESULT:     -11.1      4.740      7.950
REMARK  Name = 6914657
REMARK  8 active torsions:
REMARK  status: ('A' for Active; 'I' for Inactive)
REMARK    1  A    between atoms: C_1  and  C_4
REMARK    2  A    between atoms: C_1  and  C_16
REMARK    3  A    between atoms: C_9  and  C_10
REMARK    4  A    between atoms: C_16  and  C_17
REMARK    5  A    between atoms: C_17  and  C_18
REMARK    6  A    between atoms: C_18  and  N_20
REMARK    7  A    between atoms: C_21  and  C_23
REMARK    8  A    between atoms: C_24  and  C_26
REMARK                            x       y       z     vdW  Elec       q    Type
REMARK                         _______ _______ _______ _____ _____    ______ ____
ROOT
ATOM      1  C   UNL     1      34.371 -18.997 -20.443  0.00  0.00    +0.000 C 
ENDROOT
BRANCH   1   4
ATOM      2  O   UNL     1      31.476 -16.351 -25.279  0.00  0.00    -0.270 OA
ATOM      3  N   UNL     1      33.378 -16.789 -23.990  0.00  0.00    -0.276 N 
ATOM      4  C   UNL     1      34.446 -18.436 -21.861  0.00  0.00    +0.003 C 
ATOM      5  C   UNL     1      34.564 -16.903 -21.837  0.00  0.00    +0.022 C 
ATOM      6  C   UNL     1      33.219 -18.865 -22.684  0.00  0.00    +0.022 C 
ATOM      7  C   UNL     1      34.561 -16.329 -23.252  0.00  0.00    +0.094 C 
ATOM      8  C   UNL     1      33.240 -18.242 -24.078  0.00  0.00    +0.094 C 
ATOM      9  C   UNL     1      32.444 -15.966 -24.625  0.00  0.00    +0.249 C 
BRANCH   9  10
ATOM     10  C   UNL     1      32.607 -14.512 -24.505  0.00  0.00    +0.054 C 
ATOM     11  C   UNL     1      32.754 -13.928 -23.246  0.00  0.00    +0.005 C 
ATOM     12  C   UNL     1      32.615 -13.714 -25.648  0.00  0.00    +0.005 C 
ATOM     13  C   UNL     1      32.908 -12.547 -23.132  0.00  0.00    +0.000 C 
ATOM     14  C   UNL     1      32.770 -12.332 -25.534  0.00  0.00    +0.000 C 
ATOM     15  C   UNL     1      32.916 -11.749 -24.275  0.00  0.00    +0.000 C 
ENDBRANCH   9  10
ENDBRANCH   1   4
BRANCH   1  16
ATOM     16  C   UNL     1      35.742 -19.461 -19.959  0.00  0.00    +0.002 C 
BRANCH  16  17
ATOM     17  C   UNL     1      35.610 -20.528 -18.872  0.00  0.00    +0.021 C 
BRANCH  17  18
ATOM     18  C   UNL     1      34.551 -21.562 -19.235  0.00  0.00    +0.090 C 
BRANCH  18  20
ATOM     19  O   UNL     1      31.760 -21.466 -18.461  0.00  0.00    -0.270 OA
ATOM     20  N   UNL     1      33.951 -22.138 -18.063  0.00  0.00    -0.301 N 
ATOM     21  C   UNL     1      32.596 -22.042 -17.772  0.00  0.00    +0.246 C 
ATOM     22  H   UNL     1      34.531 -22.627 -17.435  0.00  0.00    +0.150 HD
BRANCH  21  23
ATOM     23  C   UNL     1      32.246 -22.731 -16.497  0.00  0.00    +0.058 C 
ATOM     24  C   UNL     1      30.987 -22.692 -16.039  0.00  0.00    +0.006 C 
BRANCH  24  26
ATOM     25  N   UNL     1      30.854 -23.752 -12.439  0.00  0.00    -0.242 NA
ATOM     26  C   UNL     1      30.527 -23.342 -14.800  0.00  0.00    +0.019 C 
ATOM     27  C   UNL     1      29.383 -24.133 -14.786  0.00  0.00    +0.003 C 
ATOM     28  C   UNL     1      31.220 -23.184 -13.611  0.00  0.00    +0.099 C 
ATOM     29  C   UNL     1      28.974 -24.733 -13.601  0.00  0.00    +0.021 C 
ATOM     30  C   UNL     1      29.737 -24.514 -12.466  0.00  0.00    +0.099 C 
ENDBRANCH  24  26
ENDBRANCH  21  23
ENDBRANCH  18  20
ENDBRANCH  17  18
ENDBRANCH  16  17
ENDBRANCH   1  16
TORSDOF 8
ENDMDL
MODEL 3
REMARK VINA RESULT:     -11.0      7.738     11.340
REMARK  Name = 6914657
REMARK  8 active torsions:
REMARK  status: ('A' for Active; 'I' for Inactive)
REMARK    1  A    between atoms: C_1  and  C_4
REMARK    2  A    between atoms: C_1  and  C_16
REMARK    3  A    between atoms: C_9  and  C_10
REMARK    4  A    between atoms: C_16  and  C_17
REMARK    5  A    between atoms: C_17  and  C_18
REMARK    6  A    between atoms: C_18  and  N_20
REMARK    7  A    between atoms: C_21  and  C_23
REMARK    8  A    between atoms: C_24  and  C_26
REMARK                            x       y       z     vdW  Elec       q    Type
REMARK                         _______ _______ _______ _____ _____    ______ ____
ROOT
ATOM      1  C   UNL     1      36.011 -21.692 -15.617  0.00  0.00    +0.000 C 
ENDROOT
BRANCH   1   4
ATOM      2  O   UNL     1      31.648 -20.208 -19.804  0.00  0.00    -0.270 OA
ATOM      3  N   UNL     1      33.747 -21.052 -19.210  0.00  0.00    -0.276 N 
ATOM      4  C   UNL     1      35.383 -21.931 -16.988  0.00  0.00    +0.003 C 
ATOM      5  C   UNL     1      35.889 -20.900 -18.009  0.00  0.00    +0.022 C 
ATOM      6  C   UNL     1      33.848 -21.889 -16.901  0.00  0.00    +0.022 C 
ATOM      7  C   UNL     1      35.206 -21.085 -19.363  0.00  0.00    +0.094 C 
ATOM      8  C   UNL     1      33.209 -22.044 -18.279  0.00  0.00    +0.094 C 
ATOM      9  C   UNL     1      32.874 -20.207 -19.900  0.00  0.00    +0.249 C 
BRANCH   9  10
ATOM     10  C   UNL     1      33.450 -19.216 -20.817  0.00  0.00    +0.054 C 
ATOM     11  C   UNL     1      34.251 -18.187 -20.319  0.00  0.00    +0.005 C 
ATOM     12  C   UNL     1      33.198 -19.301 -22.185  0.00  0.00    +0.005 C 
ATOM     13  C   UNL     1      34.798 -17.246 -21.189  0.00  0.00    +0.000 C 
ATOM     14  C   UNL     1      33.746 -18.359 -23.057  0.00  0.00    +0.000 C 
ATOM     15  C   UNL     1      34.546 -17.331 -22.558  0.00  0.00    +0.000 C 
ENDBRANCH   9  10
ENDBRANCH   1   4
BRANCH   1  16
ATOM     16  C   UNL     1      35.338 -22.544 -14.544  0.00  0.00    +0.002 C 
BRANCH  16  17
ATOM     17  C   UNL     1      36.273 -23.648 -14.052  0.00  0.00    +0.021 C 
BRANCH  17  18
ATOM     18  C   UNL     1      35.509 -24.721 -13.284  0.00  0.00    +0.090 C 
BRANCH  18  20
ATOM     19  O   UNL     1      33.554 -23.696 -11.406  0.00  0.00    -0.270 OA
ATOM     20  N   UNL     1      34.089 -24.602 -13.481  0.00  0.00    -0.301 N 
ATOM     21  C   UNL     1      33.225 -24.095 -12.519  0.00  0.00    +0.246 C 
ATOM     22  H   UNL     1      33.712 -24.894 -14.341  0.00  0.00    +0.150 HD
BRANCH  21  23
ATOM     23  C   UNL     1      31.810 -24.085 -12.987  0.00  0.00    +0.058 C 
ATOM     24  C   UNL     1      31.473 -23.394 -14.085  0.00  0.00    +0.006 C 
BRANCH  24  26
ATOM     25  N   UNL     1      28.573 -22.306 -16.208  0.00  0.00    -0.242 NA
ATOM     26  C   UNL     1      30.111 -23.320 -14.642  0.00  0.00    +0.019 C 
ATOM     27  C   UNL     1      29.096 -24.146 -14.170  0.00  0.00    +0.003 C 
ATOM     28  C   UNL     1      29.800 -22.425 -15.654  0.00  0.00    +0.099 C 
ATOM     29  C   UNL     1      27.821 -24.052 -14.715  0.00  0.00    +0.021 C 
ATOM     30  C   UNL     1      27.613 -23.125 -15.723  0.00  0.00    +0.099 C 
ENDBRANCH  24  26
ENDBRANCH  21  23
ENDBRANCH  18  20
ENDBRANCH  17  18
ENDBRANCH  16  17
ENDBRANCH   1  16
TORSDOF 8
ENDMDL
MODEL 4
REMARK VINA RESULT:     -11.0      4.743      8.254
REMARK  Name = 6914657
REMARK  8 active torsions:
REMARK  status: ('A' for Active; 'I' for Inactive)
REMARK    1  A    between atoms: C_1  and  C_4
REMARK    2  A    between atoms: C_1  and  C_16
REMARK    3  A    between atoms: C_9  and  C_10
REMARK    4  A    between atoms: C_16  and  C_17
REMARK    5  A    between atoms: C_17  and  C_18
REMARK    6  A    between atoms: C_18  and  N_20
REMARK    7  A    between atoms: C_21  and  C_23
REMARK    8  A    between atoms: C_24  and  C_26
REMARK                            x       y       z     vdW  Elec       q    Type
REMARK                         _______ _______ _______ _____ _____    ______ ____
ROOT
ATOM      1  C   UNL     1      34.481 -19.067 -20.400  0.00  0.00    +0.000 C 
ENDROOT
BRANCH   1   4
ATOM      2  O   UNL     1      31.510 -16.426 -25.192  0.00  0.00    -0.270 OA
ATOM      3  N   UNL     1      33.429 -16.850 -23.925  0.00  0.00    -0.276 N 
ATOM      4  C   UNL     1      34.536 -18.498 -21.815  0.00  0.00    +0.003 C 
ATOM      5  C   UNL     1      34.637 -16.964 -21.785  0.00  0.00    +0.022 C 
ATOM      6  C   UNL     1      33.306 -18.935 -22.628  0.00  0.00    +0.022 C 
ATOM      7  C   UNL     1      34.614 -16.382 -23.196  0.00  0.00    +0.094 C 
ATOM      8  C   UNL     1      33.306 -18.304 -24.019  0.00  0.00    +0.094 C 
ATOM      9  C   UNL     1      32.480 -16.034 -24.546  0.00  0.00    +0.249 C 
BRANCH   9  10
ATOM     10  C   UNL     1      32.628 -14.579 -24.419  0.00  0.00    +0.054 C 
ATOM     11  C   UNL     1      32.618 -13.775 -25.559  0.00  0.00    +0.005 C 
ATOM     12  C   UNL     1      32.779 -14.000 -23.159  0.00  0.00    +0.005 C 
ATOM     13  C   UNL     1      32.758 -12.393 -25.439  0.00  0.00    +0.000 C 
ATOM     14  C   UNL     1      32.920 -12.617 -23.039  0.00  0.00    +0.000 C 
ATOM     15  C   UNL     1      32.910 -11.814 -24.180  0.00  0.00    +0.000 C 
ENDBRANCH   9  10
ENDBRANCH   1   4
BRANCH   1  16
ATOM     16  C   UNL     1      33.122 -19.700 -20.111  0.00  0.00    +0.002 C 
BRANCH  16  17
ATOM     17  C   UNL     1      33.254 -20.857 -19.121  0.00  0.00    +0.021 C 
BRANCH  17  18
ATOM     18  C   UNL     1      34.712 -21.121 -18.766  0.00  0.00    +0.090 C 
BRANCH  18  20
ATOM     19  O   UNL     1      36.467 -20.453 -16.559  0.00  0.00    -0.270 OA
ATOM     20  N   UNL     1      34.835 -21.810 -17.510  0.00  0.00    -0.301 N 
ATOM     21  C   UNL     1      35.708 -21.416 -16.505  0.00  0.00    +0.246 C 
ATOM     22  H   UNL     1      34.270 -22.601 -17.356  0.00  0.00    +0.150 HD
BRANCH  21  23
ATOM     23  C   UNL     1      35.628 -22.307 -15.312  0.00  0.00    +0.058 C 
ATOM     24  C   UNL     1      36.721 -22.958 -14.889  0.00  0.00    +0.006 C 
BRANCH  24  26
ATOM     25  N   UNL     1      37.155 -26.068 -12.829  0.00  0.00    -0.242 NA
ATOM     26  C   UNL     1      36.761 -23.855 -13.721  0.00  0.00    +0.019 C 
ATOM     27  C   UNL     1      36.461 -23.387 -12.446  0.00  0.00    +0.003 C 
ATOM     28  C   UNL     1      37.100 -25.192 -13.858  0.00  0.00    +0.099 C 
ATOM     29  C   UNL     1      36.506 -24.257 -11.363  0.00  0.00    +0.021 C 
ATOM     30  C   UNL     1      36.856 -25.576 -11.605  0.00  0.00    +0.099 C 
ENDBRANCH  24  26
ENDBRANCH  21  23
ENDBRANCH  18  20
ENDBRANCH  17  18
ENDBRANCH  16  17
ENDBRANCH   1  16
TORSDOF 8
ENDMDL
MODEL 5
REMARK VINA RESULT:     -10.7      1.170      1.834
REMARK  Name = 6914657
REMARK  8 active torsions:
REMARK  status: ('A' for Active; 'I' for Inactive)
REMARK    1  A    between atoms: C_1  and  C_4
REMARK    2  A    between atoms: C_1  and  C_16
REMARK    3  A    between atoms: C_9  and  C_10
REMARK    4  A    between atoms: C_16  and  C_17
REMARK    5  A    between atoms: C_17  and  C_18
REMARK    6  A    between atoms: C_18  and  N_20
REMARK    7  A    between atoms: C_21  and  C_23
REMARK    8  A    between atoms: C_24  and  C_26
REMARK                            x       y       z     vdW  Elec       q    Type
REMARK                         _______ _______ _______ _____ _____    ______ ____
ROOT
ATOM      1  C   UNL     1      32.510 -13.595 -20.836  0.00  0.00    +0.000 C 
ENDROOT
BRANCH   1   4
ATOM      2  O   UNL     1      30.972  -7.958 -18.686  0.00  0.00    -0.270 OA
ATOM      3  N   UNL     1      30.826  -9.687 -20.253  0.00  0.00    -0.276 N 
ATOM      4  C   UNL     1      31.492 -12.459 -20.763  0.00  0.00    +0.003 C 
ATOM      5  C   UNL     1      31.844 -11.344 -21.761  0.00  0.00    +0.022 C 
ATOM      6  C   UNL     1      31.408 -11.892 -19.336  0.00  0.00    +0.022 C 
ATOM      7  C   UNL     1      30.875 -10.170 -21.639  0.00  0.00    +0.094 C 
ATOM      8  C   UNL     1      30.455 -10.701 -19.267  0.00  0.00    +0.094 C 
ATOM      9  C   UNL     1      31.054  -8.372 -19.841  0.00  0.00    +0.249 C 
BRANCH   9  10
ATOM     10  C   UNL     1      31.437  -7.384 -20.857  0.00  0.00    +0.054 C 
ATOM     11  C   UNL     1      32.752  -7.336 -21.323  0.00  0.00    +0.005 C 
ATOM     12  C   UNL     1      30.488  -6.493 -21.357  0.00  0.00    +0.005 C 
ATOM     13  C   UNL     1      33.116  -6.398 -22.288  0.00  0.00    +0.000 C 
ATOM     14  C   UNL     1      30.853  -5.554 -22.323  0.00  0.00    +0.000 C 
ATOM     15  C   UNL     1      32.167  -5.507 -22.788  0.00  0.00    +0.000 C 
ENDBRANCH   9  10
ENDBRANCH   1   4
BRANCH   1  16
ATOM     16  C   UNL     1      33.330 -13.520 -22.122  0.00  0.00    +0.002 C 
BRANCH  16  17
ATOM     17  C   UNL     1      33.006 -14.692 -23.049  0.00  0.00    +0.021 C 
BRANCH  17  18
ATOM     18  C   UNL     1      34.259 -15.490 -23.392  0.00  0.00    +0.090 C 
BRANCH  18  20
ATOM     19  O   UNL     1      33.362 -18.196 -23.909  0.00  0.00    -0.270 OA
ATOM     20  N   UNL     1      34.407 -16.636 -22.536  0.00  0.00    -0.301 N 
ATOM     21  C   UNL     1      33.943 -17.902 -22.869  0.00  0.00    +0.246 C 
ATOM     22  H   UNL     1      34.861 -16.516 -21.671  0.00  0.00    +0.150 HD
BRANCH  21  23
ATOM     23  C   UNL     1      34.231 -18.903 -21.802  0.00  0.00    +0.058 C 
ATOM     24  C   UNL     1      33.280 -19.227 -20.914  0.00  0.00    +0.006 C 
BRANCH  24  26
ATOM     25  N   UNL     1      34.938 -21.490 -18.418  0.00  0.00    -0.242 NA
ATOM     26  C   UNL     1      33.450 -20.206 -19.827  0.00  0.00    +0.019 C 
ATOM     27  C   UNL     1      32.350 -20.767 -19.188  0.00  0.00    +0.003 C 
ATOM     28  C   UNL     1      34.712 -20.597 -19.408  0.00  0.00    +0.099 C 
ATOM     29  C   UNL     1      32.542 -21.689 -18.166  0.00  0.00    +0.021 C 
ATOM     30  C   UNL     1      33.843 -22.014 -17.821  0.00  0.00    +0.099 C 
ENDBRANCH  24  26
ENDBRANCH  21  23
ENDBRANCH  18  20
ENDBRANCH  17  18
ENDBRANCH  16  17
ENDBRANCH   1  16
TORSDOF 8
ENDMDL
MODEL 6
REMARK VINA RESULT:     -10.6      4.536      8.322
REMARK  Name = 6914657
REMARK  8 active torsions:
REMARK  status: ('A' for Active; 'I' for Inactive)
REMARK    1  A    between atoms: C_1  and  C_4
REMARK    2  A    between atoms: C_1  and  C_16
REMARK    3  A    between atoms: C_9  and  C_10
REMARK    4  A    between atoms: C_16  and  C_17
REMARK    5  A    between atoms: C_17  and  C_18
REMARK    6  A    between atoms: C_18  and  N_20
REMARK    7  A    between atoms: C_21  and  C_23
REMARK    8  A    between atoms: C_24  and  C_26
REMARK                            x       y       z     vdW  Elec       q    Type
REMARK                         _______ _______ _______ _____ _____    ______ ____
ROOT
ATOM      1  C   UNL     1      34.170 -19.486 -20.246  0.00  0.00    +0.000 C 
ENDROOT
BRANCH   1   4
ATOM      2  O   UNL     1      31.843 -16.301 -25.063  0.00  0.00    -0.270 OA
ATOM      3  N   UNL     1      33.576 -16.870 -23.601  0.00  0.00    -0.276 N 
ATOM      4  C   UNL     1      34.410 -18.754 -21.564  0.00  0.00    +0.003 C 
ATOM      5  C   UNL     1      34.480 -17.234 -21.341  0.00  0.00    +0.022 C 
ATOM      6  C   UNL     1      33.311 -19.093 -22.586  0.00  0.00    +0.022 C 
ATOM      7  C   UNL     1      34.642 -16.491 -22.665  0.00  0.00    +0.094 C 
ATOM      8  C   UNL     1      33.492 -18.303 -23.880  0.00  0.00    +0.094 C 
ATOM      9  C   UNL     1      32.708 -15.987 -24.248  0.00  0.00    +0.249 C 
BRANCH   9  10
ATOM     10  C   UNL     1      32.813 -14.557 -23.933  0.00  0.00    +0.054 C 
ATOM     11  C   UNL     1      32.921 -14.141 -22.605  0.00  0.00    +0.005 C 
ATOM     12  C   UNL     1      32.805 -13.614 -24.960  0.00  0.00    +0.005 C 
ATOM     13  C   UNL     1      33.020 -12.783 -22.306  0.00  0.00    +0.000 C 
ATOM     14  C   UNL     1      32.905 -12.255 -24.661  0.00  0.00    +0.000 C 
ATOM     15  C   UNL     1      33.012 -11.840 -23.333  0.00  0.00    +0.000 C 
ENDBRANCH   9  10
ENDBRANCH   1   4
BRANCH   1  16
ATOM     16  C   UNL     1      32.712 -19.918 -20.111  0.00  0.00    +0.002 C 
BRANCH  16  17
ATOM     17  C   UNL     1      32.539 -20.922 -18.971  0.00  0.00    +0.021 C 
BRANCH  17  18
ATOM     18  C   UNL     1      33.841 -21.656 -18.676  0.00  0.00    +0.090 C 
BRANCH  18  20
ATOM     19  O   UNL     1      32.561 -23.546 -16.892  0.00  0.00    -0.270 OA
ATOM     20  N   UNL     1      34.057 -21.804 -17.263  0.00  0.00    -0.301 N 
ATOM     21  C   UNL     1      33.394 -22.744 -16.483  0.00  0.00    +0.246 C 
ATOM     22  H   UNL     1      34.708 -21.210 -16.826  0.00  0.00    +0.150 HD
BRANCH  21  23
ATOM     23  C   UNL     1      33.809 -22.679 -15.053  0.00  0.00    +0.058 C 
ATOM     24  C   UNL     1      34.347 -23.755 -14.462  0.00  0.00    +0.006 C 
BRANCH  24  26
ATOM     25  N   UNL     1      34.237 -23.863 -10.710  0.00  0.00    -0.242 NA
ATOM     26  C   UNL     1      34.800 -23.802 -13.061  0.00  0.00    +0.019 C 
ATOM     27  C   UNL     1      36.154 -23.830 -12.745  0.00  0.00    +0.003 C 
ATOM     28  C   UNL     1      33.890 -23.821 -12.016  0.00  0.00    +0.099 C 
ATOM     29  C   UNL     1      36.551 -23.874 -11.414  0.00  0.00    +0.021 C 
ATOM     30  C   UNL     1      35.563 -23.888 -10.443  0.00  0.00    +0.099 C 
ENDBRANCH  24  26
ENDBRANCH  21  23
ENDBRANCH  18  20
ENDBRANCH  17  18
ENDBRANCH  16  17
ENDBRANCH   1  16
TORSDOF 8
ENDMDL
MODEL 7
REMARK VINA RESULT:     -10.6      6.674     13.233
REMARK  Name = 6914657
REMARK  8 active torsions:
REMARK  status: ('A' for Active; 'I' for Inactive)
REMARK    1  A    between atoms: C_1  and  C_4
REMARK    2  A    between atoms: C_1  and  C_16
REMARK    3  A    between atoms: C_9  and  C_10
REMARK    4  A    between atoms: C_16  and  C_17
REMARK    5  A    between atoms: C_17  and  C_18
REMARK    6  A    between atoms: C_18  and  N_20
REMARK    7  A    between atoms: C_21  and  C_23
REMARK    8  A    between atoms: C_24  and  C_26
REMARK                            x       y       z     vdW  Elec       q    Type
REMARK                         _______ _______ _______ _____ _____    ______ ____
ROOT
ATOM      1  C   UNL     1      35.322 -21.708 -14.908  0.00  0.00    +0.000 C 
ENDROOT
BRANCH   1   4
ATOM      2  O   UNL     1      30.407 -24.231 -12.036  0.00  0.00    -0.270 OA
ATOM      3  N   UNL     1      31.836 -23.995 -13.871  0.00  0.00    -0.276 N 
ATOM      4  C   UNL     1      34.362 -22.886 -14.756  0.00  0.00    +0.003 C 
ATOM      5  C   UNL     1      33.051 -22.626 -15.516  0.00  0.00    +0.022 C 
ATOM      6  C   UNL     1      34.072 -23.167 -13.272  0.00  0.00    +0.022 C 
ATOM      7  C   UNL     1      32.057 -23.765 -15.304  0.00  0.00    +0.094 C 
ATOM      8  C   UNL     1      33.049 -24.288 -13.108  0.00  0.00    +0.094 C 
ATOM      9  C   UNL     1      30.596 -23.998 -13.228  0.00  0.00    +0.249 C 
BRANCH   9  10
ATOM     10  C   UNL     1      29.403 -23.686 -14.023  0.00  0.00    +0.054 C 
ATOM     11  C   UNL     1      28.710 -24.709 -14.672  0.00  0.00    +0.005 C 
ATOM     12  C   UNL     1      28.960 -22.368 -14.131  0.00  0.00    +0.005 C 
ATOM     13  C   UNL     1      27.576 -24.413 -15.427  0.00  0.00    +0.000 C 
ATOM     14  C   UNL     1      27.826 -22.072 -14.887  0.00  0.00    +0.000 C 
ATOM     15  C   UNL     1      27.134 -23.095 -15.536  0.00  0.00    +0.000 C 
ENDBRANCH   9  10
ENDBRANCH   1   4
BRANCH   1  16
ATOM     16  C   UNL     1      36.297 -21.936 -16.060  0.00  0.00    +0.002 C 
BRANCH  16  17
ATOM     17  C   UNL     1      35.991 -21.005 -17.232  0.00  0.00    +0.021 C 
BRANCH  17  18
ATOM     18  C   UNL     1      34.947 -21.610 -18.164  0.00  0.00    +0.090 C 
BRANCH  18  20
ATOM     19  O   UNL     1      32.235 -20.877 -18.875  0.00  0.00    -0.270 OA
ATOM     20  N   UNL     1      34.533 -20.674 -19.173  0.00  0.00    -0.301 N 
ATOM     21  C   UNL     1      33.202 -20.383 -19.446  0.00  0.00    +0.246 C 
ATOM     22  H   UNL     1      35.229 -20.215 -19.697  0.00  0.00    +0.150 HD
BRANCH  21  23
ATOM     23  C   UNL     1      33.060 -19.379 -20.539  0.00  0.00    +0.058 C 
ATOM     24  C   UNL     1      34.084 -18.567 -20.839  0.00  0.00    +0.006 C 
BRANCH  24  26
ATOM     25  N   UNL     1      34.336 -15.233 -22.549  0.00  0.00    -0.242 NA
ATOM     26  C   UNL     1      34.059 -17.547 -21.901  0.00  0.00    +0.019 C 
ATOM     27  C   UNL     1      33.751 -17.885 -23.214  0.00  0.00    +0.003 C 
ATOM     28  C   UNL     1      34.342 -16.219 -21.623  0.00  0.00    +0.099 C 
ATOM     29  C   UNL     1      33.735 -16.899 -24.195  0.00  0.00    +0.021 C 
ATOM     30  C   UNL     1      34.031 -15.601 -23.814  0.00  0.00    +0.099 C 
ENDBRANCH  24  26
ENDBRANCH  21  23
ENDBRANCH  18  20
ENDBRANCH  17  18
ENDBRANCH  16  17
ENDBRANCH   1  16
TORSDOF 8
ENDMDL
MODEL 8
REMARK VINA RESULT:     -10.5      4.248     12.905
REMARK  Name = 6914657
REMARK  8 active torsions:
REMARK  status: ('A' for Active; 'I' for Inactive)
REMARK    1  A    between atoms: C_1  and  C_4
REMARK    2  A    between atoms: C_1  and  C_16
REMARK    3  A    between atoms: C_9  and  C_10
REMARK    4  A    between atoms: C_16  and  C_17
REMARK    5  A    between atoms: C_17  and  C_18
REMARK    6  A    between atoms: C_18  and  N_20
REMARK    7  A    between atoms: C_21  and  C_23
REMARK    8  A    between atoms: C_24  and  C_26
REMARK                            x       y       z     vdW  Elec       q    Type
REMARK                         _______ _______ _______ _____ _____    ______ ____
ROOT
ATOM      1  C   UNL     1      34.584 -20.858 -19.042  0.00  0.00    +0.000 C 
ENDROOT
BRANCH   1   4
ATOM      2  O   UNL     1      32.555 -22.706 -13.454  0.00  0.00    -0.270 OA
ATOM      3  N   UNL     1      32.898 -23.031 -15.744  0.00  0.00    -0.276 N 
ATOM      4  C   UNL     1      34.255 -22.002 -18.086  0.00  0.00    +0.003 C 
ATOM      5  C   UNL     1      32.747 -22.300 -18.088  0.00  0.00    +0.022 C 
ATOM      6  C   UNL     1      34.734 -21.678 -16.661  0.00  0.00    +0.022 C 
ATOM      7  C   UNL     1      32.400 -23.391 -17.077  0.00  0.00    +0.094 C 
ATOM      8  C   UNL     1      34.337 -22.777 -15.678  0.00  0.00    +0.094 C 
ATOM      9  C   UNL     1      32.130 -22.966 -14.578  0.00  0.00    +0.249 C 
BRANCH   9  10
ATOM     10  C   UNL     1      30.688 -23.214 -14.684  0.00  0.00    +0.054 C 
ATOM     11  C   UNL     1      30.117 -24.303 -14.024  0.00  0.00    +0.005 C 
ATOM     12  C   UNL     1      29.887 -22.362 -15.444  0.00  0.00    +0.005 C 
ATOM     13  C   UNL     1      28.746 -24.539 -14.125  0.00  0.00    +0.000 C 
ATOM     14  C   UNL     1      28.515 -22.598 -15.545  0.00  0.00    +0.000 C 
ATOM     15  C   UNL     1      27.945 -23.687 -14.885  0.00  0.00    +0.000 C 
ENDBRANCH   9  10
ENDBRANCH   1   4
BRANCH   1  16
ATOM     16  C   UNL     1      33.315 -20.168 -19.535  0.00  0.00    +0.002 C 
BRANCH  16  17
ATOM     17  C   UNL     1      33.528 -19.548 -20.916  0.00  0.00    +0.021 C 
BRANCH  17  18
ATOM     18  C   UNL     1      34.787 -18.691 -20.952  0.00  0.00    +0.090 C 
BRANCH  18  20
ATOM     19  O   UNL     1      34.013 -15.989 -20.248  0.00  0.00    -0.270 OA
ATOM     20  N   UNL     1      34.638 -17.568 -21.838  0.00  0.00    -0.301 N 
ATOM     21  C   UNL     1      34.261 -16.302 -21.408  0.00  0.00    +0.246 C 
ATOM     22  H   UNL     1      34.813 -17.704 -22.797  0.00  0.00    +0.150 HD
BRANCH  21  23
ATOM     23  C   UNL     1      34.185 -15.328 -22.534  0.00  0.00    +0.058 C 
ATOM     24  C   UNL     1      33.250 -14.368 -22.527  0.00  0.00    +0.006 C 
BRANCH  24  26
ATOM     25  N   UNL     1      32.576 -12.824 -25.883  0.00  0.00    -0.242 NA
ATOM     26  C   UNL     1      33.088 -13.349 -23.579  0.00  0.00    +0.019 C 
ATOM     27  C   UNL     1      33.279 -11.999 -23.307  0.00  0.00    +0.003 C 
ATOM     28  C   UNL     1      32.740 -13.706 -24.872  0.00  0.00    +0.099 C 
ATOM     29  C   UNL     1      33.120 -11.061 -24.320  0.00  0.00    +0.021 C 
ATOM     30  C   UNL     1      32.771 -11.520 -25.580  0.00  0.00    +0.099 C 
ENDBRANCH  24  26
ENDBRANCH  21  23
ENDBRANCH  18  20
ENDBRANCH  17  18
ENDBRANCH  16  17
ENDBRANCH   1  16
TORSDOF 8
ENDMDL
MODEL 9
REMARK VINA RESULT:     -10.5      5.517     13.644
REMARK  Name = 6914657
REMARK  8 active torsions:
REMARK  status: ('A' for Active; 'I' for Inactive)
REMARK    1  A    between atoms: C_1  and  C_4
REMARK    2  A    between atoms: C_1  and  C_16
REMARK    3  A    between atoms: C_9  and  C_10
REMARK    4  A    between atoms: C_16  and  C_17
REMARK    5  A    between atoms: C_17  and  C_18
REMARK    6  A    between atoms: C_18  and  N_20
REMARK    7  A    between atoms: C_21  and  C_23
REMARK    8  A    between atoms: C_24  and  C_26
REMARK                            x       y       z     vdW  Elec       q    Type
REMARK                         _______ _______ _______ _____ _____    ______ ____
ROOT
ATOM      1  C   UNL     1      32.490 -22.630 -17.882  0.00  0.00    +0.000 C 
ENDROOT
BRANCH   1   4
ATOM      2  O   UNL     1      32.453 -24.538 -11.956  0.00  0.00    -0.270 OA
ATOM      3  N   UNL     1      33.089 -23.058 -13.650  0.00  0.00    -0.276 N 
ATOM      4  C   UNL     1      32.604 -22.284 -16.399  0.00  0.00    +0.003 C 
ATOM      5  C   UNL     1      34.020 -22.576 -15.877  0.00  0.00    +0.022 C 
ATOM      6  C   UNL     1      31.560 -23.059 -15.576  0.00  0.00    +0.022 C 
ATOM      7  C   UNL     1      34.120 -22.306 -14.377  0.00  0.00    +0.094 C 
ATOM      8  C   UNL     1      31.718 -22.786 -14.082  0.00  0.00    +0.094 C 
ATOM      9  C   UNL     1      33.319 -23.940 -12.592  0.00  0.00    +0.249 C 
BRANCH   9  10
ATOM     10  C   UNL     1      34.708 -24.198 -12.195  0.00  0.00    +0.054 C 
ATOM     11  C   UNL     1      35.401 -25.277 -12.745  0.00  0.00    +0.005 C 
ATOM     12  C   UNL     1      35.335 -23.367 -11.268  0.00  0.00    +0.005 C 
ATOM     13  C   UNL     1      36.721 -25.523 -12.368  0.00  0.00    +0.000 C 
ATOM     14  C   UNL     1      36.656 -23.613 -10.891  0.00  0.00    +0.000 C 
ATOM     15  C   UNL     1      37.349 -24.692 -11.441  0.00  0.00    +0.000 C 
ENDBRANCH   9  10
ENDBRANCH   1   4
BRANCH   1  16
ATOM     16  C   UNL     1      33.028 -21.500 -18.756  0.00  0.00    +0.002 C 
BRANCH  16  17
ATOM     17  C   UNL     1      34.500 -21.724 -19.100  0.00  0.00    +0.021 C 
BRANCH  17  18
ATOM     18  C   UNL     1      35.274 -20.411 -19.111  0.00  0.00    +0.090 C 
BRANCH  18  20
ATOM     19  O   UNL     1      36.819 -18.342 -20.426  0.00  0.00    -0.270 OA
ATOM     20  N   UNL     1      34.849 -19.556 -20.186  0.00  0.00    -0.301 N 
ATOM     21  C   UNL     1      35.663 -18.586 -20.758  0.00  0.00    +0.246 C 
ATOM     22  H   UNL     1      33.935 -19.664 -20.535  0.00  0.00    +0.150 HD
BRANCH  21  23
ATOM     23  C   UNL     1      34.970 -17.847 -21.852  0.00  0.00    +0.058 C 
ATOM     24  C   UNL     1      34.593 -16.574 -21.665  0.00  0.00    +0.006 C 
BRANCH  24  26
ATOM     25  N   UNL     1      33.169 -15.473 -24.961  0.00  0.00    -0.242 NA
ATOM     26  C   UNL     1      33.912 -15.747 -22.676  0.00  0.00    +0.019 C 
ATOM     27  C   UNL     1      33.380 -14.505 -22.347  0.00  0.00    +0.003 C 
ATOM     28  C   UNL     1      33.781 -16.182 -23.985  0.00  0.00    +0.099 C 
ATOM     29  C   UNL     1      32.744 -13.746 -23.322  0.00  0.00    +0.021 C 
ATOM     30  C   UNL     1      32.665 -14.270 -24.602  0.00  0.00    +0.099 C 
ENDBRANCH  24  26
ENDBRANCH  21  23
ENDBRANCH  18  20
ENDBRANCH  17  18
ENDBRANCH  16  17
ENDBRANCH   1  16
TORSDOF 8
ENDMDL
