MODEL 1
REMARK VINA RESULT:     -12.7      0.000      0.000
REMARK  Name = 448407
REMARK  4 active torsions:
REMARK  status: ('A' for Active; 'I' for Inactive)
REMARK    1  A    between atoms: C_1  and  N_8
REMARK    2  A    between atoms: C_2  and  C_23
REMARK    3  A    between atoms: N_22  and  C_25
REMARK    4  A    between atoms: C_25  and  C_28
REMARK                            x       y       z     vdW  Elec       q    Type
REMARK                         _______ _______ _______ _____ _____    ______ ____
ROOT
ATOM      1  C   UNL     1      34.797 -18.424 -21.054  0.00  0.00    +0.090 C 
ATOM      2  C   UNL     1      33.827 -20.125 -19.608  0.00  0.00    +0.055 C 
ATOM      3  C   UNL     1      33.676 -19.102 -20.543  0.00  0.00    +0.023 C 
ATOM      4  C   UNL     1      36.073 -18.802 -20.602  0.00  0.00    +0.018 C 
ATOM      5  C   UNL     1      35.100 -20.487 -19.170  0.00  0.00    +0.005 C 
ATOM      6  C   UNL     1      36.223 -19.825 -19.667  0.00  0.00    +0.002 C 
ENDROOT
BRANCH   1   8
ATOM      7  O   UNL     1      33.542 -13.410 -21.581  0.00  0.00    -0.207 OA
ATOM      8  N   UNL     1      34.647 -17.405 -21.987  0.00  0.00    -0.137 N 
ATOM      9  N   UNL     1      34.152 -17.571 -23.243  0.00  0.00    -0.215 N 
ATOM     10  N   UNL     1      34.433 -16.109 -21.524  0.00  0.00    -0.143 NA
ATOM     11  N   UNL     1      33.002 -15.942 -24.682  0.00  0.00    -0.309 NA
ATOM     12  N   UNL     1      32.718 -13.747 -23.721  0.00  0.00    -0.251 NA
ATOM     13  N   UNL     1      31.934 -14.197 -25.850  0.00  0.00    -0.283 N 
ATOM     14  C   UNL     1      33.600 -16.400 -23.645  0.00  0.00    +0.243 C 
ATOM     15  C   UNL     1      33.817 -15.509 -22.495  0.00  0.00    +0.241 C 
ATOM     16  C   UNL     1      33.345 -14.119 -22.556  0.00  0.00    +0.239 C 
ATOM     17  C   UNL     1      32.568 -14.615 -24.702  0.00  0.00    +0.208 C 
ATOM     18  H   UNL     1      34.188 -18.402 -23.770  0.00  0.00    +0.175 HD
ATOM     19  H   UNL     1      31.807 -14.824 -26.599  0.00  0.00    +0.156 HD
ATOM     20  H   UNL     1      31.606 -13.272 -25.922  0.00  0.00    +0.156 HD
ENDBRANCH   1   8
BRANCH   2  23
ATOM     21  O   UNL     1      31.551 -20.686 -19.645  0.00  0.00    -0.270 OA
ATOM     22  N   UNL     1      32.846 -21.637 -17.973  0.00  0.00    -0.297 N 
ATOM     23  C   UNL     1      32.657 -20.816 -19.091  0.00  0.00    +0.246 C 
ATOM     24  H   UNL     1      33.748 -21.693 -17.584  0.00  0.00    +0.150 HD
BRANCH  22  25
ATOM     25  C   UNL     1      31.787 -22.405 -17.359  0.00  0.00    +0.117 C 
BRANCH  25  28
ATOM     26 CL   UNL     1      35.432 -23.271 -13.752  0.00  0.00    -0.082 Cl
ATOM     27 CL   UNL     1      30.194 -23.989 -12.669  0.00  0.00    -0.082 Cl
ATOM     28  C   UNL     1      32.133 -22.819 -15.957  0.00  0.00    -0.001 C 
ATOM     29  C   UNL     1      31.120 -23.169 -15.072  0.00  0.00    +0.009 C 
ATOM     30  C   UNL     1      33.465 -22.848 -15.558  0.00  0.00    +0.009 C 
ATOM     31  C   UNL     1      33.787 -23.232 -14.256  0.00  0.00    +0.058 C 
ATOM     32  C   UNL     1      31.441 -23.553 -13.771  0.00  0.00    +0.058 C 
ATOM     33  C   UNL     1      32.775 -23.584 -13.362  0.00  0.00    +0.023 C 
ENDBRANCH  25  28
ENDBRANCH  22  25
ENDBRANCH   2  23
TORSDOF 4
ENDMDL
MODEL 2
REMARK VINA RESULT:     -12.6      4.668     10.452
REMARK  Name = 448407
REMARK  4 active torsions:
REMARK  status: ('A' for Active; 'I' for Inactive)
REMARK    1  A    between atoms: C_1  and  N_8
REMARK    2  A    between atoms: C_2  and  C_23
REMARK    3  A    between atoms: N_22  and  C_25
REMARK    4  A    between atoms: C_25  and  C_28
REMARK                            x       y       z     vdW  Elec       q    Type
REMARK                         _______ _______ _______ _____ _____    ______ ____
ROOT
ATOM      1  C   UNL     1      33.875 -21.763 -17.653  0.00  0.00    +0.090 C 
ATOM      2  C   UNL     1      34.001 -20.228 -19.538  0.00  0.00    +0.055 C 
ATOM      3  C   UNL     1      34.621 -20.927 -18.502  0.00  0.00    +0.023 C 
ATOM      4  C   UNL     1      32.491 -21.880 -17.873  0.00  0.00    +0.018 C 
ATOM      5  C   UNL     1      32.628 -20.355 -19.742  0.00  0.00    +0.005 C 
ATOM      6  C   UNL     1      31.873 -21.181 -18.909  0.00  0.00    +0.002 C 
ENDROOT
BRANCH   1   8
ATOM      7  O   UNL     1      32.942 -24.553 -13.371  0.00  0.00    -0.207 OA
ATOM      8  N   UNL     1      34.492 -22.460 -16.621  0.00  0.00    -0.137 N 
ATOM      9  N   UNL     1      35.653 -22.088 -16.022  0.00  0.00    -0.215 N 
ATOM     10  N   UNL     1      33.696 -23.216 -15.764  0.00  0.00    -0.143 NA
ATOM     11  N   UNL     1      36.444 -22.572 -13.743  0.00  0.00    -0.309 NA
ATOM     12  N   UNL     1      34.939 -23.893 -12.396  0.00  0.00    -0.251 NA
ATOM     13  N   UNL     1      36.958 -23.177 -11.525  0.00  0.00    -0.283 N 
ATOM     14  C   UNL     1      35.661 -22.581 -14.758  0.00  0.00    +0.243 C 
ATOM     15  C   UNL     1      34.377 -23.293 -14.663  0.00  0.00    +0.241 C 
ATOM     16  C   UNL     1      34.018 -23.975 -13.413  0.00  0.00    +0.239 C 
ATOM     17  C   UNL     1      36.066 -23.232 -12.571  0.00  0.00    +0.208 C 
ATOM     18  H   UNL     1      36.368 -21.550 -16.433  0.00  0.00    +0.175 HD
ATOM     19  H   UNL     1      37.809 -22.691 -11.627  0.00  0.00    +0.156 HD
ATOM     20  H   UNL     1      36.747 -23.624 -10.674  0.00  0.00    +0.156 HD
ENDBRANCH   1   8
BRANCH   2  23
ATOM     21  O   UNL     1      35.946 -19.040 -20.091  0.00  0.00    -0.270 OA
ATOM     22  N   UNL     1      34.191 -18.959 -21.606  0.00  0.00    -0.297 N 
ATOM     23  C   UNL     1      34.788 -19.368 -20.408  0.00  0.00    +0.246 C 
ATOM     24  H   UNL     1      33.272 -19.255 -21.793  0.00  0.00    +0.150 HD
BRANCH  22  25
ATOM     25  C   UNL     1      34.853 -18.124 -22.583  0.00  0.00    +0.117 C 
BRANCH  25  28
ATOM     26 CL   UNL     1      32.474 -14.543 -25.508  0.00  0.00    -0.082 Cl
ATOM     27 CL   UNL     1      33.459 -13.678 -20.274  0.00  0.00    -0.082 Cl
ATOM     28  C   UNL     1      34.216 -16.768 -22.687  0.00  0.00    -0.001 C 
ATOM     29  C   UNL     1      34.144 -15.953 -21.562  0.00  0.00    +0.009 C 
ATOM     30  C   UNL     1      33.704 -16.341 -23.906  0.00  0.00    +0.009 C 
ATOM     31  C   UNL     1      33.111 -15.082 -24.003  0.00  0.00    +0.058 C 
ATOM     32  C   UNL     1      33.552 -14.694 -21.659  0.00  0.00    +0.058 C 
ATOM     33  C   UNL     1      33.035 -14.258 -22.879  0.00  0.00    +0.023 C 
ENDBRANCH  25  28
ENDBRANCH  22  25
ENDBRANCH   2  23
TORSDOF 4
ENDMDL
MODEL 3
REMARK VINA RESULT:     -12.2      4.165      9.859
REMARK  Name = 448407
REMARK  4 active torsions:
REMARK  status: ('A' for Active; 'I' for Inactive)
REMARK    1  A    between atoms: C_1  and  N_8
REMARK    2  A    between atoms: C_2  and  C_23
REMARK    3  A    between atoms: N_22  and  C_25
REMARK    4  A    between atoms: C_25  and  C_28
REMARK                            x       y       z     vdW  Elec       q    Type
REMARK                         _______ _______ _______ _____ _____    ______ ____
ROOT
ATOM      1  C   UNL     1      33.553 -21.681 -17.915  0.00  0.00    +0.090 C 
ATOM      2  C   UNL     1      33.981 -20.282 -19.860  0.00  0.00    +0.055 C 
ATOM      3  C   UNL     1      33.107 -21.044 -19.086  0.00  0.00    +0.023 C 
ATOM      4  C   UNL     1      34.900 -21.531 -17.541  0.00  0.00    +0.018 C 
ATOM      5  C   UNL     1      35.314 -20.143 -19.475  0.00  0.00    +0.005 C 
ATOM      6  C   UNL     1      35.773 -20.768 -18.315  0.00  0.00    +0.002 C 
ENDROOT
BRANCH   1   8
ATOM      7  O   UNL     1      28.614 -22.038 -16.343  0.00  0.00    -0.207 OA
ATOM      8  N   UNL     1      32.681 -22.440 -17.142  0.00  0.00    -0.137 N 
ATOM      9  N   UNL     1      33.009 -23.035 -15.965  0.00  0.00    -0.215 N 
ATOM     10  N   UNL     1      31.320 -22.155 -17.207  0.00  0.00    -0.143 NA
ATOM     11  N   UNL     1      31.555 -23.622 -14.070  0.00  0.00    -0.309 NA
ATOM     12  N   UNL     1      29.226 -23.058 -14.353  0.00  0.00    -0.251 NA
ATOM     13  N   UNL     1      29.949 -24.077 -12.407  0.00  0.00    -0.283 N 
ATOM     14  C   UNL     1      31.883 -23.161 -15.220  0.00  0.00    +0.243 C 
ATOM     15  C   UNL     1      30.840 -22.577 -16.079  0.00  0.00    +0.241 C 
ATOM     16  C   UNL     1      29.451 -22.533 -15.603  0.00  0.00    +0.239 C 
ATOM     17  C   UNL     1      30.223 -23.561 -13.653  0.00  0.00    +0.208 C 
ATOM     18  H   UNL     1      33.911 -23.325 -15.697  0.00  0.00    +0.175 HD
ATOM     19  H   UNL     1      30.675 -24.459 -11.861  0.00  0.00    +0.156 HD
ATOM     20  H   UNL     1      29.028 -24.061 -12.059  0.00  0.00    +0.156 HD
ENDBRANCH   1   8
BRANCH   2  23
ATOM     21  O   UNL     1      32.283 -19.534 -21.293  0.00  0.00    -0.270 OA
ATOM     22  N   UNL     1      34.470 -19.103 -21.933  0.00  0.00    -0.297 N 
ATOM     23  C   UNL     1      33.502 -19.628 -21.068  0.00  0.00    +0.246 C 
ATOM     24  H   UNL     1      35.418 -19.215 -21.693  0.00  0.00    +0.150 HD
BRANCH  22  25
ATOM     25  C   UNL     1      34.151 -18.408 -23.158  0.00  0.00    +0.117 C 
BRANCH  25  28
ATOM     26 CL   UNL     1      32.719 -13.790 -25.074  0.00  0.00    -0.082 Cl
ATOM     27 CL   UNL     1      33.807 -14.430 -19.827  0.00  0.00    -0.082 Cl
ATOM     28  C   UNL     1      33.852 -16.955 -22.919  0.00  0.00    -0.001 C 
ATOM     29  C   UNL     1      33.957 -16.434 -21.635  0.00  0.00    +0.009 C 
ATOM     30  C   UNL     1      33.471 -16.148 -23.984  0.00  0.00    +0.009 C 
ATOM     31  C   UNL     1      33.192 -14.799 -23.762  0.00  0.00    +0.058 C 
ATOM     32  C   UNL     1      33.679 -15.086 -21.412  0.00  0.00    +0.058 C 
ATOM     33  C   UNL     1      33.295 -14.268 -22.476  0.00  0.00    +0.023 C 
ENDBRANCH  25  28
ENDBRANCH  22  25
ENDBRANCH   2  23
TORSDOF 4
ENDMDL
MODEL 4
REMARK VINA RESULT:     -11.9      5.795     10.588
REMARK  Name = 448407
REMARK  4 active torsions:
REMARK  status: ('A' for Active; 'I' for Inactive)
REMARK    1  A    between atoms: C_1  and  N_8
REMARK    2  A    between atoms: C_2  and  C_23
REMARK    3  A    between atoms: N_22  and  C_25
REMARK    4  A    between atoms: C_25  and  C_28
REMARK                            x       y       z     vdW  Elec       q    Type
REMARK                         _______ _______ _______ _____ _____    ______ ____
ROOT
ATOM      1  C   UNL     1      32.083 -24.256 -13.154  0.00  0.00    +0.090 C 
ATOM      2  C   UNL     1      30.589 -23.192 -14.754  0.00  0.00    +0.055 C 
ATOM      3  C   UNL     1      31.877 -23.538 -14.345  0.00  0.00    +0.023 C 
ATOM      4  C   UNL     1      30.963 -24.617 -12.386  0.00  0.00    +0.018 C 
ATOM      5  C   UNL     1      29.489 -23.559 -13.980  0.00  0.00    +0.005 C 
ATOM      6  C   UNL     1      29.676 -24.272 -12.796  0.00  0.00    +0.002 C 
ENDROOT
BRANCH   1   8
ATOM      7  O   UNL     1      36.100 -22.683 -10.259  0.00  0.00    -0.207 OA
ATOM      8  N   UNL     1      33.366 -24.602 -12.746  0.00  0.00    -0.137 N 
ATOM      9  N   UNL     1      34.286 -25.225 -13.530  0.00  0.00    -0.215 N 
ATOM     10  N   UNL     1      33.976 -23.834 -11.757  0.00  0.00    -0.143 NA
ATOM     11  N   UNL     1      36.740 -25.147 -13.396  0.00  0.00    -0.309 NA
ATOM     12  N   UNL     1      37.627 -23.769 -11.624  0.00  0.00    -0.251 NA
ATOM     13  N   UNL     1      39.057 -24.899 -13.048  0.00  0.00    -0.283 N 
ATOM     14  C   UNL     1      35.523 -24.891 -13.087  0.00  0.00    +0.243 C 
ATOM     15  C   UNL     1      35.248 -23.999 -11.950  0.00  0.00    +0.241 C 
ATOM     16  C   UNL     1      36.368 -23.421 -11.196  0.00  0.00    +0.239 C 
ATOM     17  C   UNL     1      37.778 -24.577 -12.655  0.00  0.00    +0.208 C 
ATOM     18  H   UNL     1      34.088 -25.818 -14.290  0.00  0.00    +0.175 HD
ATOM     19  H   UNL     1      39.201 -25.500 -13.815  0.00  0.00    +0.156 HD
ATOM     20  H   UNL     1      39.829 -24.527 -12.563  0.00  0.00    +0.156 HD
ENDBRANCH   1   8
BRANCH   2  23
ATOM     21  O   UNL     1      29.292 -21.932 -16.247  0.00  0.00    -0.270 OA
ATOM     22  N   UNL     1      31.497 -22.336 -16.844  0.00  0.00    -0.297 N 
ATOM     23  C   UNL     1      30.394 -22.451 -15.990  0.00  0.00    +0.246 C 
ATOM     24  H   UNL     1      32.338 -22.772 -16.578  0.00  0.00    +0.150 HD
BRANCH  22  25
ATOM     25  C   UNL     1      31.466 -21.613 -18.094  0.00  0.00    +0.117 C 
BRANCH  25  28
ATOM     26 CL   UNL     1      34.445 -18.991 -21.455  0.00  0.00    -0.082 Cl
ATOM     27 CL   UNL     1      36.604 -21.668 -17.296  0.00  0.00    -0.082 Cl
ATOM     28  C   UNL     1      32.838 -21.179 -18.527  0.00  0.00    -0.001 C 
ATOM     29  C   UNL     1      33.949 -21.580 -17.794  0.00  0.00    +0.009 C 
ATOM     30  C   UNL     1      32.982 -20.382 -19.656  0.00  0.00    +0.009 C 
ATOM     31  C   UNL     1      34.255 -19.979 -20.059  0.00  0.00    +0.058 C 
ATOM     32  C   UNL     1      35.222 -21.178 -18.196  0.00  0.00    +0.058 C 
ATOM     33  C   UNL     1      35.376 -20.376 -19.328  0.00  0.00    +0.023 C 
ENDBRANCH  25  28
ENDBRANCH  22  25
ENDBRANCH   2  23
TORSDOF 4
ENDMDL
MODEL 5
REMARK VINA RESULT:     -11.9      5.805     10.588
REMARK  Name = 448407
REMARK  4 active torsions:
REMARK  status: ('A' for Active; 'I' for Inactive)
REMARK    1  A    between atoms: C_1  and  N_8
REMARK    2  A    between atoms: C_2  and  C_23
REMARK    3  A    between atoms: N_22  and  C_25
REMARK    4  A    between atoms: C_25  and  C_28
REMARK                            x       y       z     vdW  Elec       q    Type
REMARK                         _______ _______ _______ _____ _____    ______ ____
ROOT
ATOM      1  C   UNL     1      32.058 -24.282 -13.151  0.00  0.00    +0.090 C 
ATOM      2  C   UNL     1      30.578 -23.214 -14.762  0.00  0.00    +0.055 C 
ATOM      3  C   UNL     1      31.862 -23.560 -14.341  0.00  0.00    +0.023 C 
ATOM      4  C   UNL     1      30.931 -24.648 -12.395  0.00  0.00    +0.018 C 
ATOM      5  C   UNL     1      29.471 -23.585 -13.999  0.00  0.00    +0.005 C 
ATOM      6  C   UNL     1      29.648 -24.302 -12.815  0.00  0.00    +0.002 C 
ENDROOT
BRANCH   1   8
ATOM      7  O   UNL     1      36.029 -22.735 -10.179  0.00  0.00    -0.207 OA
ATOM      8  N   UNL     1      33.338 -24.627 -12.732  0.00  0.00    -0.137 N 
ATOM      9  N   UNL     1      34.271 -25.232 -13.514  0.00  0.00    -0.215 N 
ATOM     10  N   UNL     1      33.931 -23.873 -11.723  0.00  0.00    -0.143 NA
ATOM     11  N   UNL     1      36.723 -25.143 -13.348  0.00  0.00    -0.309 NA
ATOM     12  N   UNL     1      37.579 -23.790 -11.542  0.00  0.00    -0.251 NA
ATOM     13  N   UNL     1      39.034 -24.888 -12.966  0.00  0.00    -0.283 N 
ATOM     14  C   UNL     1      35.501 -24.899 -13.050  0.00  0.00    +0.243 C 
ATOM     15  C   UNL     1      35.206 -24.027 -11.902  0.00  0.00    +0.241 C 
ATOM     16  C   UNL     1      36.313 -23.455 -11.124  0.00  0.00    +0.239 C 
ATOM     17  C   UNL     1      37.748 -24.579 -12.584  0.00  0.00    +0.208 C 
ATOM     18  H   UNL     1      34.086 -25.813 -14.287  0.00  0.00    +0.175 HD
ATOM     19  H   UNL     1      39.191 -25.475 -13.741  0.00  0.00    +0.156 HD
ATOM     20  H   UNL     1      39.798 -24.520 -12.465  0.00  0.00    +0.156 HD
ENDBRANCH   1   8
BRANCH   2  23
ATOM     21  O   UNL     1      29.308 -21.911 -16.240  0.00  0.00    -0.270 OA
ATOM     22  N   UNL     1      31.488 -22.397 -16.866  0.00  0.00    -0.297 N 
ATOM     23  C   UNL     1      30.393 -22.469 -15.996  0.00  0.00    +0.246 C 
ATOM     24  H   UNL     1      32.316 -22.863 -16.610  0.00  0.00    +0.150 HD
BRANCH  22  25
ATOM     25  C   UNL     1      31.466 -21.676 -18.118  0.00  0.00    +0.117 C 
BRANCH  25  28
ATOM     26 CL   UNL     1      36.586 -21.612 -17.208  0.00  0.00    -0.082 Cl
ATOM     27 CL   UNL     1      34.462 -19.026 -21.441  0.00  0.00    -0.082 Cl
ATOM     28  C   UNL     1      32.837 -21.217 -18.526  0.00  0.00    -0.001 C 
ATOM     29  C   UNL     1      32.990 -20.429 -19.660  0.00  0.00    +0.009 C 
ATOM     30  C   UNL     1      33.940 -21.586 -17.764  0.00  0.00    +0.009 C 
ATOM     31  C   UNL     1      35.213 -21.161 -18.143  0.00  0.00    +0.058 C 
ATOM     32  C   UNL     1      34.262 -20.003 -20.039  0.00  0.00    +0.058 C 
ATOM     33  C   UNL     1      35.375 -20.369 -19.280  0.00  0.00    +0.023 C 
ENDBRANCH  25  28
ENDBRANCH  22  25
ENDBRANCH   2  23
TORSDOF 4
ENDMDL
MODEL 6
REMARK VINA RESULT:     -11.6      5.925      9.765
REMARK  Name = 448407
REMARK  4 active torsions:
REMARK  status: ('A' for Active; 'I' for Inactive)
REMARK    1  A    between atoms: C_1  and  N_8
REMARK    2  A    between atoms: C_2  and  C_23
REMARK    3  A    between atoms: N_22  and  C_25
REMARK    4  A    between atoms: C_25  and  C_28
REMARK                            x       y       z     vdW  Elec       q    Type
REMARK                         _______ _______ _______ _____ _____    ______ ____
ROOT
ATOM      1  C   UNL     1      32.530 -23.206 -13.714  0.00  0.00    +0.090 C 
ATOM      2  C   UNL     1      34.846 -22.952 -14.419  0.00  0.00    +0.055 C 
ATOM      3  C   UNL     1      33.486 -22.724 -14.625  0.00  0.00    +0.023 C 
ATOM      4  C   UNL     1      32.977 -23.922 -12.589  0.00  0.00    +0.018 C 
ATOM      5  C   UNL     1      35.272 -23.664 -13.298  0.00  0.00    +0.005 C 
ATOM      6  C   UNL     1      34.337 -24.149 -12.383  0.00  0.00    +0.002 C 
ENDROOT
BRANCH   1   8
ATOM      7  O   UNL     1      27.872 -25.508 -13.714  0.00  0.00    -0.207 OA
ATOM      8  N   UNL     1      31.174 -22.978 -13.918  0.00  0.00    -0.137 N 
ATOM      9  N   UNL     1      30.664 -22.138 -14.857  0.00  0.00    -0.215 N 
ATOM     10  N   UNL     1      30.277 -23.995 -13.603  0.00  0.00    -0.143 NA
ATOM     11  N   UNL     1      28.477 -22.218 -15.980  0.00  0.00    -0.309 NA
ATOM     12  N   UNL     1      27.049 -24.045 -15.313  0.00  0.00    -0.251 NA
ATOM     13  N   UNL     1      26.331 -22.525 -16.901  0.00  0.00    -0.283 N 
ATOM     14  C   UNL     1      29.422 -22.571 -15.190  0.00  0.00    +0.243 C 
ATOM     15  C   UNL     1      29.240 -23.763 -14.347  0.00  0.00    +0.241 C 
ATOM     16  C   UNL     1      27.986 -24.522 -14.428  0.00  0.00    +0.239 C 
ATOM     17  C   UNL     1      27.299 -22.967 -16.029  0.00  0.00    +0.208 C 
ATOM     18  H   UNL     1      31.118 -21.350 -15.234  0.00  0.00    +0.175 HD
ATOM     19  H   UNL     1      26.490 -21.722 -17.449  0.00  0.00    +0.156 HD
ATOM     20  H   UNL     1      25.479 -23.013 -16.979  0.00  0.00    +0.156 HD
ENDBRANCH   1   8
BRANCH   2  23
ATOM     21  O   UNL     1      37.039 -22.522 -15.129  0.00  0.00    -0.270 OA
ATOM     22  N   UNL     1      35.324 -21.898 -16.560  0.00  0.00    -0.297 N 
ATOM     23  C   UNL     1      35.821 -22.445 -15.371  0.00  0.00    +0.246 C 
ATOM     24  H   UNL     1      34.349 -21.867 -16.686  0.00  0.00    +0.150 HD
BRANCH  22  25
ATOM     25  C   UNL     1      36.166 -21.374 -17.611  0.00  0.00    +0.117 C 
BRANCH  25  28
ATOM     26 CL   UNL     1      31.554 -20.446 -19.826  0.00  0.00    -0.082 Cl
ATOM     27 CL   UNL     1      36.061 -18.115 -21.661  0.00  0.00    -0.082 Cl
ATOM     28  C   UNL     1      35.370 -20.667 -18.670  0.00  0.00    -0.001 C 
ATOM     29  C   UNL     1      36.014 -19.821 -19.565  0.00  0.00    +0.009 C 
ATOM     30  C   UNL     1      33.996 -20.866 -18.743  0.00  0.00    +0.009 C 
ATOM     31  C   UNL     1      33.255 -20.209 -19.726  0.00  0.00    +0.058 C 
ATOM     32  C   UNL     1      35.274 -19.164 -20.548  0.00  0.00    +0.058 C 
ATOM     33  C   UNL     1      33.894 -19.357 -20.629  0.00  0.00    +0.023 C 
ENDBRANCH  25  28
ENDBRANCH  22  25
ENDBRANCH   2  23
TORSDOF 4
ENDMDL
MODEL 7
REMARK VINA RESULT:     -11.1      4.928     10.473
REMARK  Name = 448407
REMARK  4 active torsions:
REMARK  status: ('A' for Active; 'I' for Inactive)
REMARK    1  A    between atoms: C_1  and  N_8
REMARK    2  A    between atoms: C_2  and  C_23
REMARK    3  A    between atoms: N_22  and  C_25
REMARK    4  A    between atoms: C_25  and  C_28
REMARK                            x       y       z     vdW  Elec       q    Type
REMARK                         _______ _______ _______ _____ _____    ______ ____
ROOT
ATOM      1  C   UNL     1      33.007 -23.587 -14.455  0.00  0.00    +0.090 C 
ATOM      2  C   UNL     1      32.064 -22.695 -16.515  0.00  0.00    +0.055 C 
ATOM      3  C   UNL     1      33.130 -23.263 -15.818  0.00  0.00    +0.023 C 
ATOM      4  C   UNL     1      31.784 -23.327 -13.812  0.00  0.00    +0.018 C 
ATOM      5  C   UNL     1      30.858 -22.444 -15.862  0.00  0.00    +0.005 C 
ATOM      6  C   UNL     1      30.719 -22.760 -14.510  0.00  0.00    +0.002 C 
ENDROOT
BRANCH   1   8
ATOM      7  O   UNL     1      36.960 -22.487 -11.268  0.00  0.00    -0.207 OA
ATOM      8  N   UNL     1      34.069 -24.153 -13.761  0.00  0.00    -0.137 N 
ATOM      9  N   UNL     1      34.838 -25.176 -14.221  0.00  0.00    -0.215 N 
ATOM     10  N   UNL     1      34.769 -23.358 -12.857  0.00  0.00    -0.143 NA
ATOM     11  N   UNL     1      37.168 -25.732 -13.666  0.00  0.00    -0.309 NA
ATOM     12  N   UNL     1      38.226 -24.249 -12.083  0.00  0.00    -0.251 NA
ATOM     13  N   UNL     1      39.396 -26.040 -12.963  0.00  0.00    -0.283 N 
ATOM     14  C   UNL     1      36.060 -25.089 -13.640  0.00  0.00    +0.243 C 
ATOM     15  C   UNL     1      35.944 -23.902 -12.779  0.00  0.00    +0.241 C 
ATOM     16  C   UNL     1      37.094 -23.479 -11.970  0.00  0.00    +0.239 C 
ATOM     17  C   UNL     1      38.240 -25.297 -12.882  0.00  0.00    +0.208 C 
ATOM     18  H   UNL     1      34.555 -25.863 -14.867  0.00  0.00    +0.175 HD
ATOM     19  H   UNL     1      39.435 -26.828 -13.552  0.00  0.00    +0.156 HD
ATOM     20  H   UNL     1      40.185 -25.781 -12.433  0.00  0.00    +0.156 HD
ENDBRANCH   1   8
BRANCH   2  23
ATOM     21  O   UNL     1      32.738 -23.176 -18.709  0.00  0.00    -0.270 OA
ATOM     22  N   UNL     1      31.708 -21.130 -18.344  0.00  0.00    -0.297 N 
ATOM     23  C   UNL     1      32.208 -22.368 -17.925  0.00  0.00    +0.246 C 
ATOM     24  H   UNL     1      31.302 -20.539 -17.670  0.00  0.00    +0.150 HD
BRANCH  22  25
ATOM     25  C   UNL     1      31.756 -20.672 -19.714  0.00  0.00    +0.117 C 
BRANCH  25  28
ATOM     26 CL   UNL     1      34.498 -17.537 -22.827  0.00  0.00    -0.082 Cl
ATOM     27 CL   UNL     1      36.758 -19.886 -18.527  0.00  0.00    -0.082 Cl
ATOM     28  C   UNL     1      33.065 -20.010 -20.039  0.00  0.00    -0.001 C 
ATOM     29  C   UNL     1      34.169 -20.232 -19.225  0.00  0.00    +0.009 C 
ATOM     30  C   UNL     1      33.157 -19.181 -21.151  0.00  0.00    +0.009 C 
ATOM     31  C   UNL     1      34.372 -18.565 -21.454  0.00  0.00    +0.058 C 
ATOM     32  C   UNL     1      35.384 -19.618 -19.527  0.00  0.00    +0.058 C 
ATOM     33  C   UNL     1      35.486 -18.783 -20.642  0.00  0.00    +0.023 C 
ENDBRANCH  25  28
ENDBRANCH  22  25
ENDBRANCH   2  23
TORSDOF 4
ENDMDL
MODEL 8
REMARK VINA RESULT:     -11.0      5.638     10.974
REMARK  Name = 448407
REMARK  4 active torsions:
REMARK  status: ('A' for Active; 'I' for Inactive)
REMARK    1  A    between atoms: C_1  and  N_8
REMARK    2  A    between atoms: C_2  and  C_23
REMARK    3  A    between atoms: N_22  and  C_25
REMARK    4  A    between atoms: C_25  and  C_28
REMARK                            x       y       z     vdW  Elec       q    Type
REMARK                         _______ _______ _______ _____ _____    ______ ____
ROOT
ATOM      1  C   UNL     1      34.110 -17.345 -22.300  0.00  0.00    +0.090 C 
ATOM      2  C   UNL     1      33.512 -14.985 -22.339  0.00  0.00    +0.055 C 
ATOM      3  C   UNL     1      33.779 -16.155 -21.628  0.00  0.00    +0.023 C 
ATOM      4  C   UNL     1      34.168 -17.328 -23.704  0.00  0.00    +0.018 C 
ATOM      5  C   UNL     1      33.574 -14.987 -23.733  0.00  0.00    +0.005 C 
ATOM      6  C   UNL     1      33.902 -16.159 -24.415  0.00  0.00    +0.002 C 
ENDROOT
BRANCH   1   8
ATOM      7  O   UNL     1      31.911 -21.051 -19.398  0.00  0.00    -0.207 OA
ATOM      8  N   UNL     1      34.377 -18.510 -21.591  0.00  0.00    -0.137 N 
ATOM      9  N   UNL     1      35.507 -18.736 -20.870  0.00  0.00    -0.215 N 
ATOM     10  N   UNL     1      33.302 -19.246 -21.097  0.00  0.00    -0.143 NA
ATOM     11  N   UNL     1      35.832 -20.202 -18.922  0.00  0.00    -0.309 NA
ATOM     12  N   UNL     1      33.866 -21.401 -18.202  0.00  0.00    -0.251 NA
ATOM     13  N   UNL     1      35.871 -21.673 -17.082  0.00  0.00    -0.283 N 
ATOM     14  C   UNL     1      35.216 -19.621 -19.884  0.00  0.00    +0.243 C 
ATOM     15  C   UNL     1      33.788 -19.904 -20.091  0.00  0.00    +0.241 C 
ATOM     16  C   UNL     1      33.098 -20.843 -19.196  0.00  0.00    +0.239 C 
ATOM     17  C   UNL     1      35.142 -21.088 -18.092  0.00  0.00    +0.208 C 
ATOM     18  H   UNL     1      36.387 -18.326 -21.034  0.00  0.00    +0.175 HD
ATOM     19  H   UNL     1      36.826 -21.458 -16.975  0.00  0.00    +0.156 HD
ATOM     20  H   UNL     1      35.437 -22.306 -16.465  0.00  0.00    +0.156 HD
ENDBRANCH   1   8
BRANCH   2  23
ATOM     21  O   UNL     1      33.580 -13.573 -20.469  0.00  0.00    -0.270 OA
ATOM     22  N   UNL     1      32.396 -12.823 -22.316  0.00  0.00    -0.297 N 
ATOM     23  C   UNL     1      33.172 -13.763 -21.629  0.00  0.00    +0.246 C 
ATOM     24  H   UNL     1      32.107 -13.038 -23.232  0.00  0.00    +0.150 HD
BRANCH  22  25
ATOM     25  C   UNL     1      31.996 -11.553 -21.754  0.00  0.00    +0.117 C 
BRANCH  25  28
ATOM     26 CL   UNL     1      32.002  -6.442 -22.712  0.00  0.00    -0.082 Cl
ATOM     27 CL   UNL     1      35.243  -9.802 -25.419  0.00  0.00    -0.082 Cl
ATOM     28  C   UNL     1      32.546 -10.394 -22.535  0.00  0.00    -0.001 C 
ATOM     29  C   UNL     1      33.524 -10.615 -23.498  0.00  0.00    +0.009 C 
ATOM     30  C   UNL     1      32.071  -9.112 -22.287  0.00  0.00    +0.009 C 
ATOM     31  C   UNL     1      32.582  -8.034 -23.012  0.00  0.00    +0.058 C 
ATOM     32  C   UNL     1      34.033  -9.539 -24.224  0.00  0.00    +0.058 C 
ATOM     33  C   UNL     1      33.563  -8.248 -23.981  0.00  0.00    +0.023 C 
ENDBRANCH  25  28
ENDBRANCH  22  25
ENDBRANCH   2  23
TORSDOF 4
ENDMDL
MODEL 9
REMARK VINA RESULT:     -11.0      2.645      4.032
REMARK  Name = 448407
REMARK  4 active torsions:
REMARK  status: ('A' for Active; 'I' for Inactive)
REMARK    1  A    between atoms: C_1  and  N_8
REMARK    2  A    between atoms: C_2  and  C_23
REMARK    3  A    between atoms: N_22  and  C_25
REMARK    4  A    between atoms: C_25  and  C_28
REMARK                            x       y       z     vdW  Elec       q    Type
REMARK                         _______ _______ _______ _____ _____    ______ ____
ROOT
ATOM      1  C   UNL     1      33.523 -16.586 -22.979  0.00  0.00    +0.090 C 
ATOM      2  C   UNL     1      34.900 -18.300 -21.934  0.00  0.00    +0.055 C 
ATOM      3  C   UNL     1      34.476 -16.974 -22.021  0.00  0.00    +0.023 C 
ATOM      4  C   UNL     1      33.005 -17.565 -23.846  0.00  0.00    +0.018 C 
ATOM      5  C   UNL     1      34.376 -19.258 -22.801  0.00  0.00    +0.005 C 
ATOM      6  C   UNL     1      33.429 -18.890 -23.757  0.00  0.00    +0.002 C 
ENDROOT
BRANCH   1   8
ATOM      7  O   UNL     1      32.107 -12.877 -26.331  0.00  0.00    -0.207 OA
ATOM      8  N   UNL     1      33.099 -15.265 -23.066  0.00  0.00    -0.137 N 
ATOM      9  N   UNL     1      33.543 -14.256 -22.270  0.00  0.00    -0.215 N 
ATOM     10  N   UNL     1      32.670 -14.787 -24.301  0.00  0.00    -0.143 NA
ATOM     11  N   UNL     1      33.659 -11.846 -22.745  0.00  0.00    -0.309 NA
ATOM     12  N   UNL     1      32.873 -11.194 -24.932  0.00  0.00    -0.251 NA
ATOM     13  N   UNL     1      33.661  -9.599 -23.454  0.00  0.00    -0.283 N 
ATOM     14  C   UNL     1      33.421 -13.089 -22.949  0.00  0.00    +0.243 C 
ATOM     15  C   UNL     1      32.855 -13.505 -24.242  0.00  0.00    +0.241 C 
ATOM     16  C   UNL     1      32.576 -12.493 -25.269  0.00  0.00    +0.239 C 
ATOM     17  C   UNL     1      33.379 -10.914 -23.748  0.00  0.00    +0.208 C 
ATOM     18  H   UNL     1      33.893 -14.356 -21.355  0.00  0.00    +0.175 HD
ATOM     19  H   UNL     1      34.040  -9.360 -22.577  0.00  0.00    +0.156 HD
ATOM     20  H   UNL     1      33.485  -8.897 -24.122  0.00  0.00    +0.156 HD
ENDBRANCH   1   8
BRANCH   2  23
ATOM     21  O   UNL     1      37.025 -18.186 -20.951  0.00  0.00    -0.270 OA
ATOM     22  N   UNL     1      35.481 -19.609 -19.966  0.00  0.00    -0.297 N 
ATOM     23  C   UNL     1      35.886 -18.684 -20.937  0.00  0.00    +0.246 C 
ATOM     24  H   UNL     1      34.565 -19.963 -20.015  0.00  0.00    +0.150 HD
BRANCH  22  25
ATOM     25  C   UNL     1      36.338 -20.071 -18.898  0.00  0.00    +0.117 C 
BRANCH  25  28
ATOM     26 CL   UNL     1      36.268 -22.525 -14.314  0.00  0.00    -0.082 Cl
ATOM     27 CL   UNL     1      32.001 -22.638 -17.616  0.00  0.00    -0.082 Cl
ATOM     28  C   UNL     1      35.593 -20.919 -17.908  0.00  0.00    -0.001 C 
ATOM     29  C   UNL     1      34.297 -21.332 -18.193  0.00  0.00    +0.009 C 
ATOM     30  C   UNL     1      36.208 -21.283 -16.715  0.00  0.00    +0.009 C 
ATOM     31  C   UNL     1      35.517 -22.070 -15.794  0.00  0.00    +0.058 C 
ATOM     32  C   UNL     1      33.606 -22.120 -17.273  0.00  0.00    +0.058 C 
ATOM     33  C   UNL     1      34.215 -22.489 -16.073  0.00  0.00    +0.023 C 
ENDBRANCH  25  28
ENDBRANCH  22  25
ENDBRANCH   2  23
TORSDOF 4
ENDMDL
