MODEL 1
REMARK VINA RESULT:     -12.2      0.000      0.000
REMARK  Name = 6918314
REMARK  8 active torsions:
REMARK  status: ('A' for Active; 'I' for Inactive)
REMARK    1  A    between atoms: N_1  and  C_22
REMARK    2  A    between atoms: N_2  and  C_9
REMARK    3  A    between atoms: C_16  and  C_19
REMARK    4  A    between atoms: C_22  and  C_23
REMARK    5  A    between atoms: C_23  and  C_24
REMARK    6  A    between atoms: C_24  and  C_25
REMARK    7  A    between atoms: C_25  and  C_27
REMARK    8  A    between atoms: C_33  and  C_37
REMARK                            x       y       z     vdW  Elec       q    Type
REMARK                         _______ _______ _______ _____ _____    ______ ____
ROOT
ATOM      1  N   UNL     1      35.161 -20.281 -18.761  0.00  0.00    +0.389 N 
ATOM      2  N   UNL     1      34.413 -18.694 -21.015  0.00  0.00    -0.312 N 
ATOM      3  C   UNL     1      36.188 -19.671 -19.613  0.00  0.00    -0.055 C 
ATOM      4  C   UNL     1      33.992 -20.645 -19.571  0.00  0.00    -0.055 C 
ATOM      5  C   UNL     1      35.659 -18.407 -20.294  0.00  0.00    +0.068 C 
ATOM      6  C   UNL     1      33.389 -19.414 -20.252  0.00  0.00    +0.068 C 
ATOM      7  H   UNL     1      34.873 -19.603 -18.055  0.00  0.00    -0.080 HD
ENDROOT
BRANCH   2   9
ATOM      8  O   UNL     1      32.928 -15.126 -24.966  0.00  0.00    -0.449 OA
ATOM      9  C   UNL     1      34.030 -17.820 -22.040  0.00  0.00    +0.048 C 
ATOM     10  C   UNL     1      34.052 -16.419 -21.834  0.00  0.00    +0.018 C 
ATOM     11  C   UNL     1      33.614 -18.320 -23.294  0.00  0.00    +0.018 C 
ATOM     12  C   UNL     1      33.664 -15.554 -22.873  0.00  0.00    +0.039 C 
ATOM     13  C   UNL     1      33.266 -16.110 -24.085  0.00  0.00    +0.146 C 
ATOM     14  C   UNL     1      33.225 -17.479 -24.342  0.00  0.00    +0.039 C 
ATOM     15  C   UNL     1      33.558 -14.149 -23.039  0.00  0.00    +0.045 C 
ATOM     16  C   UNL     1      33.109 -13.943 -24.323  0.00  0.00    +0.198 C 
BRANCH  16  19
ATOM     17  O   UNL     1      32.332 -12.703 -26.196  0.00  0.00    -0.267 OA
ATOM     18  N   UNL     1      33.120 -11.517 -24.428  0.00  0.00    -0.323 N 
ATOM     19  C   UNL     1      32.821 -12.746 -25.038  0.00  0.00    +0.277 C 
ATOM     20  H   UNL     1      32.931 -10.674 -24.901  0.00  0.00    +0.145 HD
ATOM     21  H   UNL     1      33.518 -11.498 -23.529  0.00  0.00    +0.145 HD
ENDBRANCH  16  19
ENDBRANCH   2   9
BRANCH   1  22
ATOM     22  C   UNL     1      35.695 -21.456 -18.074  0.00  0.00    -0.077 C 
BRANCH  22  23
ATOM     23  C   UNL     1      36.077 -21.103 -16.637  0.00  0.00    -0.022 C 
BRANCH  23  24
ATOM     24  C   UNL     1      35.491 -22.109 -15.645  0.00  0.00    +0.003 C 
BRANCH  24  25
ATOM     25  C   UNL     1      34.059 -22.498 -16.026  0.00  0.00    +0.028 C 
BRANCH  25  27
ATOM     26  N   UNL     1      32.965 -24.398 -13.106  0.00  0.00    -0.312 N 
ATOM     27  C   UNL     1      33.345 -23.204 -14.912  0.00  0.00    -0.006 C 
ATOM     28  C   UNL     1      31.949 -23.239 -14.720  0.00  0.00    +0.011 C 
ATOM     29  C   UNL     1      33.953 -23.914 -13.920  0.00  0.00    +0.058 C 
ATOM     30  C   UNL     1      31.730 -24.001 -13.570  0.00  0.00    +0.048 C 
ATOM     31  C   UNL     1      30.837 -22.704 -15.400  0.00  0.00    +0.011 C 
ATOM     32  C   UNL     1      30.450 -24.256 -13.066  0.00  0.00    +0.015 C 
ATOM     33  C   UNL     1      29.551 -22.951 -14.907  0.00  0.00    +0.069 C 
ATOM     34  C   UNL     1      29.362 -23.715 -13.757  0.00  0.00    +0.012 C 
ATOM     35  H   UNL     1      33.114 -24.950 -12.305  0.00  0.00    +0.152 HD
BRANCH  33  37
ATOM     36  N   UNL     1      27.498 -21.974 -16.151  0.00  0.00    -0.191 NA
ATOM     37  C   UNL     1      28.418 -22.412 -15.593  0.00  0.00    +0.100 C 
ENDBRANCH  33  37
ENDBRANCH  25  27
ENDBRANCH  24  25
ENDBRANCH  23  24
ENDBRANCH  22  23
ENDBRANCH   1  22
TORSDOF 8
ENDMDL
MODEL 2
REMARK VINA RESULT:     -11.6      4.327     12.382
REMARK  Name = 6918314
REMARK  8 active torsions:
REMARK  status: ('A' for Active; 'I' for Inactive)
REMARK    1  A    between atoms: N_1  and  C_22
REMARK    2  A    between atoms: N_2  and  C_9
REMARK    3  A    between atoms: C_16  and  C_19
REMARK    4  A    between atoms: C_22  and  C_23
REMARK    5  A    between atoms: C_23  and  C_24
REMARK    6  A    between atoms: C_24  and  C_25
REMARK    7  A    between atoms: C_25  and  C_27
REMARK    8  A    between atoms: C_33  and  C_37
REMARK                            x       y       z     vdW  Elec       q    Type
REMARK                         _______ _______ _______ _____ _____    ______ ____
ROOT
ATOM      1  N   UNL     1      34.177 -16.556 -23.580  0.00  0.00    +0.389 N 
ATOM      2  N   UNL     1      34.077 -18.468 -21.461  0.00  0.00    -0.312 N 
ATOM      3  C   UNL     1      34.179 -16.114 -22.181  0.00  0.00    -0.055 C 
ATOM      4  C   UNL     1      33.373 -17.775 -23.717  0.00  0.00    -0.055 C 
ATOM      5  C   UNL     1      34.769 -17.189 -21.265  0.00  0.00    +0.068 C 
ATOM      6  C   UNL     1      33.934 -18.906 -22.853  0.00  0.00    +0.068 C 
ATOM      7  H   UNL     1      35.136 -16.762 -23.862  0.00  0.00    -0.080 HD
ENDROOT
BRANCH   2   9
ATOM      8  O   UNL     1      34.225 -22.229 -17.414  0.00  0.00    -0.449 OA
ATOM      9  C   UNL     1      34.153 -19.421 -20.437  0.00  0.00    +0.048 C 
ATOM     10  C   UNL     1      32.974 -19.933 -19.843  0.00  0.00    +0.018 C 
ATOM     11  C   UNL     1      35.406 -19.886 -19.978  0.00  0.00    +0.018 C 
ATOM     12  C   UNL     1      33.067 -20.889 -18.816  0.00  0.00    +0.039 C 
ATOM     13  C   UNL     1      34.331 -21.306 -18.411  0.00  0.00    +0.146 C 
ATOM     14  C   UNL     1      35.523 -20.836 -18.959  0.00  0.00    +0.039 C 
ATOM     15  C   UNL     1      32.146 -21.608 -18.011  0.00  0.00    +0.045 C 
ATOM     16  C   UNL     1      32.898 -22.405 -17.179  0.00  0.00    +0.198 C 
BRANCH  16  19
ATOM     17  O   UNL     1      33.289 -24.171 -15.638  0.00  0.00    -0.267 OA
ATOM     18  N   UNL     1      31.182 -23.333 -15.734  0.00  0.00    -0.323 N 
ATOM     19  C   UNL     1      32.518 -23.331 -16.167  0.00  0.00    +0.277 C 
ATOM     20  H   UNL     1      30.893 -23.964 -15.035  0.00  0.00    +0.145 HD
ATOM     21  H   UNL     1      30.535 -22.705 -16.128  0.00  0.00    +0.145 HD
ENDBRANCH  16  19
ENDBRANCH   2   9
BRANCH   1  22
ATOM     22  C   UNL     1      33.662 -15.500 -24.451  0.00  0.00    -0.077 C 
BRANCH  22  23
ATOM     23  C   UNL     1      32.864 -14.483 -23.637  0.00  0.00    -0.022 C 
BRANCH  23  24
ATOM     24  C   UNL     1      32.699 -13.169 -24.403  0.00  0.00    +0.003 C 
BRANCH  24  25
ATOM     25  C   UNL     1      32.346 -12.014 -23.461  0.00  0.00    +0.028 C 
BRANCH  25  27
ATOM     26  N   UNL     1      34.711  -9.453 -24.547  0.00  0.00    -0.312 N 
ATOM     27  C   UNL     1      33.184 -10.797 -23.713  0.00  0.00    -0.006 C 
ATOM     28  C   UNL     1      33.049  -9.554 -23.062  0.00  0.00    +0.011 C 
ATOM     29  C   UNL     1      34.201 -10.722 -24.617  0.00  0.00    +0.058 C 
ATOM     30  C   UNL     1      34.026  -8.717 -23.606  0.00  0.00    +0.048 C 
ATOM     31  C   UNL     1      32.198  -9.041 -22.063  0.00  0.00    +0.011 C 
ATOM     32  C   UNL     1      34.196  -7.390 -23.198  0.00  0.00    +0.015 C 
ATOM     33  C   UNL     1      32.356  -7.715 -21.645  0.00  0.00    +0.069 C 
ATOM     34  C   UNL     1      33.340  -6.903 -22.206  0.00  0.00    +0.012 C 
ATOM     35  H   UNL     1      35.459  -9.115 -25.091  0.00  0.00    +0.152 HD
BRANCH  33  37
ATOM     36  N   UNL     1      30.799  -6.760 -19.807  0.00  0.00    -0.191 NA
ATOM     37  C   UNL     1      31.496  -7.188 -20.631  0.00  0.00    +0.100 C 
ENDBRANCH  33  37
ENDBRANCH  25  27
ENDBRANCH  24  25
ENDBRANCH  23  24
ENDBRANCH  22  23
ENDBRANCH   1  22
TORSDOF 8
ENDMDL
MODEL 3
REMARK VINA RESULT:     -11.6      4.231     11.030
REMARK  Name = 6918314
REMARK  8 active torsions:
REMARK  status: ('A' for Active; 'I' for Inactive)
REMARK    1  A    between atoms: N_1  and  C_22
REMARK    2  A    between atoms: N_2  and  C_9
REMARK    3  A    between atoms: C_16  and  C_19
REMARK    4  A    between atoms: C_22  and  C_23
REMARK    5  A    between atoms: C_23  and  C_24
REMARK    6  A    between atoms: C_24  and  C_25
REMARK    7  A    between atoms: C_25  and  C_27
REMARK    8  A    between atoms: C_33  and  C_37
REMARK                            x       y       z     vdW  Elec       q    Type
REMARK                         _______ _______ _______ _____ _____    ______ ____
ROOT
ATOM      1  N   UNL     1      34.355 -16.693 -23.598  0.00  0.00    +0.389 N 
ATOM      2  N   UNL     1      34.189 -18.562 -21.445  0.00  0.00    -0.312 N 
ATOM      3  C   UNL     1      34.422 -16.230 -22.207  0.00  0.00    -0.055 C 
ATOM      4  C   UNL     1      33.471 -17.860 -23.694  0.00  0.00    -0.055 C 
ATOM      5  C   UNL     1      34.966 -17.326 -21.288  0.00  0.00    +0.068 C 
ATOM      6  C   UNL     1      33.983 -19.011 -22.825  0.00  0.00    +0.068 C 
ATOM      7  H   UNL     1      35.291 -16.964 -23.901  0.00  0.00    -0.080 HD
ENDROOT
BRANCH   2   9
ATOM      8  O   UNL     1      34.202 -22.268 -17.345  0.00  0.00    -0.449 OA
ATOM      9  C   UNL     1      34.231 -19.501 -20.407  0.00  0.00    +0.048 C 
ATOM     10  C   UNL     1      33.033 -19.989 -19.831  0.00  0.00    +0.018 C 
ATOM     11  C   UNL     1      35.468 -19.977 -19.917  0.00  0.00    +0.018 C 
ATOM     12  C   UNL     1      33.092 -20.932 -18.789  0.00  0.00    +0.039 C 
ATOM     13  C   UNL     1      34.341 -21.361 -18.353  0.00  0.00    +0.146 C 
ATOM     14  C   UNL     1      35.551 -20.915 -18.883  0.00  0.00    +0.039 C 
ATOM     15  C   UNL     1      32.145 -21.627 -17.993  0.00  0.00    +0.045 C 
ATOM     16  C   UNL     1      32.868 -22.422 -17.135  0.00  0.00    +0.198 C 
BRANCH  16  19
ATOM     17  O   UNL     1      33.211 -24.153 -15.543  0.00  0.00    -0.267 OA
ATOM     18  N   UNL     1      31.104 -23.332 -15.737  0.00  0.00    -0.323 N 
ATOM     19  C   UNL     1      32.456 -23.329 -16.119  0.00  0.00    +0.277 C 
ATOM     20  H   UNL     1      30.791 -23.949 -15.037  0.00  0.00    +0.145 HD
ATOM     21  H   UNL     1      30.469 -22.717 -16.170  0.00  0.00    +0.145 HD
ENDBRANCH  16  19
ENDBRANCH   2   9
BRANCH   1  22
ATOM     22  C   UNL     1      33.885 -15.620 -24.474  0.00  0.00    -0.077 C 
BRANCH  22  23
ATOM     23  C   UNL     1      32.494 -15.157 -24.047  0.00  0.00    -0.022 C 
BRANCH  23  24
ATOM     24  C   UNL     1      32.388 -13.631 -24.070  0.00  0.00    +0.003 C 
BRANCH  24  25
ATOM     25  C   UNL     1      33.215 -12.997 -22.948  0.00  0.00    +0.028 C 
BRANCH  25  27
ATOM     26  N   UNL     1      31.397 -13.090 -19.783  0.00  0.00    -0.312 N 
ATOM     27  C   UNL     1      32.407 -12.760 -21.707  0.00  0.00    -0.006 C 
ATOM     28  C   UNL     1      31.778 -11.550 -21.352  0.00  0.00    +0.011 C 
ATOM     29  C   UNL     1      32.168 -13.692 -20.742  0.00  0.00    +0.058 C 
ATOM     30  C   UNL     1      31.144 -11.781 -20.129  0.00  0.00    +0.048 C 
ATOM     31  C   UNL     1      31.675 -10.272 -21.937  0.00  0.00    +0.011 C 
ATOM     32  C   UNL     1      30.409 -10.796 -19.461  0.00  0.00    +0.015 C 
ATOM     33  C   UNL     1      30.944  -9.276 -21.280  0.00  0.00    +0.069 C 
ATOM     34  C   UNL     1      30.322  -9.536 -20.061  0.00  0.00    +0.012 C 
ATOM     35  H   UNL     1      31.071 -13.529 -18.964  0.00  0.00    +0.152 HD
BRANCH  33  37
ATOM     36  N   UNL     1      30.747  -6.923 -22.346  0.00  0.00    -0.191 NA
ATOM     37  C   UNL     1      30.835  -7.978 -21.869  0.00  0.00    +0.100 C 
ENDBRANCH  33  37
ENDBRANCH  25  27
ENDBRANCH  24  25
ENDBRANCH  23  24
ENDBRANCH  22  23
ENDBRANCH   1  22
TORSDOF 8
ENDMDL
MODEL 4
REMARK VINA RESULT:     -11.4      2.334      4.303
REMARK  Name = 6918314
REMARK  8 active torsions:
REMARK  status: ('A' for Active; 'I' for Inactive)
REMARK    1  A    between atoms: N_1  and  C_22
REMARK    2  A    between atoms: N_2  and  C_9
REMARK    3  A    between atoms: C_16  and  C_19
REMARK    4  A    between atoms: C_22  and  C_23
REMARK    5  A    between atoms: C_23  and  C_24
REMARK    6  A    between atoms: C_24  and  C_25
REMARK    7  A    between atoms: C_25  and  C_27
REMARK    8  A    between atoms: C_33  and  C_37
REMARK                            x       y       z     vdW  Elec       q    Type
REMARK                         _______ _______ _______ _____ _____    ______ ____
ROOT
ATOM      1  N   UNL     1      34.629 -20.777 -19.450  0.00  0.00    +0.389 N 
ATOM      2  N   UNL     1      34.282 -18.312 -20.848  0.00  0.00    -0.312 N 
ATOM      3  C   UNL     1      33.290 -20.204 -19.621  0.00  0.00    -0.055 C 
ATOM      4  C   UNL     1      35.619 -19.703 -19.317  0.00  0.00    -0.055 C 
ATOM      5  C   UNL     1      33.223 -19.328 -20.874  0.00  0.00    +0.068 C 
ATOM      6  C   UNL     1      35.631 -18.808 -20.558  0.00  0.00    +0.068 C 
ATOM      7  H   UNL     1      34.858 -21.334 -20.273  0.00  0.00    -0.080 HD
ENDROOT
BRANCH   2   9
ATOM      8  O   UNL     1      33.615 -13.721 -23.852  0.00  0.00    -0.449 OA
ATOM      9  C   UNL     1      34.118 -17.170 -21.641  0.00  0.00    +0.048 C 
ATOM     10  C   UNL     1      33.882 -15.907 -21.043  0.00  0.00    +0.018 C 
ATOM     11  C   UNL     1      34.183 -17.256 -23.050  0.00  0.00    +0.018 C 
ATOM     12  C   UNL     1      33.719 -14.770 -21.853  0.00  0.00    +0.039 C 
ATOM     13  C   UNL     1      33.795 -14.922 -23.234  0.00  0.00    +0.146 C 
ATOM     14  C   UNL     1      34.024 -16.139 -23.875  0.00  0.00    +0.039 C 
ATOM     15  C   UNL     1      33.478 -13.389 -21.630  0.00  0.00    +0.045 C 
ATOM     16  C   UNL     1      33.423 -12.799 -22.872  0.00  0.00    +0.198 C 
BRANCH  16  19
ATOM     17  O   UNL     1      32.455 -10.639 -22.663  0.00  0.00    -0.267 OA
ATOM     18  N   UNL     1      33.862 -10.974 -24.412  0.00  0.00    -0.323 N 
ATOM     19  C   UNL     1      33.209 -11.448 -23.262  0.00  0.00    +0.277 C 
ATOM     20  H   UNL     1      33.731 -10.044 -24.704  0.00  0.00    +0.145 HD
ATOM     21  H   UNL     1      34.451 -11.574 -24.925  0.00  0.00    +0.145 HD
ENDBRANCH  16  19
ENDBRANCH   2   9
BRANCH   1  22
ATOM     22  C   UNL     1      34.666 -21.656 -18.281  0.00  0.00    -0.077 C 
BRANCH  22  23
ATOM     23  C   UNL     1      33.276 -22.226 -18.002  0.00  0.00    -0.022 C 
BRANCH  23  24
ATOM     24  C   UNL     1      33.171 -22.751 -16.569  0.00  0.00    +0.003 C 
BRANCH  24  25
ATOM     25  C   UNL     1      34.417 -22.396 -15.752  0.00  0.00    +0.028 C 
BRANCH  25  27
ATOM     26  N   UNL     1      33.760 -23.661 -12.390  0.00  0.00    -0.312 N 
ATOM     27  C   UNL     1      34.409 -23.033 -14.394  0.00  0.00    -0.006 C 
ATOM     28  C   UNL     1      35.449 -23.807 -13.840  0.00  0.00    +0.011 C 
ATOM     29  C   UNL     1      33.384 -22.952 -13.500  0.00  0.00    +0.058 C 
ATOM     30  C   UNL     1      35.017 -24.194 -12.570  0.00  0.00    +0.048 C 
ATOM     31  C   UNL     1      36.721 -24.225 -14.280  0.00  0.00    +0.011 C 
ATOM     32  C   UNL     1      35.796 -24.980 -11.714  0.00  0.00    +0.015 C 
ATOM     33  C   UNL     1      37.511 -25.012 -13.435  0.00  0.00    +0.069 C 
ATOM     34  C   UNL     1      37.054 -25.384 -12.172  0.00  0.00    +0.012 C 
ATOM     35  H   UNL     1      33.211 -23.773 -11.580  0.00  0.00    +0.152 HD
BRANCH  33  37
ATOM     36  N   UNL     1      39.852 -25.786 -14.231  0.00  0.00    -0.191 NA
ATOM     37  C   UNL     1      38.804 -25.439 -13.874  0.00  0.00    +0.100 C 
ENDBRANCH  33  37
ENDBRANCH  25  27
ENDBRANCH  24  25
ENDBRANCH  23  24
ENDBRANCH  22  23
ENDBRANCH   1  22
TORSDOF 8
ENDMDL
MODEL 5
REMARK VINA RESULT:     -11.3      4.221      8.080
REMARK  Name = 6918314
REMARK  8 active torsions:
REMARK  status: ('A' for Active; 'I' for Inactive)
REMARK    1  A    between atoms: N_1  and  C_22
REMARK    2  A    between atoms: N_2  and  C_9
REMARK    3  A    between atoms: C_16  and  C_19
REMARK    4  A    between atoms: C_22  and  C_23
REMARK    5  A    between atoms: C_23  and  C_24
REMARK    6  A    between atoms: C_24  and  C_25
REMARK    7  A    between atoms: C_25  and  C_27
REMARK    8  A    between atoms: C_33  and  C_37
REMARK                            x       y       z     vdW  Elec       q    Type
REMARK                         _______ _______ _______ _____ _____    ______ ____
ROOT
ATOM      1  N   UNL     1      33.172 -14.508 -23.926  0.00  0.00    +0.389 N 
ATOM      2  N   UNL     1      32.913 -11.723 -23.347  0.00  0.00    -0.312 N 
ATOM      3  C   UNL     1      32.528 -13.607 -24.889  0.00  0.00    -0.055 C 
ATOM      4  C   UNL     1      32.897 -14.057 -22.557  0.00  0.00    -0.055 C 
ATOM      5  C   UNL     1      33.050 -12.177 -24.737  0.00  0.00    +0.068 C 
ATOM      6  C   UNL     1      33.430 -12.641 -22.327  0.00  0.00    +0.068 C 
ATOM      7  H   UNL     1      34.181 -14.490 -24.082  0.00  0.00    -0.080 HD
ENDROOT
BRANCH   2   9
ATOM      8  O   UNL     1      32.757  -6.300 -22.299  0.00  0.00    -0.449 OA
ATOM      9  C   UNL     1      32.906 -10.345 -23.103  0.00  0.00    +0.048 C 
ATOM     10  C   UNL     1      31.884  -9.760 -22.315  0.00  0.00    +0.018 C 
ATOM     11  C   UNL     1      33.915  -9.514 -23.637  0.00  0.00    +0.018 C 
ATOM     12  C   UNL     1      31.890  -8.374 -22.079  0.00  0.00    +0.039 C 
ATOM     13  C   UNL     1      32.913  -7.612 -22.633  0.00  0.00    +0.146 C 
ATOM     14  C   UNL     1      33.943  -8.133 -23.414  0.00  0.00    +0.039 C 
ATOM     15  C   UNL     1      31.069  -7.461 -21.367  0.00  0.00    +0.045 C 
ATOM     16  C   UNL     1      31.637  -6.219 -21.532  0.00  0.00    +0.198 C 
BRANCH  16  19
ATOM     17  O   UNL     1      31.128  -3.909 -21.765  0.00  0.00    -0.267 OA
ATOM     18  N   UNL     1      31.010  -4.787 -19.675  0.00  0.00    -0.323 N 
ATOM     19  C   UNL     1      31.252  -4.937 -21.051  0.00  0.00    +0.277 C 
ATOM     20  H   UNL     1      30.742  -3.910 -19.315  0.00  0.00    +0.145 HD
ATOM     21  H   UNL     1      31.109  -5.557 -19.071  0.00  0.00    +0.145 HD
ENDBRANCH  16  19
ENDBRANCH   2   9
BRANCH   1  22
ATOM     22  C   UNL     1      32.706 -15.881 -24.117  0.00  0.00    -0.077 C 
BRANCH  22  23
ATOM     23  C   UNL     1      33.890 -16.813 -24.371  0.00  0.00    -0.022 C 
BRANCH  23  24
ATOM     24  C   UNL     1      33.649 -18.193 -23.757  0.00  0.00    +0.003 C 
BRANCH  24  25
ATOM     25  C   UNL     1      33.352 -18.092 -22.257  0.00  0.00    +0.028 C 
BRANCH  25  27
ATOM     26  N   UNL     1      36.502 -18.931 -20.611  0.00  0.00    -0.312 N 
ATOM     27  C   UNL     1      34.482 -18.607 -21.417  0.00  0.00    -0.006 C 
ATOM     28  C   UNL     1      34.368 -19.532 -20.359  0.00  0.00    +0.011 C 
ATOM     29  C   UNL     1      35.789 -18.248 -21.560  0.00  0.00    +0.058 C 
ATOM     30  C   UNL     1      35.659 -19.722 -19.862  0.00  0.00    +0.048 C 
ATOM     31  C   UNL     1      33.302 -20.234 -19.762  0.00  0.00    +0.011 C 
ATOM     32  C   UNL     1      35.939 -20.584 -18.796  0.00  0.00    +0.015 C 
ATOM     33  C   UNL     1      33.567 -21.099 -18.694  0.00  0.00    +0.069 C 
ATOM     34  C   UNL     1      34.865 -21.269 -18.219  0.00  0.00    +0.012 C 
ATOM     35  H   UNL     1      37.476 -18.865 -20.481  0.00  0.00    +0.152 HD
BRANCH  33  37
ATOM     36  N   UNL     1      31.616 -22.397 -17.588  0.00  0.00    -0.191 NA
ATOM     37  C   UNL     1      32.490 -21.815 -18.084  0.00  0.00    +0.100 C 
ENDBRANCH  33  37
ENDBRANCH  25  27
ENDBRANCH  24  25
ENDBRANCH  23  24
ENDBRANCH  22  23
ENDBRANCH   1  22
TORSDOF 8
ENDMDL
MODEL 6
REMARK VINA RESULT:     -11.2      3.323      5.826
REMARK  Name = 6918314
REMARK  8 active torsions:
REMARK  status: ('A' for Active; 'I' for Inactive)
REMARK    1  A    between atoms: N_1  and  C_22
REMARK    2  A    between atoms: N_2  and  C_9
REMARK    3  A    between atoms: C_16  and  C_19
REMARK    4  A    between atoms: C_22  and  C_23
REMARK    5  A    between atoms: C_23  and  C_24
REMARK    6  A    between atoms: C_24  and  C_25
REMARK    7  A    between atoms: C_25  and  C_27
REMARK    8  A    between atoms: C_33  and  C_37
REMARK                            x       y       z     vdW  Elec       q    Type
REMARK                         _______ _______ _______ _____ _____    ______ ____
ROOT
ATOM      1  N   UNL     1      33.873 -16.730 -22.419  0.00  0.00    +0.389 N 
ATOM      2  N   UNL     1      33.396 -13.925 -22.654  0.00  0.00    -0.312 N 
ATOM      3  C   UNL     1      34.265 -15.818 -21.338  0.00  0.00    -0.055 C 
ATOM      4  C   UNL     1      34.016 -16.059 -23.716  0.00  0.00    -0.055 C 
ATOM      5  C   UNL     1      33.388 -14.564 -21.333  0.00  0.00    +0.068 C 
ATOM      6  C   UNL     1      33.132 -14.813 -23.791  0.00  0.00    +0.068 C 
ATOM      7  H   UNL     1      32.896 -16.993 -22.290  0.00  0.00    -0.080 HD
ENDROOT
BRANCH   2   9
ATOM      8  O   UNL     1      31.916  -8.603 -22.839  0.00  0.00    -0.449 OA
ATOM      9  C   UNL     1      33.043 -12.572 -22.733  0.00  0.00    +0.048 C 
ATOM     10  C   UNL     1      32.165 -12.002 -21.778  0.00  0.00    +0.018 C 
ATOM     11  C   UNL     1      33.553 -11.754 -23.765  0.00  0.00    +0.018 C 
ATOM     12  C   UNL     1      31.820 -10.642 -21.871  0.00  0.00    +0.039 C 
ATOM     13  C   UNL     1      32.358  -9.890 -22.910  0.00  0.00    +0.146 C 
ATOM     14  C   UNL     1      33.225 -10.399 -23.876  0.00  0.00    +0.039 C 
ATOM     15  C   UNL     1      31.004  -9.748 -21.130  0.00  0.00    +0.045 C 
ATOM     16  C   UNL     1      31.096  -8.527 -21.758  0.00  0.00    +0.198 C 
BRANCH  16  19
ATOM     17  O   UNL     1      29.581  -6.737 -22.139  0.00  0.00    -0.267 OA
ATOM     18  N   UNL     1      30.968  -6.552 -20.353  0.00  0.00    -0.323 N 
ATOM     19  C   UNL     1      30.497  -7.270 -21.464  0.00  0.00    +0.277 C 
ATOM     20  H   UNL     1      30.572  -5.679 -20.127  0.00  0.00    +0.145 HD
ATOM     21  H   UNL     1      31.695  -6.920 -19.801  0.00  0.00    +0.145 HD
ENDBRANCH  16  19
ENDBRANCH   2   9
BRANCH   1  22
ATOM     22  C   UNL     1      34.682 -17.949 -22.380  0.00  0.00    -0.077 C 
BRANCH  22  23
ATOM     23  C   UNL     1      34.925 -18.378 -20.934  0.00  0.00    -0.022 C 
BRANCH  23  24
ATOM     24  C   UNL     1      33.955 -19.485 -20.516  0.00  0.00    +0.003 C 
BRANCH  24  25
ATOM     25  C   UNL     1      34.622 -20.481 -19.563  0.00  0.00    +0.028 C 
BRANCH  25  27
ATOM     26  N   UNL     1      31.742 -22.019 -17.927  0.00  0.00    -0.312 N 
ATOM     27  C   UNL     1      33.629 -21.185 -18.687  0.00  0.00    -0.006 C 
ATOM     28  C   UNL     1      33.913 -21.810 -17.455  0.00  0.00    +0.011 C 
ATOM     29  C   UNL     1      32.301 -21.320 -18.963  0.00  0.00    +0.058 C 
ATOM     30  C   UNL     1      32.704 -22.332 -16.991  0.00  0.00    +0.048 C 
ATOM     31  C   UNL     1      35.073 -21.992 -16.676  0.00  0.00    +0.011 C 
ATOM     32  C   UNL     1      32.596 -23.028 -15.783  0.00  0.00    +0.015 C 
ATOM     33  C   UNL     1      34.980 -22.687 -15.465  0.00  0.00    +0.069 C 
ATOM     34  C   UNL     1      33.760 -23.197 -15.027  0.00  0.00    +0.012 C 
ATOM     35  H   UNL     1      30.791 -22.263 -17.859  0.00  0.00    +0.152 HD
BRANCH  33  37
ATOM     36  N   UNL     1      37.106 -23.027 -14.024  0.00  0.00    -0.191 NA
ATOM     37  C   UNL     1      36.154 -22.875 -14.669  0.00  0.00    +0.100 C 
ENDBRANCH  33  37
ENDBRANCH  25  27
ENDBRANCH  24  25
ENDBRANCH  23  24
ENDBRANCH  22  23
ENDBRANCH   1  22
TORSDOF 8
ENDMDL
MODEL 7
REMARK VINA RESULT:     -11.0      5.029     11.520
REMARK  Name = 6918314
REMARK  8 active torsions:
REMARK  status: ('A' for Active; 'I' for Inactive)
REMARK    1  A    between atoms: N_1  and  C_22
REMARK    2  A    between atoms: N_2  and  C_9
REMARK    3  A    between atoms: C_16  and  C_19
REMARK    4  A    between atoms: C_22  and  C_23
REMARK    5  A    between atoms: C_23  and  C_24
REMARK    6  A    between atoms: C_24  and  C_25
REMARK    7  A    between atoms: C_25  and  C_27
REMARK    8  A    between atoms: C_33  and  C_37
REMARK                            x       y       z     vdW  Elec       q    Type
REMARK                         _______ _______ _______ _____ _____    ______ ____
ROOT
ATOM      1  N   UNL     1      32.672 -11.461 -24.492  0.00  0.00    +0.389 N 
ATOM      2  N   UNL     1      33.318 -14.113 -23.654  0.00  0.00    -0.312 N 
ATOM      3  C   UNL     1      33.006 -12.491 -25.482  0.00  0.00    -0.055 C 
ATOM      4  C   UNL     1      33.437 -11.685 -23.261  0.00  0.00    -0.055 C 
ATOM      5  C   UNL     1      32.675 -13.888 -24.955  0.00  0.00    +0.068 C 
ATOM      6  C   UNL     1      33.122 -13.055 -22.658  0.00  0.00    +0.068 C 
ATOM      7  H   UNL     1      31.677 -11.521 -24.276  0.00  0.00    -0.080 HD
ENDROOT
BRANCH   2   9
ATOM      8  O   UNL     1      34.121 -19.280 -21.864  0.00  0.00    -0.449 OA
ATOM      9  C   UNL     1      33.510 -15.435 -23.235  0.00  0.00    +0.048 C 
ATOM     10  C   UNL     1      33.964 -15.714 -21.923  0.00  0.00    +0.018 C 
ATOM     11  C   UNL     1      33.257 -16.512 -24.114  0.00  0.00    +0.018 C 
ATOM     12  C   UNL     1      34.152 -17.047 -21.517  0.00  0.00    +0.039 C 
ATOM     13  C   UNL     1      33.884 -18.063 -22.430  0.00  0.00    +0.146 C 
ATOM     14  C   UNL     1      33.436 -17.846 -23.732  0.00  0.00    +0.039 C 
ATOM     15  C   UNL     1      34.577 -17.698 -20.330  0.00  0.00    +0.045 C 
ATOM     16  C   UNL     1      34.540 -19.048 -20.592  0.00  0.00    +0.198 C 
BRANCH  16  19
ATOM     17  O   UNL     1      34.184 -21.234 -19.731  0.00  0.00    -0.267 OA
ATOM     18  N   UNL     1      35.989 -20.100 -18.953  0.00  0.00    -0.323 N 
ATOM     19  C   UNL     1      34.857 -20.173 -19.780  0.00  0.00    +0.277 C 
ATOM     20  H   UNL     1      36.231 -20.864 -18.381  0.00  0.00    +0.145 HD
ATOM     21  H   UNL     1      36.540 -19.284 -18.944  0.00  0.00    +0.145 HD
ENDBRANCH  16  19
ENDBRANCH   2   9
BRANCH   1  22
ATOM     22  C   UNL     1      32.941 -10.127 -25.029  0.00  0.00    -0.077 C 
BRANCH  22  23
ATOM     23  C   UNL     1      33.818  -9.333 -24.061  0.00  0.00    -0.022 C 
BRANCH  23  24
ATOM     24  C   UNL     1      33.177  -7.988 -23.712  0.00  0.00    +0.003 C 
BRANCH  24  25
ATOM     25  C   UNL     1      31.686  -8.144 -23.399  0.00  0.00    +0.028 C 
BRANCH  25  27
ATOM     26  N   UNL     1      30.956  -6.840 -20.067  0.00  0.00    -0.312 N 
ATOM     27  C   UNL     1      31.378  -7.886 -21.954  0.00  0.00    -0.006 C 
ATOM     28  C   UNL     1      31.196  -8.870 -20.961  0.00  0.00    +0.011 C 
ATOM     29  C   UNL     1      31.228  -6.652 -21.395  0.00  0.00    +0.058 C 
ATOM     30  C   UNL     1      30.929  -8.186 -19.774  0.00  0.00    +0.048 C 
ATOM     31  C   UNL     1      31.227 -10.279 -20.939  0.00  0.00    +0.011 C 
ATOM     32  C   UNL     1      30.693  -8.841 -18.561  0.00  0.00    +0.015 C 
ATOM     33  C   UNL     1      30.992 -10.948 -19.733  0.00  0.00    +0.069 C 
ATOM     34  C   UNL     1      30.729 -10.239 -18.563  0.00  0.00    +0.012 C 
ATOM     35  H   UNL     1      30.801  -6.119 -19.415  0.00  0.00    +0.152 HD
BRANCH  33  37
ATOM     36  N   UNL     1      31.050 -13.538 -19.678  0.00  0.00    -0.191 NA
ATOM     37  C   UNL     1      31.024 -12.378 -19.703  0.00  0.00    +0.100 C 
ENDBRANCH  33  37
ENDBRANCH  25  27
ENDBRANCH  24  25
ENDBRANCH  23  24
ENDBRANCH  22  23
ENDBRANCH   1  22
TORSDOF 8
ENDMDL
MODEL 8
REMARK VINA RESULT:     -10.8      5.680     13.874
REMARK  Name = 6918314
REMARK  8 active torsions:
REMARK  status: ('A' for Active; 'I' for Inactive)
REMARK    1  A    between atoms: N_1  and  C_22
REMARK    2  A    between atoms: N_2  and  C_9
REMARK    3  A    between atoms: C_16  and  C_19
REMARK    4  A    between atoms: C_22  and  C_23
REMARK    5  A    between atoms: C_23  and  C_24
REMARK    6  A    between atoms: C_24  and  C_25
REMARK    7  A    between atoms: C_25  and  C_27
REMARK    8  A    between atoms: C_33  and  C_37
REMARK                            x       y       z     vdW  Elec       q    Type
REMARK                         _______ _______ _______ _____ _____    ______ ____
ROOT
ATOM      1  N   UNL     1      32.552 -10.262 -24.076  0.00  0.00    +0.389 N 
ATOM      2  N   UNL     1      33.224 -12.966 -23.452  0.00  0.00    -0.312 N 
ATOM      3  C   UNL     1      33.300 -11.081 -25.037  0.00  0.00    -0.055 C 
ATOM      4  C   UNL     1      32.918 -10.638 -22.707  0.00  0.00    -0.055 C 
ATOM      5  C   UNL     1      32.994 -12.568 -24.846  0.00  0.00    +0.068 C 
ATOM      6  C   UNL     1      32.601 -12.111 -22.437  0.00  0.00    +0.068 C 
ATOM      7  H   UNL     1      31.554 -10.428 -24.207  0.00  0.00    -0.080 HD
ENDROOT
BRANCH   2   9
ATOM      8  O   UNL     1      34.093 -18.288 -22.241  0.00  0.00    -0.449 OA
ATOM      9  C   UNL     1      33.436 -14.323 -23.182  0.00  0.00    +0.048 C 
ATOM     10  C   UNL     1      33.804 -14.748 -21.882  0.00  0.00    +0.018 C 
ATOM     11  C   UNL     1      33.288 -15.291 -24.200  0.00  0.00    +0.018 C 
ATOM     12  C   UNL     1      34.014 -16.115 -21.626  0.00  0.00    +0.039 C 
ATOM     13  C   UNL     1      33.851 -17.018 -22.672  0.00  0.00    +0.146 C 
ATOM     14  C   UNL     1      33.490 -16.656 -23.969  0.00  0.00    +0.039 C 
ATOM     15  C   UNL     1      34.376 -16.894 -20.497  0.00  0.00    +0.045 C 
ATOM     16  C   UNL     1      34.410 -18.202 -20.922  0.00  0.00    +0.198 C 
BRANCH  16  19
ATOM     17  O   UNL     1      33.932 -20.390 -20.129  0.00  0.00    -0.267 OA
ATOM     18  N   UNL     1      35.957 -19.517 -19.590  0.00  0.00    -0.323 N 
ATOM     19  C   UNL     1      34.711 -19.408 -20.230  0.00  0.00    +0.277 C 
ATOM     20  H   UNL     1      36.190 -20.340 -19.104  0.00  0.00    +0.145 HD
ATOM     21  H   UNL     1      36.596 -18.769 -19.627  0.00  0.00    +0.145 HD
ENDBRANCH  16  19
ENDBRANCH   2   9
BRANCH   1  22
ATOM     22  C   UNL     1      32.810  -8.840 -24.304  0.00  0.00    -0.077 C 
BRANCH  22  23
ATOM     23  C   UNL     1      34.177  -8.452 -23.742  0.00  0.00    -0.022 C 
BRANCH  23  24
ATOM     24  C   UNL     1      34.070  -7.233 -22.823  0.00  0.00    +0.003 C 
BRANCH  24  25
ATOM     25  C   UNL     1      34.116  -5.927 -23.621  0.00  0.00    +0.028 C 
BRANCH  25  27
ATOM     26  N   UNL     1      31.061  -4.037 -24.278  0.00  0.00    -0.312 N 
ATOM     27  C   UNL     1      32.798  -5.210 -23.616  0.00  0.00    -0.006 C 
ATOM     28  C   UNL     1      31.919  -5.109 -22.519  0.00  0.00    +0.011 C 
ATOM     29  C   UNL     1      32.262  -4.553 -24.683  0.00  0.00    +0.058 C 
ATOM     30  C   UNL     1      30.825  -4.362 -22.960  0.00  0.00    +0.048 C 
ATOM     31  C   UNL     1      31.931  -5.573 -21.188  0.00  0.00    +0.011 C 
ATOM     32  C   UNL     1      29.739  -4.053 -22.134  0.00  0.00    +0.015 C 
ATOM     33  C   UNL     1      30.851  -5.272 -20.351  0.00  0.00    +0.069 C 
ATOM     34  C   UNL     1      29.772  -4.524 -20.818  0.00  0.00    +0.012 C 
ATOM     35  H   UNL     1      30.452  -3.511 -24.846  0.00  0.00    +0.152 HD
BRANCH  33  37
ATOM     36  N   UNL     1      30.861  -6.118 -17.901  0.00  0.00    -0.191 NA
ATOM     37  C   UNL     1      30.857  -5.738 -18.999  0.00  0.00    +0.100 C 
ENDBRANCH  33  37
ENDBRANCH  25  27
ENDBRANCH  24  25
ENDBRANCH  23  24
ENDBRANCH  22  23
ENDBRANCH   1  22
TORSDOF 8
ENDMDL
MODEL 9
REMARK VINA RESULT:     -10.8      3.236      4.054
REMARK  Name = 6918314
REMARK  8 active torsions:
REMARK  status: ('A' for Active; 'I' for Inactive)
REMARK    1  A    between atoms: N_1  and  C_22
REMARK    2  A    between atoms: N_2  and  C_9
REMARK    3  A    between atoms: C_16  and  C_19
REMARK    4  A    between atoms: C_22  and  C_23
REMARK    5  A    between atoms: C_23  and  C_24
REMARK    6  A    between atoms: C_24  and  C_25
REMARK    7  A    between atoms: C_25  and  C_27
REMARK    8  A    between atoms: C_33  and  C_37
REMARK                            x       y       z     vdW  Elec       q    Type
REMARK                         _______ _______ _______ _____ _____    ______ ____
ROOT
ATOM      1  N   UNL     1      34.969 -20.114 -19.287  0.00  0.00    +0.389 N 
ATOM      2  N   UNL     1      34.365 -18.066 -21.183  0.00  0.00    -0.312 N 
ATOM      3  C   UNL     1      36.050 -19.385 -19.961  0.00  0.00    -0.055 C 
ATOM      4  C   UNL     1      33.821 -20.253 -20.190  0.00  0.00    -0.055 C 
ATOM      5  C   UNL     1      35.591 -17.986 -20.380  0.00  0.00    +0.068 C 
ATOM      6  C   UNL     1      33.288 -18.884 -20.618  0.00  0.00    +0.068 C 
ATOM      7  H   UNL     1      34.678 -19.585 -18.464  0.00  0.00    -0.080 HD
ENDROOT
BRANCH   2   9
ATOM      8  O   UNL     1      33.149 -13.700 -24.346  0.00  0.00    -0.449 OA
ATOM      9  C   UNL     1      34.052 -16.983 -22.014  0.00  0.00    +0.048 C 
ATOM     10  C   UNL     1      34.043 -15.663 -21.502  0.00  0.00    +0.018 C 
ATOM     11  C   UNL     1      33.738 -17.189 -23.376  0.00  0.00    +0.018 C 
ATOM     12  C   UNL     1      33.727 -14.587 -22.350  0.00  0.00    +0.039 C 
ATOM     13  C   UNL     1      33.428 -14.857 -23.681  0.00  0.00    +0.146 C 
ATOM     14  C   UNL     1      33.421 -16.134 -24.238  0.00  0.00    +0.039 C 
ATOM     15  C   UNL     1      33.620 -13.179 -22.208  0.00  0.00    +0.045 C 
ATOM     16  C   UNL     1      33.268 -12.689 -23.445  0.00  0.00    +0.198 C 
BRANCH  16  19
ATOM     17  O   UNL     1      33.093 -10.988 -25.095  0.00  0.00    -0.267 OA
ATOM     18  N   UNL     1      32.699 -10.383 -22.944  0.00  0.00    -0.323 N 
ATOM     19  C   UNL     1      33.023 -11.363 -23.897  0.00  0.00    +0.277 C 
ATOM     20  H   UNL     1      32.524  -9.457 -23.229  0.00  0.00    +0.145 HD
ATOM     21  H   UNL     1      32.646 -10.622 -21.990  0.00  0.00    +0.145 HD
ENDBRANCH  16  19
ENDBRANCH   2   9
BRANCH   1  22
ATOM     22  C   UNL     1      35.436 -21.427 -18.843  0.00  0.00    -0.077 C 
BRANCH  22  23
ATOM     23  C   UNL     1      35.042 -21.665 -17.386  0.00  0.00    -0.022 C 
BRANCH  23  24
ATOM     24  C   UNL     1      36.148 -21.208 -16.433  0.00  0.00    +0.003 C 
BRANCH  24  25
ATOM     25  C   UNL     1      35.864 -21.651 -14.994  0.00  0.00    +0.028 C 
BRANCH  25  27
ATOM     26  N   UNL     1      38.229 -24.407 -14.608  0.00  0.00    -0.312 N 
ATOM     27  C   UNL     1      36.702 -22.825 -14.584  0.00  0.00    -0.006 C 
ATOM     28  C   UNL     1      36.573 -23.550 -13.382  0.00  0.00    +0.011 C 
ATOM     29  C   UNL     1      37.716 -23.357 -15.323  0.00  0.00    +0.058 C 
ATOM     30  C   UNL     1      37.551 -24.547 -13.418  0.00  0.00    +0.048 C 
ATOM     31  C   UNL     1      35.728 -23.469 -12.257  0.00  0.00    +0.011 C 
ATOM     32  C   UNL     1      37.724 -25.472 -12.382  0.00  0.00    +0.015 C 
ATOM     33  C   UNL     1      35.891 -24.387 -11.213  0.00  0.00    +0.069 C 
ATOM     34  C   UNL     1      36.874 -25.372 -11.276  0.00  0.00    +0.012 C 
ATOM     35  H   UNL     1      38.975 -24.978 -14.902  0.00  0.00    +0.152 HD
BRANCH  33  37
ATOM     36  N   UNL     1      34.343 -24.251  -9.140  0.00  0.00    -0.191 NA
ATOM     37  C   UNL     1      35.036 -24.312 -10.069  0.00  0.00    +0.100 C 
ENDBRANCH  33  37
ENDBRANCH  25  27
ENDBRANCH  24  25
ENDBRANCH  23  24
ENDBRANCH  22  23
ENDBRANCH   1  22
TORSDOF 8
ENDMDL
