MODEL 1
REMARK VINA RESULT:     -12.6      0.000      0.000
REMARK  Name = 25023705
REMARK  6 active torsions:
REMARK  status: ('A' for Active; 'I' for Inactive)
REMARK    1  A    between atoms: C_1  and  C_8
REMARK    2  A    between atoms: C_1  and  C_20
REMARK    3  A    between atoms: C_20  and  N_22
REMARK    4  A    between atoms: C_23  and  C_25
REMARK    5  A    between atoms: C_30  and  O_31
REMARK    6  A    between atoms: O_31  and  C_32
REMARK                            x       y       z     vdW  Elec       q    Type
REMARK                         _______ _______ _______ _____ _____    ______ ____
ROOT
ATOM      1  C   UNL     1      31.522 -23.504 -14.245  0.00  0.00    +0.066 C 
ATOM      2  C   UNL     1      31.035 -22.039 -14.121  0.00  0.00    +0.009 C 
ATOM      3  C   UNL     1      30.412 -24.389 -13.629  0.00  0.00    +0.009 C 
ENDROOT
BRANCH   1   8
ATOM      4  N   UNL     1      33.955 -23.883 -14.334  0.00  0.00    -0.347 NA
ATOM      5  N   UNL     1      36.231 -24.251 -14.549  0.00  0.00    -0.266 NA
ATOM      6  N   UNL     1      37.691 -24.261 -12.634  0.00  0.00    -0.316 NA
ATOM      7  N   UNL     1      38.535 -24.627 -14.787  0.00  0.00    -0.283 N 
ATOM      8  C   UNL     1      32.886 -23.631 -13.540  0.00  0.00    +0.122 C 
ATOM      9  C   UNL     1      32.955 -23.490 -12.170  0.00  0.00    +0.026 C 
ATOM     10  C   UNL     1      34.203 -23.614 -11.585  0.00  0.00    +0.001 C 
ATOM     11  C   UNL     1      35.167 -24.004 -13.775  0.00  0.00    +0.137 C 
ATOM     12  C   UNL     1      35.321 -23.874 -12.391  0.00  0.00    +0.199 C 
ATOM     13  C   UNL     1      36.609 -24.012 -11.877  0.00  0.00    +0.187 C 
ATOM     14  C   UNL     1      37.432 -24.366 -13.945  0.00  0.00    +0.207 C 
ATOM     15  H   UNL     1      38.403 -24.715 -15.758  0.00  0.00    +0.156 HD
ATOM     16  H   UNL     1      39.437 -24.721 -14.401  0.00  0.00    +0.156 HD
ATOM     17  N   UNL     1      36.818 -23.889 -10.481  0.00  0.00    -0.334 N 
ATOM     18  H   UNL     1      37.725 -23.985 -10.109  0.00  0.00    +0.144 HD
ATOM     19  H   UNL     1      36.058 -23.707  -9.883  0.00  0.00    +0.144 HD
ENDBRANCH   1   8
BRANCH   1  20
ATOM     20  C   UNL     1      31.646 -23.847 -15.756  0.00  0.00    +0.096 C 
BRANCH  20  22
ATOM     21  O   UNL     1      32.726 -24.099 -18.404  0.00  0.00    -0.270 OA
ATOM     22  N   UNL     1      32.240 -22.800 -16.546  0.00  0.00    -0.300 N 
ATOM     23  C   UNL     1      32.739 -23.017 -17.824  0.00  0.00    +0.246 C 
ATOM     24  H   UNL     1      32.296 -21.894 -16.164  0.00  0.00    +0.150 HD
BRANCH  23  25
ATOM     25  C   UNL     1      33.345 -21.839 -18.496  0.00  0.00    +0.054 C 
ATOM     26  C   UNL     1      34.728 -21.659 -18.473  0.00  0.00    +0.008 C 
ATOM     27  C   UNL     1      32.530 -20.914 -19.149  0.00  0.00    +0.008 C 
ATOM     28  C   UNL     1      35.296 -20.551 -19.103  0.00  0.00    +0.038 C 
ATOM     29  C   UNL     1      33.100 -19.807 -19.779  0.00  0.00    +0.038 C 
ATOM     30  C   UNL     1      34.482 -19.626 -19.755  0.00  0.00    +0.145 C 
BRANCH  30  31
ATOM     31  O   UNL     1      35.037 -18.545 -20.368  0.00  0.00    -0.453 OA
BRANCH  31  32
ATOM     32  C   UNL     1      34.495 -18.142 -21.577  0.00  0.00    +0.145 C 
ATOM     33  C   UNL     1      34.391 -16.783 -21.876  0.00  0.00    +0.037 C 
ATOM     34  C   UNL     1      34.052 -19.094 -22.495  0.00  0.00    +0.037 C 
ATOM     35  C   UNL     1      33.844 -16.376 -23.093  0.00  0.00    +0.003 C 
ATOM     36  C   UNL     1      33.505 -18.687 -23.713  0.00  0.00    +0.003 C 
ATOM     37  C   UNL     1      33.401 -17.329 -24.011  0.00  0.00    +0.000 C 
ENDBRANCH  31  32
ENDBRANCH  30  31
ENDBRANCH  23  25
ENDBRANCH  20  22
ENDBRANCH   1  20
TORSDOF 6
ENDMDL
MODEL 2
REMARK VINA RESULT:     -11.8      0.971      2.178
REMARK  Name = 25023705
REMARK  6 active torsions:
REMARK  status: ('A' for Active; 'I' for Inactive)
REMARK    1  A    between atoms: C_1  and  C_8
REMARK    2  A    between atoms: C_1  and  C_20
REMARK    3  A    between atoms: C_20  and  N_22
REMARK    4  A    between atoms: C_23  and  C_25
REMARK    5  A    between atoms: C_30  and  O_31
REMARK    6  A    between atoms: O_31  and  C_32
REMARK                            x       y       z     vdW  Elec       q    Type
REMARK                         _______ _______ _______ _____ _____    ______ ____
ROOT
ATOM      1  C   UNL     1      31.091 -23.338 -14.438  0.00  0.00    +0.066 C 
ATOM      2  C   UNL     1      30.847 -21.832 -14.176  0.00  0.00    +0.009 C 
ATOM      3  C   UNL     1      29.912 -24.095 -13.779  0.00  0.00    +0.009 C 
ENDROOT
BRANCH   1   8
ATOM      4  N   UNL     1      32.636 -23.578 -12.534  0.00  0.00    -0.347 NA
ATOM      5  N   UNL     1      33.990 -23.760 -10.665  0.00  0.00    -0.266 NA
ATOM      6  N   UNL     1      36.260 -24.548 -10.828  0.00  0.00    -0.316 NA
ATOM      7  N   UNL     1      35.349 -23.938  -8.759  0.00  0.00    -0.283 N 
ATOM      8  C   UNL     1      32.472 -23.721 -13.872  0.00  0.00    +0.122 C 
ATOM      9  C   UNL     1      33.452 -24.176 -14.728  0.00  0.00    +0.026 C 
ATOM     10  C   UNL     1      34.675 -24.506 -14.169  0.00  0.00    +0.001 C 
ATOM     11  C   UNL     1      33.816 -23.896 -11.985  0.00  0.00    +0.137 C 
ATOM     12  C   UNL     1      34.863 -24.365 -12.786  0.00  0.00    +0.199 C 
ATOM     13  C   UNL     1      36.063 -24.676 -12.151  0.00  0.00    +0.187 C 
ATOM     14  C   UNL     1      35.195 -24.091 -10.154  0.00  0.00    +0.207 C 
ATOM     15  H   UNL     1      34.599 -23.605  -8.215  0.00  0.00    +0.156 HD
ATOM     16  H   UNL     1      36.206 -24.164  -8.331  0.00  0.00    +0.156 HD
ATOM     17  N   UNL     1      37.153 -25.156 -12.918  0.00  0.00    -0.334 N 
ATOM     18  H   UNL     1      38.005 -25.378 -12.476  0.00  0.00    +0.144 HD
ATOM     19  H   UNL     1      37.059 -25.267 -13.891  0.00  0.00    +0.144 HD
ENDBRANCH   1   8
BRANCH   1  20
ATOM     20  C   UNL     1      31.036 -23.578 -15.973  0.00  0.00    +0.096 C 
BRANCH  20  22
ATOM     21  O   UNL     1      32.712 -24.057 -18.254  0.00  0.00    -0.270 OA
ATOM     22  N   UNL     1      31.743 -22.588 -16.743  0.00  0.00    -0.300 N 
ATOM     23  C   UNL     1      32.535 -22.916 -17.837  0.00  0.00    +0.246 C 
ATOM     24  H   UNL     1      31.663 -21.641 -16.485  0.00  0.00    +0.150 HD
BRANCH  23  25
ATOM     25  C   UNL     1      33.220 -21.782 -18.509  0.00  0.00    +0.054 C 
ATOM     26  C   UNL     1      32.474 -20.825 -19.196  0.00  0.00    +0.008 C 
ATOM     27  C   UNL     1      34.611 -21.676 -18.452  0.00  0.00    +0.008 C 
ATOM     28  C   UNL     1      33.119 -19.761 -19.827  0.00  0.00    +0.038 C 
ATOM     29  C   UNL     1      35.254 -20.611 -19.083  0.00  0.00    +0.038 C 
ATOM     30  C   UNL     1      34.508 -19.655 -19.771  0.00  0.00    +0.145 C 
BRANCH  30  31
ATOM     31  O   UNL     1      35.137 -18.618 -20.389  0.00  0.00    -0.453 OA
BRANCH  31  32
ATOM     32  C   UNL     1      34.573 -18.126 -21.555  0.00  0.00    +0.145 C 
ATOM     33  C   UNL     1      34.430 -16.750 -21.732  0.00  0.00    +0.037 C 
ATOM     34  C   UNL     1      34.147 -19.006 -22.550  0.00  0.00    +0.037 C 
ATOM     35  C   UNL     1      33.862 -16.253 -22.906  0.00  0.00    +0.003 C 
ATOM     36  C   UNL     1      33.578 -18.509 -23.723  0.00  0.00    +0.003 C 
ATOM     37  C   UNL     1      33.435 -17.133 -23.900  0.00  0.00    +0.000 C 
ENDBRANCH  31  32
ENDBRANCH  30  31
ENDBRANCH  23  25
ENDBRANCH  20  22
ENDBRANCH   1  20
TORSDOF 6
ENDMDL
MODEL 3
REMARK VINA RESULT:     -11.7      2.378      4.828
REMARK  Name = 25023705
REMARK  6 active torsions:
REMARK  status: ('A' for Active; 'I' for Inactive)
REMARK    1  A    between atoms: C_1  and  C_8
REMARK    2  A    between atoms: C_1  and  C_20
REMARK    3  A    between atoms: C_20  and  N_22
REMARK    4  A    between atoms: C_23  and  C_25
REMARK    5  A    between atoms: C_30  and  O_31
REMARK    6  A    between atoms: O_31  and  C_32
REMARK                            x       y       z     vdW  Elec       q    Type
REMARK                         _______ _______ _______ _____ _____    ______ ____
ROOT
ATOM      1  C   UNL     1      33.146 -22.096 -18.187  0.00  0.00    +0.066 C 
ATOM      2  C   UNL     1      31.840 -21.307 -18.445  0.00  0.00    +0.009 C 
ATOM      3  C   UNL     1      33.120 -23.312 -19.145  0.00  0.00    +0.009 C 
ENDROOT
BRANCH   1   8
ATOM      4  N   UNL     1      32.076 -22.997 -16.160  0.00  0.00    -0.347 NA
ATOM      5  N   UNL     1      30.959 -23.863 -14.325  0.00  0.00    -0.266 NA
ATOM      6  N   UNL     1      32.037 -24.079 -12.183  0.00  0.00    -0.316 NA
ATOM      7  N   UNL     1      29.810 -24.742 -12.477  0.00  0.00    -0.283 N 
ATOM      8  C   UNL     1      33.207 -22.478 -16.695  0.00  0.00    +0.122 C 
ATOM      9  C   UNL     1      34.376 -22.277 -15.993  0.00  0.00    +0.026 C 
ATOM     10  C   UNL     1      34.377 -22.636 -14.656  0.00  0.00    +0.001 C 
ATOM     11  C   UNL     1      32.070 -23.348 -14.866  0.00  0.00    +0.137 C 
ATOM     12  C   UNL     1      33.217 -23.176 -14.084  0.00  0.00    +0.199 C 
ATOM     13  C   UNL     1      33.141 -23.561 -12.747  0.00  0.00    +0.187 C 
ATOM     14  C   UNL     1      30.996 -24.201 -13.019  0.00  0.00    +0.207 C 
ATOM     15  H   UNL     1      29.015 -24.854 -13.046  0.00  0.00    +0.156 HD
ATOM     16  H   UNL     1      29.779 -25.007 -11.529  0.00  0.00    +0.156 HD
ATOM     17  N   UNL     1      34.275 -23.408 -11.913  0.00  0.00    -0.334 N 
ATOM     18  H   UNL     1      34.230 -23.676 -10.966  0.00  0.00    +0.144 HD
ATOM     19  H   UNL     1      35.108 -23.032 -12.278  0.00  0.00    +0.144 HD
ENDBRANCH   1   8
BRANCH   1  20
ATOM     20  C   UNL     1      34.346 -21.187 -18.576  0.00  0.00    +0.096 C 
BRANCH  20  22
ATOM     21  O   UNL     1      36.072 -19.142 -19.615  0.00  0.00    -0.270 OA
ATOM     22  N   UNL     1      34.097 -20.353 -19.723  0.00  0.00    -0.300 N 
ATOM     23  C   UNL     1      34.995 -19.385 -20.153  0.00  0.00    +0.246 C 
ATOM     24  H   UNL     1      33.256 -20.473 -20.222  0.00  0.00    +0.150 HD
BRANCH  23  25
ATOM     25  C   UNL     1      34.578 -18.588 -21.336  0.00  0.00    +0.054 C 
ATOM     26  C   UNL     1      34.982 -17.260 -21.460  0.00  0.00    +0.008 C 
ATOM     27  C   UNL     1      33.781 -19.172 -22.322  0.00  0.00    +0.008 C 
ATOM     28  C   UNL     1      34.589 -16.513 -22.571  0.00  0.00    +0.038 C 
ATOM     29  C   UNL     1      33.389 -18.424 -23.433  0.00  0.00    +0.038 C 
ATOM     30  C   UNL     1      33.792 -17.095 -23.556  0.00  0.00    +0.145 C 
BRANCH  30  31
ATOM     31  O   UNL     1      33.407 -16.365 -24.639  0.00  0.00    -0.453 OA
BRANCH  31  32
ATOM     32  C   UNL     1      33.195 -15.009 -24.459  0.00  0.00    +0.145 C 
ATOM     33  C   UNL     1      33.484 -14.415 -23.230  0.00  0.00    +0.037 C 
ATOM     34  C   UNL     1      32.690 -14.236 -25.505  0.00  0.00    +0.037 C 
ATOM     35  C   UNL     1      33.270 -13.049 -23.047  0.00  0.00    +0.003 C 
ATOM     36  C   UNL     1      32.476 -12.870 -25.322  0.00  0.00    +0.003 C 
ATOM     37  C   UNL     1      32.765 -12.277 -24.094  0.00  0.00    +0.000 C 
ENDBRANCH  31  32
ENDBRANCH  30  31
ENDBRANCH  23  25
ENDBRANCH  20  22
ENDBRANCH   1  20
TORSDOF 6
ENDMDL
MODEL 4
REMARK VINA RESULT:     -11.5      5.119      8.587
REMARK  Name = 25023705
REMARK  6 active torsions:
REMARK  status: ('A' for Active; 'I' for Inactive)
REMARK    1  A    between atoms: C_1  and  C_8
REMARK    2  A    between atoms: C_1  and  C_20
REMARK    3  A    between atoms: C_20  and  N_22
REMARK    4  A    between atoms: C_23  and  C_25
REMARK    5  A    between atoms: C_30  and  O_31
REMARK    6  A    between atoms: O_31  and  C_32
REMARK                            x       y       z     vdW  Elec       q    Type
REMARK                         _______ _______ _______ _____ _____    ______ ____
ROOT
ATOM      1  C   UNL     1      34.446 -18.451 -21.748  0.00  0.00    +0.066 C 
ATOM      2  C   UNL     1      33.194 -18.067 -22.574  0.00  0.00    +0.009 C 
ATOM      3  C   UNL     1      35.457 -19.068 -22.746  0.00  0.00    +0.009 C 
ENDROOT
BRANCH   1   8
ATOM      4  N   UNL     1      34.991 -19.807 -19.765  0.00  0.00    -0.347 NA
ATOM      5  N   UNL     1      35.629 -21.040 -17.912  0.00  0.00    -0.266 NA
ATOM      6  N   UNL     1      34.046 -22.373 -16.681  0.00  0.00    -0.316 NA
ATOM      7  N   UNL     1      36.295 -22.284 -16.035  0.00  0.00    -0.283 N 
ATOM      8  C   UNL     1      34.018 -19.410 -20.620  0.00  0.00    +0.122 C 
ATOM      9  C   UNL     1      32.702 -19.810 -20.535  0.00  0.00    +0.026 C 
ATOM     10  C   UNL     1      32.370 -20.672 -19.505  0.00  0.00    +0.001 C 
ATOM     11  C   UNL     1      34.678 -20.641 -18.764  0.00  0.00    +0.137 C 
ATOM     12  C   UNL     1      33.363 -21.094 -18.609  0.00  0.00    +0.199 C 
ATOM     13  C   UNL     1      33.106 -21.959 -17.548  0.00  0.00    +0.187 C 
ATOM     14  C   UNL     1      35.270 -21.880 -16.919  0.00  0.00    +0.207 C 
ATOM     15  H   UNL     1      37.213 -21.953 -16.164  0.00  0.00    +0.156 HD
ATOM     16  H   UNL     1      36.091 -22.897 -15.292  0.00  0.00    +0.156 HD
ATOM     17  N   UNL     1      31.791 -22.445 -17.348  0.00  0.00    -0.334 N 
ATOM     18  H   UNL     1      31.601 -23.058 -16.600  0.00  0.00    +0.144 HD
ATOM     19  H   UNL     1      31.067 -22.172 -17.956  0.00  0.00    +0.144 HD
ENDBRANCH   1   8
BRANCH   1  20
ATOM     20  C   UNL     1      35.062 -17.148 -21.165  0.00  0.00    +0.096 C 
BRANCH  20  22
ATOM     21  O   UNL     1      34.578 -14.878 -22.853  0.00  0.00    -0.270 OA
ATOM     22  N   UNL     1      34.100 -16.100 -20.941  0.00  0.00    -0.300 N 
ATOM     23  C   UNL     1      33.937 -15.035 -21.818  0.00  0.00    +0.246 C 
ATOM     24  H   UNL     1      33.537 -16.139 -20.134  0.00  0.00    +0.150 HD
BRANCH  23  25
ATOM     25  C   UNL     1      32.921 -14.022 -21.431  0.00  0.00    +0.054 C 
ATOM     26  C   UNL     1      32.514 -13.056 -22.350  0.00  0.00    +0.008 C 
ATOM     27  C   UNL     1      32.378 -14.037 -20.145  0.00  0.00    +0.008 C 
ATOM     28  C   UNL     1      31.561 -12.105 -21.985  0.00  0.00    +0.038 C 
ATOM     29  C   UNL     1      31.426 -13.085 -19.781  0.00  0.00    +0.038 C 
ATOM     30  C   UNL     1      31.018 -12.119 -20.701  0.00  0.00    +0.145 C 
BRANCH  30  31
ATOM     31  O   UNL     1      30.091 -11.189 -20.344  0.00  0.00    -0.453 OA
BRANCH  31  32
ATOM     32  C   UNL     1      30.505  -9.871 -20.247  0.00  0.00    +0.145 C 
ATOM     33  C   UNL     1      31.025  -9.390 -19.046  0.00  0.00    +0.037 C 
ATOM     34  C   UNL     1      30.400  -9.023 -21.351  0.00  0.00    +0.037 C 
ATOM     35  C   UNL     1      31.441  -8.062 -18.947  0.00  0.00    +0.003 C 
ATOM     36  C   UNL     1      30.816  -7.696 -21.252  0.00  0.00    +0.003 C 
ATOM     37  C   UNL     1      31.336  -7.215 -20.050  0.00  0.00    +0.000 C 
ENDBRANCH  31  32
ENDBRANCH  30  31
ENDBRANCH  23  25
ENDBRANCH  20  22
ENDBRANCH   1  20
TORSDOF 6
ENDMDL
MODEL 5
REMARK VINA RESULT:     -11.5      4.923     10.937
REMARK  Name = 25023705
REMARK  6 active torsions:
REMARK  status: ('A' for Active; 'I' for Inactive)
REMARK    1  A    between atoms: C_1  and  C_8
REMARK    2  A    between atoms: C_1  and  C_20
REMARK    3  A    between atoms: C_20  and  N_22
REMARK    4  A    between atoms: C_23  and  C_25
REMARK    5  A    between atoms: C_30  and  O_31
REMARK    6  A    between atoms: O_31  and  C_32
REMARK                            x       y       z     vdW  Elec       q    Type
REMARK                         _______ _______ _______ _____ _____    ______ ____
ROOT
ATOM      1  C   UNL     1      34.584 -18.871 -21.500  0.00  0.00    +0.066 C 
ATOM      2  C   UNL     1      36.002 -18.895 -20.879  0.00  0.00    +0.009 C 
ATOM      3  C   UNL     1      34.663 -19.697 -22.807  0.00  0.00    +0.009 C 
ENDROOT
BRANCH   1   8
ATOM      4  N   UNL     1      33.795 -17.059 -22.972  0.00  0.00    -0.347 NA
ATOM      5  N   UNL     1      33.051 -15.444 -24.455  0.00  0.00    -0.266 NA
ATOM      6  N   UNL     1      32.639 -13.180 -23.747  0.00  0.00    -0.316 NA
ATOM      7  N   UNL     1      32.298 -13.820 -25.973  0.00  0.00    -0.283 N 
ATOM      8  C   UNL     1      34.164 -17.403 -21.714  0.00  0.00    +0.122 C 
ATOM      9  C   UNL     1      34.184 -16.532 -20.647  0.00  0.00    +0.026 C 
ATOM     10  C   UNL     1      33.798 -15.225 -20.892  0.00  0.00    +0.001 C 
ATOM     11  C   UNL     1      33.419 -15.797 -23.217  0.00  0.00    +0.137 C 
ATOM     12  C   UNL     1      33.412 -14.850 -22.187  0.00  0.00    +0.199 C 
ATOM     13  C   UNL     1      33.012 -13.556 -22.512  0.00  0.00    +0.187 C 
ATOM     14  C   UNL     1      32.682 -14.162 -24.658  0.00  0.00    +0.207 C 
ATOM     15  H   UNL     1      32.312 -14.502 -26.682  0.00  0.00    +0.156 HD
ATOM     16  H   UNL     1      32.019 -12.898 -26.180  0.00  0.00    +0.156 HD
ATOM     17  N   UNL     1      32.986 -12.561 -21.503  0.00  0.00    -0.334 N 
ATOM     18  H   UNL     1      32.705 -11.644 -21.724  0.00  0.00    +0.144 HD
ATOM     19  H   UNL     1      33.251 -12.786 -20.582  0.00  0.00    +0.144 HD
ENDBRANCH   1   8
BRANCH   1  20
ATOM     20  C   UNL     1      33.613 -19.588 -20.521  0.00  0.00    +0.096 C 
BRANCH  20  22
ATOM     21  O   UNL     1      33.068 -22.036 -19.124  0.00  0.00    -0.270 OA
ATOM     22  N   UNL     1      34.241 -20.044 -19.308  0.00  0.00    -0.300 N 
ATOM     23  C   UNL     1      33.910 -21.249 -18.701  0.00  0.00    +0.246 C 
ATOM     24  H   UNL     1      34.932 -19.479 -18.891  0.00  0.00    +0.150 HD
BRANCH  23  25
ATOM     25  C   UNL     1      34.630 -21.562 -17.440  0.00  0.00    +0.054 C 
ATOM     26  C   UNL     1      33.976 -22.246 -16.415  0.00  0.00    +0.008 C 
ATOM     27  C   UNL     1      35.960 -21.171 -17.281  0.00  0.00    +0.008 C 
ATOM     28  C   UNL     1      34.652 -22.538 -15.231  0.00  0.00    +0.038 C 
ATOM     29  C   UNL     1      36.636 -21.464 -16.096  0.00  0.00    +0.038 C 
ATOM     30  C   UNL     1      35.981 -22.147 -15.071  0.00  0.00    +0.145 C 
BRANCH  30  31
ATOM     31  O   UNL     1      36.640 -22.431 -13.915  0.00  0.00    -0.453 OA
BRANCH  31  32
ATOM     32  C   UNL     1      36.537 -23.718 -13.414  0.00  0.00    +0.145 C 
ATOM     33  C   UNL     1      37.010 -24.796 -14.162  0.00  0.00    +0.037 C 
ATOM     34  C   UNL     1      35.960 -23.937 -12.163  0.00  0.00    +0.037 C 
ATOM     35  C   UNL     1      36.906 -26.093 -13.660  0.00  0.00    +0.003 C 
ATOM     36  C   UNL     1      35.856 -25.234 -11.661  0.00  0.00    +0.003 C 
ATOM     37  C   UNL     1      36.329 -26.312 -12.409  0.00  0.00    +0.000 C 
ENDBRANCH  31  32
ENDBRANCH  30  31
ENDBRANCH  23  25
ENDBRANCH  20  22
ENDBRANCH   1  20
TORSDOF 6
ENDMDL
MODEL 6
REMARK VINA RESULT:     -11.4      4.978     11.047
REMARK  Name = 25023705
REMARK  6 active torsions:
REMARK  status: ('A' for Active; 'I' for Inactive)
REMARK    1  A    between atoms: C_1  and  C_8
REMARK    2  A    between atoms: C_1  and  C_20
REMARK    3  A    between atoms: C_20  and  N_22
REMARK    4  A    between atoms: C_23  and  C_25
REMARK    5  A    between atoms: C_30  and  O_31
REMARK    6  A    between atoms: O_31  and  C_32
REMARK                            x       y       z     vdW  Elec       q    Type
REMARK                         _______ _______ _______ _____ _____    ______ ____
ROOT
ATOM      1  C   UNL     1      34.865 -18.307 -21.297  0.00  0.00    +0.066 C 
ATOM      2  C   UNL     1      34.922 -17.663 -19.890  0.00  0.00    +0.009 C 
ATOM      3  C   UNL     1      36.323 -18.669 -21.672  0.00  0.00    +0.009 C 
ENDROOT
BRANCH   1   8
ATOM      4  N   UNL     1      34.340 -15.998 -21.977  0.00  0.00    -0.347 NA
ATOM      5  N   UNL     1      33.914 -13.786 -22.510  0.00  0.00    -0.266 NA
ATOM      6  N   UNL     1      32.628 -13.185 -24.455  0.00  0.00    -0.316 NA
ATOM      7  N   UNL     1      33.493 -11.537 -23.035  0.00  0.00    -0.283 N 
ATOM      8  C   UNL     1      34.199 -17.314 -22.268  0.00  0.00    +0.122 C 
ATOM      9  C   UNL     1      33.507 -17.796 -23.359  0.00  0.00    +0.026 C 
ATOM     10  C   UNL     1      32.927 -16.863 -24.200  0.00  0.00    +0.001 C 
ATOM     11  C   UNL     1      33.782 -15.089 -22.787  0.00  0.00    +0.137 C 
ATOM     12  C   UNL     1      33.062 -15.497 -23.916  0.00  0.00    +0.199 C 
ATOM     13  C   UNL     1      32.507 -14.499 -24.714  0.00  0.00    +0.187 C 
ATOM     14  C   UNL     1      33.335 -12.904 -23.352  0.00  0.00    +0.207 C 
ATOM     15  H   UNL     1      34.002 -11.273 -22.235  0.00  0.00    +0.156 HD
ATOM     16  H   UNL     1      33.091 -10.848 -23.614  0.00  0.00    +0.156 HD
ATOM     17  N   UNL     1      31.770 -14.860 -25.868  0.00  0.00    -0.334 N 
ATOM     18  H   UNL     1      31.374 -14.161 -26.438  0.00  0.00    +0.144 HD
ATOM     19  H   UNL     1      31.653 -15.809 -26.101  0.00  0.00    +0.144 HD
ENDBRANCH   1   8
BRANCH   1  20
ATOM     20  C   UNL     1      34.041 -19.621 -21.195  0.00  0.00    +0.096 C 
BRANCH  20  22
ATOM     21  O   UNL     1      31.947 -20.907 -19.711  0.00  0.00    -0.270 OA
ATOM     22  N   UNL     1      34.174 -20.295 -19.929  0.00  0.00    -0.300 N 
ATOM     23  C   UNL     1      33.098 -20.891 -19.283  0.00  0.00    +0.246 C 
ATOM     24  H   UNL     1      35.062 -20.335 -19.505  0.00  0.00    +0.150 HD
BRANCH  23  25
ATOM     25  C   UNL     1      33.395 -21.522 -17.971  0.00  0.00    +0.054 C 
ATOM     26  C   UNL     1      32.389 -22.194 -17.277  0.00  0.00    +0.008 C 
ATOM     27  C   UNL     1      34.680 -21.441 -17.434  0.00  0.00    +0.008 C 
ATOM     28  C   UNL     1      32.669 -22.786 -16.045  0.00  0.00    +0.038 C 
ATOM     29  C   UNL     1      34.959 -22.033 -16.202  0.00  0.00    +0.038 C 
ATOM     30  C   UNL     1      33.953 -22.704 -15.507  0.00  0.00    +0.145 C 
BRANCH  30  31
ATOM     31  O   UNL     1      34.225 -23.279 -14.304  0.00  0.00    -0.453 OA
BRANCH  31  32
ATOM     32  C   UNL     1      35.300 -24.149 -14.234  0.00  0.00    +0.145 C 
ATOM     33  C   UNL     1      36.590 -23.649 -14.057  0.00  0.00    +0.037 C 
ATOM     34  C   UNL     1      35.093 -25.525 -14.343  0.00  0.00    +0.037 C 
ATOM     35  C   UNL     1      37.674 -24.525 -13.988  0.00  0.00    +0.003 C 
ATOM     36  C   UNL     1      36.177 -26.400 -14.274  0.00  0.00    +0.003 C 
ATOM     37  C   UNL     1      37.467 -25.900 -14.097  0.00  0.00    +0.000 C 
ENDBRANCH  31  32
ENDBRANCH  30  31
ENDBRANCH  23  25
ENDBRANCH  20  22
ENDBRANCH   1  20
TORSDOF 6
ENDMDL
MODEL 7
REMARK VINA RESULT:     -11.3      9.012     13.674
REMARK  Name = 25023705
REMARK  6 active torsions:
REMARK  status: ('A' for Active; 'I' for Inactive)
REMARK    1  A    between atoms: C_1  and  C_8
REMARK    2  A    between atoms: C_1  and  C_20
REMARK    3  A    between atoms: C_20  and  N_22
REMARK    4  A    between atoms: C_23  and  C_25
REMARK    5  A    between atoms: C_30  and  O_31
REMARK    6  A    between atoms: O_31  and  C_32
REMARK                            x       y       z     vdW  Elec       q    Type
REMARK                         _______ _______ _______ _____ _____    ______ ____
ROOT
ATOM      1  C   UNL     1      30.892 -11.131 -20.395  0.00  0.00    +0.066 C 
ATOM      2  C   UNL     1      29.392 -11.452 -20.599  0.00  0.00    +0.009 C 
ATOM      3  C   UNL     1      31.355 -11.961 -19.172  0.00  0.00    +0.009 C 
ENDROOT
BRANCH   1   8
ATOM      4  N   UNL     1      31.151  -8.874 -21.346  0.00  0.00    -0.347 NA
ATOM      5  N   UNL     1      31.389  -6.807 -22.362  0.00  0.00    -0.266 NA
ATOM      6  N   UNL     1      31.586  -4.785 -21.069  0.00  0.00    -0.316 NA
ATOM      7  N   UNL     1      31.630  -4.720 -23.410  0.00  0.00    -0.283 N 
ATOM      8  C   UNL     1      31.052  -9.610 -20.213  0.00  0.00    +0.122 C 
ATOM      9  C   UNL     1      31.088  -9.081 -18.940  0.00  0.00    +0.026 C 
ATOM     10  C   UNL     1      31.234  -7.708 -18.832  0.00  0.00    +0.001 C 
ATOM     11  C   UNL     1      31.291  -7.545 -21.250  0.00  0.00    +0.137 C 
ATOM     12  C   UNL     1      31.337  -6.930 -19.994  0.00  0.00    +0.199 C 
ATOM     13  C   UNL     1      31.486  -5.545 -19.966  0.00  0.00    +0.187 C 
ATOM     14  C   UNL     1      31.530  -5.472 -22.219  0.00  0.00    +0.207 C 
ATOM     15  H   UNL     1      31.596  -5.174 -24.282  0.00  0.00    +0.156 HD
ATOM     16  H   UNL     1      31.734  -3.742 -23.366  0.00  0.00    +0.156 HD
ATOM     17  N   UNL     1      31.537  -4.875 -18.719  0.00  0.00    -0.334 N 
ATOM     18  H   UNL     1      31.642  -3.896 -18.690  0.00  0.00    +0.144 HD
ATOM     19  H   UNL     1      31.468  -5.388 -17.881  0.00  0.00    +0.144 HD
ENDBRANCH   1   8
BRANCH   1  20
ATOM     20  C   UNL     1      31.669 -11.625 -21.648  0.00  0.00    +0.096 C 
BRANCH  20  22
ATOM     21  O   UNL     1      33.594 -12.863 -23.380  0.00  0.00    -0.270 OA
ATOM     22  N   UNL     1      32.235 -12.941 -21.502  0.00  0.00    -0.300 N 
ATOM     23  C   UNL     1      33.165 -13.458 -22.395  0.00  0.00    +0.246 C 
ATOM     24  H   UNL     1      31.951 -13.496 -20.740  0.00  0.00    +0.150 HD
BRANCH  23  25
ATOM     25  C   UNL     1      33.633 -14.841 -22.120  0.00  0.00    +0.054 C 
ATOM     26  C   UNL     1      33.859 -15.724 -23.175  0.00  0.00    +0.008 C 
ATOM     27  C   UNL     1      33.844 -15.256 -20.804  0.00  0.00    +0.008 C 
ATOM     28  C   UNL     1      34.297 -17.022 -22.916  0.00  0.00    +0.038 C 
ATOM     29  C   UNL     1      34.283 -16.555 -20.545  0.00  0.00    +0.038 C 
ATOM     30  C   UNL     1      34.508 -17.438 -21.601  0.00  0.00    +0.145 C 
BRANCH  30  31
ATOM     31  O   UNL     1      34.933 -18.706 -21.348  0.00  0.00    -0.453 OA
BRANCH  31  32
ATOM     32  C   UNL     1      34.158 -19.489 -20.509  0.00  0.00    +0.145 C 
ATOM     33  C   UNL     1      32.767 -19.415 -20.575  0.00  0.00    +0.037 C 
ATOM     34  C   UNL     1      34.769 -20.351 -19.598  0.00  0.00    +0.037 C 
ATOM     35  C   UNL     1      31.986 -20.203 -19.729  0.00  0.00    +0.003 C 
ATOM     36  C   UNL     1      33.987 -21.139 -18.752  0.00  0.00    +0.003 C 
ATOM     37  C   UNL     1      32.596 -21.065 -18.818  0.00  0.00    +0.000 C 
ENDBRANCH  31  32
ENDBRANCH  30  31
ENDBRANCH  23  25
ENDBRANCH  20  22
ENDBRANCH   1  20
TORSDOF 6
ENDMDL
MODEL 8
REMARK VINA RESULT:     -11.2      8.753     13.605
REMARK  Name = 25023705
REMARK  6 active torsions:
REMARK  status: ('A' for Active; 'I' for Inactive)
REMARK    1  A    between atoms: C_1  and  C_8
REMARK    2  A    between atoms: C_1  and  C_20
REMARK    3  A    between atoms: C_20  and  N_22
REMARK    4  A    between atoms: C_23  and  C_25
REMARK    5  A    between atoms: C_30  and  O_31
REMARK    6  A    between atoms: O_31  and  C_32
REMARK                            x       y       z     vdW  Elec       q    Type
REMARK                         _______ _______ _______ _____ _____    ______ ____
ROOT
ATOM      1  C   UNL     1      31.083 -11.222 -20.669  0.00  0.00    +0.066 C 
ATOM      2  C   UNL     1      29.583 -11.567 -20.504  0.00  0.00    +0.009 C 
ATOM      3  C   UNL     1      31.807 -11.814 -19.435  0.00  0.00    +0.009 C 
ENDROOT
BRANCH   1   8
ATOM      4  N   UNL     1      31.184  -8.981 -19.651  0.00  0.00    -0.347 NA
ATOM      5  N   UNL     1      31.266  -6.932 -18.575  0.00  0.00    -0.266 NA
ATOM      6  N   UNL     1      31.548  -4.878 -19.800  0.00  0.00    -0.316 NA
ATOM      7  N   UNL     1      31.346  -4.864 -17.467  0.00  0.00    -0.283 N 
ATOM      8  C   UNL     1      31.225  -9.693 -20.803  0.00  0.00    +0.122 C 
ATOM      9  C   UNL     1      31.383  -9.136 -22.053  0.00  0.00    +0.026 C 
ATOM     10  C   UNL     1      31.506  -7.759 -22.119  0.00  0.00    +0.001 C 
ATOM     11  C   UNL     1      31.304  -7.647 -19.706  0.00  0.00    +0.137 C 
ATOM     12  C   UNL     1      31.467  -7.004 -20.938  0.00  0.00    +0.199 C 
ATOM     13  C   UNL     1      31.584  -5.616 -20.922  0.00  0.00    +0.187 C 
ATOM     14  C   UNL     1      31.390  -5.592 -18.677  0.00  0.00    +0.207 C 
ATOM     15  H   UNL     1      31.230  -5.338 -16.612  0.00  0.00    +0.156 HD
ATOM     16  H   UNL     1      31.431  -3.883 -17.480  0.00  0.00    +0.156 HD
ATOM     17  N   UNL     1      31.751  -4.918 -22.144  0.00  0.00    -0.334 N 
ATOM     18  H   UNL     1      31.834  -3.937 -22.142  0.00  0.00    +0.144 HD
ATOM     19  H   UNL     1      31.783  -5.413 -22.994  0.00  0.00    +0.144 HD
ENDBRANCH   1   8
BRANCH   1  20
ATOM     20  C   UNL     1      31.609 -11.942 -21.943  0.00  0.00    +0.096 C 
BRANCH  20  22
ATOM     21  O   UNL     1      33.342 -13.402 -23.704  0.00  0.00    -0.270 OA
ATOM     22  N   UNL     1      32.229 -13.214 -21.678  0.00  0.00    -0.300 N 
ATOM     23  C   UNL     1      33.057 -13.847 -22.596  0.00  0.00    +0.246 C 
ATOM     24  H   UNL     1      32.060 -13.652 -20.813  0.00  0.00    +0.150 HD
BRANCH  23  25
ATOM     25  C   UNL     1      33.598 -15.168 -22.183  0.00  0.00    +0.054 C 
ATOM     26  C   UNL     1      33.840 -15.432 -20.835  0.00  0.00    +0.008 C 
ATOM     27  C   UNL     1      33.864 -16.144 -23.145  0.00  0.00    +0.008 C 
ATOM     28  C   UNL     1      34.349 -16.671 -20.448  0.00  0.00    +0.038 C 
ATOM     29  C   UNL     1      34.372 -17.384 -22.757  0.00  0.00    +0.038 C 
ATOM     30  C   UNL     1      34.616 -17.647 -21.409  0.00  0.00    +0.145 C 
BRANCH  30  31
ATOM     31  O   UNL     1      35.114 -18.856 -21.031  0.00  0.00    -0.453 OA
BRANCH  31  32
ATOM     32  C   UNL     1      34.310 -19.668 -20.249  0.00  0.00    +0.145 C 
ATOM     33  C   UNL     1      34.889 -20.566 -19.353  0.00  0.00    +0.037 C 
ATOM     34  C   UNL     1      32.921 -19.589 -20.359  0.00  0.00    +0.037 C 
ATOM     35  C   UNL     1      34.080 -21.386 -18.566  0.00  0.00    +0.003 C 
ATOM     36  C   UNL     1      32.112 -20.408 -19.572  0.00  0.00    +0.003 C 
ATOM     37  C   UNL     1      32.691 -21.307 -18.676  0.00  0.00    +0.000 C 
ENDBRANCH  31  32
ENDBRANCH  30  31
ENDBRANCH  23  25
ENDBRANCH  20  22
ENDBRANCH   1  20
TORSDOF 6
ENDMDL
MODEL 9
REMARK VINA RESULT:     -11.2     10.363     15.774
REMARK  Name = 25023705
REMARK  6 active torsions:
REMARK  status: ('A' for Active; 'I' for Inactive)
REMARK    1  A    between atoms: C_1  and  C_8
REMARK    2  A    between atoms: C_1  and  C_20
REMARK    3  A    between atoms: C_20  and  N_22
REMARK    4  A    between atoms: C_23  and  C_25
REMARK    5  A    between atoms: C_30  and  O_31
REMARK    6  A    between atoms: O_31  and  C_32
REMARK                            x       y       z     vdW  Elec       q    Type
REMARK                         _______ _______ _______ _____ _____    ______ ____
ROOT
ATOM      1  C   UNL     1      31.257  -7.330 -21.040  0.00  0.00    +0.066 C 
ATOM      2  C   UNL     1      30.270  -6.234 -20.570  0.00  0.00    +0.009 C 
ATOM      3  C   UNL     1      32.232  -7.576 -19.863  0.00  0.00    +0.009 C 
ENDROOT
BRANCH   1   8
ATOM      4  N   UNL     1      31.214  -6.926 -23.470  0.00  0.00    -0.347 NA
ATOM      5  N   UNL     1      31.049  -6.591 -25.755  0.00  0.00    -0.266 NA
ATOM      6  N   UNL     1      32.883  -5.695 -27.032  0.00  0.00    -0.316 NA
ATOM      7  N   UNL     1      30.862  -6.259 -28.071  0.00  0.00    -0.283 N 
ATOM      8  C   UNL     1      31.947  -6.852 -22.332  0.00  0.00    +0.122 C 
ATOM      9  C   UNL     1      33.242  -6.384 -22.275  0.00  0.00    +0.026 C 
ATOM     10  C   UNL     1      33.816  -5.968 -23.463  0.00  0.00    +0.001 C 
ATOM     11  C   UNL     1      31.762  -6.524 -24.624  0.00  0.00    +0.137 C 
ATOM     12  C   UNL     1      33.074  -6.036 -24.651  0.00  0.00    +0.199 C 
ATOM     13  C   UNL     1      33.581  -5.636 -25.885  0.00  0.00    +0.187 C 
ATOM     14  C   UNL     1      31.639  -6.176 -26.895  0.00  0.00    +0.207 C 
ATOM     15  H   UNL     1      29.942  -6.606 -28.029  0.00  0.00    +0.156 HD
ATOM     16  H   UNL     1      31.242  -5.970 -28.933  0.00  0.00    +0.156 HD
ATOM     17  N   UNL     1      34.904  -5.135 -25.964  0.00  0.00    -0.334 N 
ATOM     18  H   UNL     1      35.270  -4.850 -26.833  0.00  0.00    +0.144 HD
ATOM     19  H   UNL     1      35.456  -5.072 -25.152  0.00  0.00    +0.144 HD
ENDBRANCH   1   8
BRANCH   1  20
ATOM     20  C   UNL     1      30.449  -8.634 -21.292  0.00  0.00    +0.096 C 
BRANCH  20  22
ATOM     21  O   UNL     1      30.195 -11.307 -20.277  0.00  0.00    -0.270 OA
ATOM     22  N   UNL     1      31.266  -9.767 -21.642  0.00  0.00    -0.300 N 
ATOM     23  C   UNL     1      31.067 -11.029 -21.096  0.00  0.00    +0.246 C 
ATOM     24  H   UNL     1      31.995  -9.643 -22.292  0.00  0.00    +0.150 HD
BRANCH  23  25
ATOM     25  C   UNL     1      32.013 -12.086 -21.538  0.00  0.00    +0.054 C 
ATOM     26  C   UNL     1      32.265 -13.184 -20.717  0.00  0.00    +0.008 C 
ATOM     27  C   UNL     1      32.648 -11.979 -22.777  0.00  0.00    +0.008 C 
ATOM     28  C   UNL     1      33.154 -14.176 -21.133  0.00  0.00    +0.038 C 
ATOM     29  C   UNL     1      33.536 -12.971 -23.192  0.00  0.00    +0.038 C 
ATOM     30  C   UNL     1      33.789 -14.069 -22.370  0.00  0.00    +0.145 C 
BRANCH  30  31
ATOM     31  O   UNL     1      34.658 -15.035 -22.775  0.00  0.00    -0.453 OA
BRANCH  31  32
ATOM     32  C   UNL     1      34.231 -16.351 -22.714  0.00  0.00    +0.145 C 
ATOM     33  C   UNL     1      34.477 -17.112 -21.571  0.00  0.00    +0.037 C 
ATOM     34  C   UNL     1      33.556 -16.917 -23.796  0.00  0.00    +0.037 C 
ATOM     35  C   UNL     1      34.049 -18.438 -21.509  0.00  0.00    +0.003 C 
ATOM     36  C   UNL     1      33.127 -18.243 -23.734  0.00  0.00    +0.003 C 
ATOM     37  C   UNL     1      33.374 -19.003 -22.592  0.00  0.00    +0.000 C 
ENDBRANCH  31  32
ENDBRANCH  30  31
ENDBRANCH  23  25
ENDBRANCH  20  22
ENDBRANCH   1  20
TORSDOF 6
ENDMDL
