MODEL 1
REMARK VINA RESULT:     -13.1      0.000      0.000
REMARK  Name = 5073
REMARK  4 active torsions:
REMARK  status: ('A' for Active; 'I' for Inactive)
REMARK    1  A    between atoms: N_1  and  C_18
REMARK    2  A    between atoms: C_2  and  C_11
REMARK    3  A    between atoms: C_18  and  C_19
REMARK    4  A    between atoms: C_19  and  C_23
REMARK                            x       y       z     vdW  Elec       q    Type
REMARK                         _______ _______ _______ _____ _____    ______ ____
ROOT
ATOM      1  N   UNL     1      35.105 -19.473 -19.549  0.00  0.00    +0.387 N 
ATOM      2  C   UNL     1      34.493 -18.270 -22.155  0.00  0.00    +0.039 C 
ATOM      3  C   UNL     1      33.399 -18.799 -21.212  0.00  0.00    -0.017 C 
ATOM      4  C   UNL     1      35.742 -17.891 -21.343  0.00  0.00    -0.017 C 
ATOM      5  C   UNL     1      33.933 -19.919 -20.316  0.00  0.00    -0.077 C 
ATOM      6  C   UNL     1      36.190 -19.044 -20.442  0.00  0.00    -0.077 C 
ATOM      7  H   UNL     1      34.825 -18.671 -18.986  0.00  0.00    -0.080 HD
ENDROOT
BRANCH   2  11
ATOM      8  F   UNL     1      32.664 -11.838 -22.860  0.00  0.00    -0.204 F 
ATOM      9  O   UNL     1      33.356 -16.163 -24.847  0.00  0.00    -0.354 OA
ATOM     10  N   UNL     1      33.786 -17.379 -24.331  0.00  0.00    -0.081 NA
ATOM     11  C   UNL     1      34.006 -17.144 -23.039  0.00  0.00    +0.100 A 
ATOM     12  C   UNL     1      33.741 -15.819 -22.667  0.00  0.00    +0.054 A 
ATOM     13  C   UNL     1      33.330 -15.233 -23.853  0.00  0.00    +0.179 A 
ATOM     14  C   UNL     1      33.791 -15.037 -21.504  0.00  0.00    +0.007 C 
ATOM     15  C   UNL     1      32.956 -13.899 -23.981  0.00  0.00    +0.070 C 
ATOM     16  C   UNL     1      33.419 -13.687 -21.596  0.00  0.00    +0.030 C 
ATOM     17  C   UNL     1      33.011 -13.131 -22.812  0.00  0.00    +0.143 C 
ENDBRANCH   2  11
BRANCH   1  18
ATOM     18  C   UNL     1      35.567 -20.536 -18.657  0.00  0.00    -0.076 C 
BRANCH  18  19
ATOM     19  C   UNL     1      34.636 -21.736 -18.757  0.00  0.00    -0.007 C 
BRANCH  19  23
ATOM     20  O   UNL     1      31.911 -22.172 -18.397  0.00  0.00    -0.274 OA
ATOM     21  N   UNL     1      32.061 -22.606 -16.113  0.00  0.00    -0.237 N 
ATOM     22  N   UNL     1      34.166 -22.471 -15.042  0.00  0.00    -0.399 NA
ATOM     23  C   UNL     1      34.062 -22.081 -17.413  0.00  0.00    +0.123 C 
ATOM     24  C   UNL     1      30.603 -22.734 -16.012  0.00  0.00    +0.100 C 
ATOM     25  C   UNL     1      30.112 -23.422 -14.752  0.00  0.00    +0.022 C 
ATOM     26  C   UNL     1      32.886 -22.662 -15.004  0.00  0.00    +0.165 C 
ATOM     27  C   UNL     1      30.795 -22.803 -13.551  0.00  0.00    +0.011 C 
ATOM     28  C   UNL     1      32.288 -23.035 -13.660  0.00  0.00    +0.075 C 
ATOM     29  C   UNL     1      32.581 -22.292 -17.371  0.00  0.00    +0.237 C 
ATOM     30  C   UNL     1      34.744 -22.185 -16.256  0.00  0.00    +0.096 C 
ATOM     31  C   UNL     1      36.239 -22.025 -16.170  0.00  0.00    +0.062 C 
ENDBRANCH  19  23
ENDBRANCH  18  19
ENDBRANCH   1  18
TORSDOF 4
ENDMDL
MODEL 2
REMARK VINA RESULT:     -12.9      3.403     10.198
REMARK  Name = 5073
REMARK  4 active torsions:
REMARK  status: ('A' for Active; 'I' for Inactive)
REMARK    1  A    between atoms: N_1  and  C_18
REMARK    2  A    between atoms: C_2  and  C_11
REMARK    3  A    between atoms: C_18  and  C_19
REMARK    4  A    between atoms: C_19  and  C_23
REMARK                            x       y       z     vdW  Elec       q    Type
REMARK                         _______ _______ _______ _____ _____    ______ ____
ROOT
ATOM      1  N   UNL     1      33.431 -20.039 -19.669  0.00  0.00    +0.387 N 
ATOM      2  C   UNL     1      33.228 -22.209 -17.703  0.00  0.00    +0.039 C 
ATOM      3  C   UNL     1      34.556 -21.498 -18.016  0.00  0.00    -0.017 C 
ATOM      4  C   UNL     1      32.049 -21.277 -18.029  0.00  0.00    -0.017 C 
ATOM      5  C   UNL     1      34.567 -20.944 -19.442  0.00  0.00    -0.077 C 
ATOM      6  C   UNL     1      32.152 -20.730 -19.455  0.00  0.00    -0.077 C 
ATOM      7  H   UNL     1      33.495 -19.279 -18.992  0.00  0.00    -0.080 HD
ENDROOT
BRANCH   2  11
ATOM      8  F   UNL     1      29.622 -23.909 -12.289  0.00  0.00    -0.204 F 
ATOM      9  O   UNL     1      33.913 -23.551 -14.431  0.00  0.00    -0.354 OA
ATOM     10  N   UNL     1      34.304 -23.108 -15.688  0.00  0.00    -0.081 NA
ATOM     11  C   UNL     1      33.174 -22.748 -16.292  0.00  0.00    +0.100 A 
ATOM     12  C   UNL     1      32.039 -22.933 -15.490  0.00  0.00    +0.054 A 
ATOM     13  C   UNL     1      32.561 -23.447 -14.315  0.00  0.00    +0.179 A 
ATOM     14  C   UNL     1      30.653 -22.741 -15.593  0.00  0.00    +0.007 C 
ATOM     15  C   UNL     1      31.798 -23.794 -13.204  0.00  0.00    +0.070 C 
ATOM     16  C   UNL     1      29.854 -23.080 -14.491  0.00  0.00    +0.030 C 
ATOM     17  C   UNL     1      30.418 -23.597 -13.321  0.00  0.00    +0.143 C 
ENDBRANCH   2  11
BRANCH   1  18
ATOM     18  C   UNL     1      33.488 -19.474 -21.017  0.00  0.00    -0.076 C 
BRANCH  18  19
ATOM     19  C   UNL     1      34.432 -18.280 -21.037  0.00  0.00    -0.007 C 
BRANCH  19  23
ATOM     20  O   UNL     1      34.124 -15.566 -20.505  0.00  0.00    -0.274 OA
ATOM     21  N   UNL     1      33.541 -14.983 -22.684  0.00  0.00    -0.237 N 
ATOM     22  N   UNL     1      33.369 -16.673 -24.331  0.00  0.00    -0.399 NA
ATOM     23  C   UNL     1      34.038 -17.305 -22.108  0.00  0.00    +0.123 C 
ATOM     24  C   UNL     1      33.324 -13.589 -22.284  0.00  0.00    +0.100 C 
ATOM     25  C   UNL     1      33.283 -12.597 -23.432  0.00  0.00    +0.022 C 
ATOM     26  C   UNL     1      33.269 -15.435 -23.963  0.00  0.00    +0.165 C 
ATOM     27  C   UNL     1      32.351 -13.119 -24.505  0.00  0.00    +0.011 C 
ATOM     28  C   UNL     1      32.895 -14.429 -25.036  0.00  0.00    +0.075 C 
ATOM     29  C   UNL     1      33.914 -15.877 -21.678  0.00  0.00    +0.237 C 
ATOM     30  C   UNL     1      33.759 -17.599 -23.393  0.00  0.00    +0.096 C 
ATOM     31  C   UNL     1      33.875 -18.991 -23.958  0.00  0.00    +0.062 C 
ENDBRANCH  19  23
ENDBRANCH  18  19
ENDBRANCH   1  18
TORSDOF 4
ENDMDL
MODEL 3
REMARK VINA RESULT:     -12.4      3.326     10.085
REMARK  Name = 5073
REMARK  4 active torsions:
REMARK  status: ('A' for Active; 'I' for Inactive)
REMARK    1  A    between atoms: N_1  and  C_18
REMARK    2  A    between atoms: C_2  and  C_11
REMARK    3  A    between atoms: C_18  and  C_19
REMARK    4  A    between atoms: C_19  and  C_23
REMARK                            x       y       z     vdW  Elec       q    Type
REMARK                         _______ _______ _______ _____ _____    ______ ____
ROOT
ATOM      1  N   UNL     1      33.400 -19.270 -20.580  0.00  0.00    +0.387 N 
ATOM      2  C   UNL     1      33.735 -21.486 -18.686  0.00  0.00    +0.039 C 
ATOM      3  C   UNL     1      34.901 -20.576 -19.107  0.00  0.00    -0.017 C 
ATOM      4  C   UNL     1      32.403 -20.737 -18.854  0.00  0.00    -0.017 C 
ATOM      5  C   UNL     1      34.676 -19.997 -20.506  0.00  0.00    -0.077 C 
ATOM      6  C   UNL     1      32.269 -20.152 -20.262  0.00  0.00    -0.077 C 
ATOM      7  H   UNL     1      33.423 -18.524 -19.886  0.00  0.00    -0.080 HD
ENDROOT
BRANCH   2  11
ATOM      8  F   UNL     1      31.038 -24.101 -13.109  0.00  0.00    -0.204 F 
ATOM      9  O   UNL     1      34.957 -22.711 -15.526  0.00  0.00    -0.354 OA
ATOM     10  N   UNL     1      35.139 -22.160 -16.788  0.00  0.00    -0.081 NA
ATOM     11  C   UNL     1      33.914 -22.057 -17.297  0.00  0.00    +0.100 A 
ATOM     12  C   UNL     1      32.916 -22.518 -16.427  0.00  0.00    +0.054 A 
ATOM     13  C   UNL     1      33.629 -22.925 -15.313  0.00  0.00    +0.179 A 
ATOM     14  C   UNL     1      31.519 -22.649 -16.426  0.00  0.00    +0.007 C 
ATOM     15  C   UNL     1      33.054 -23.465 -14.166  0.00  0.00    +0.070 C 
ATOM     16  C   UNL     1      30.905 -23.188 -15.287  0.00  0.00    +0.030 C 
ATOM     17  C   UNL     1      31.660 -23.588 -14.179  0.00  0.00    +0.143 C 
ENDBRANCH   2  11
BRANCH   1  18
ATOM     18  C   UNL     1      33.228 -18.675 -21.906  0.00  0.00    -0.076 C 
BRANCH  18  19
ATOM     19  C   UNL     1      34.413 -17.776 -22.227  0.00  0.00    -0.007 C 
BRANCH  19  23
ATOM     20  O   UNL     1      33.860 -16.802 -24.774  0.00  0.00    -0.274 OA
ATOM     21  N   UNL     1      33.290 -14.656 -24.067  0.00  0.00    -0.237 N 
ATOM     22  N   UNL     1      33.433 -14.117 -21.768  0.00  0.00    -0.399 NA
ATOM     23  C   UNL     1      33.966 -16.361 -22.451  0.00  0.00    +0.123 C 
ATOM     24  C   UNL     1      33.105 -14.217 -25.454  0.00  0.00    +0.100 C 
ATOM     25  C   UNL     1      32.324 -12.926 -25.612  0.00  0.00    +0.022 C 
ATOM     26  C   UNL     1      33.195 -13.785 -22.997  0.00  0.00    +0.165 C 
ATOM     27  C   UNL     1      32.890 -11.885 -24.670  0.00  0.00    +0.011 C 
ATOM     28  C   UNL     1      32.718 -12.365 -23.243  0.00  0.00    +0.075 C 
ATOM     29  C   UNL     1      33.701 -15.978 -23.874  0.00  0.00    +0.237 C 
ATOM     30  C   UNL     1      33.814 -15.411 -21.507  0.00  0.00    +0.096 C 
ATOM     31  C   UNL     1      34.021 -15.677 -20.039  0.00  0.00    +0.062 C 
ENDBRANCH  19  23
ENDBRANCH  18  19
ENDBRANCH   1  18
TORSDOF 4
ENDMDL
MODEL 4
REMARK VINA RESULT:     -12.1      1.518      2.156
REMARK  Name = 5073
REMARK  4 active torsions:
REMARK  status: ('A' for Active; 'I' for Inactive)
REMARK    1  A    between atoms: N_1  and  C_18
REMARK    2  A    between atoms: C_2  and  C_11
REMARK    3  A    between atoms: C_18  and  C_19
REMARK    4  A    between atoms: C_19  and  C_23
REMARK                            x       y       z     vdW  Elec       q    Type
REMARK                         _______ _______ _______ _____ _____    ______ ____
ROOT
ATOM      1  N   UNL     1      33.798 -21.591 -19.234  0.00  0.00    +0.387 N 
ATOM      2  C   UNL     1      34.008 -18.863 -20.293  0.00  0.00    +0.039 C 
ATOM      3  C   UNL     1      35.212 -19.817 -20.225  0.00  0.00    -0.017 C 
ATOM      4  C   UNL     1      32.703 -19.673 -20.352  0.00  0.00    -0.017 C 
ATOM      5  C   UNL     1      35.051 -20.834 -19.093  0.00  0.00    -0.077 C 
ATOM      6  C   UNL     1      32.633 -20.696 -19.216  0.00  0.00    -0.077 C 
ATOM      7  H   UNL     1      33.818 -22.065 -20.138  0.00  0.00    -0.080 HD
ENDROOT
BRANCH   2  11
ATOM      8  F   UNL     1      33.688 -12.492 -22.420  0.00  0.00    -0.204 F 
ATOM      9  O   UNL     1      34.459 -17.132 -23.420  0.00  0.00    -0.354 OA
ATOM     10  N   UNL     1      34.434 -18.281 -22.640  0.00  0.00    -0.081 NA
ATOM     11  C   UNL     1      34.123 -17.858 -21.417  0.00  0.00    +0.100 A 
ATOM     12  C   UNL     1      33.940 -16.469 -21.345  0.00  0.00    +0.054 A 
ATOM     13  C   UNL     1      34.165 -16.052 -22.646  0.00  0.00    +0.179 A 
ATOM     14  C   UNL     1      33.619 -15.514 -20.370  0.00  0.00    +0.007 C 
ATOM     15  C   UNL     1      34.095 -14.728 -23.068  0.00  0.00    +0.070 C 
ATOM     16  C   UNL     1      33.539 -14.169 -20.760  0.00  0.00    +0.030 C 
ATOM     17  C   UNL     1      33.773 -13.786 -22.085  0.00  0.00    +0.143 C 
ENDBRANCH   2  11
BRANCH   1  18
ATOM     18  C   UNL     1      33.688 -22.598 -18.179  0.00  0.00    -0.076 C 
BRANCH  18  19
ATOM     19  C   UNL     1      33.861 -21.940 -16.817  0.00  0.00    -0.007 C 
BRANCH  19  23
ATOM     20  O   UNL     1      31.087 -22.138 -16.743  0.00  0.00    -0.274 OA
ATOM     21  N   UNL     1      31.015 -23.475 -14.837  0.00  0.00    -0.237 N 
ATOM     22  N   UNL     1      33.035 -24.050 -13.747  0.00  0.00    -0.399 NA
ATOM     23  C   UNL     1      33.154 -22.724 -15.751  0.00  0.00    +0.123 C 
ATOM     24  C   UNL     1      29.548 -23.448 -14.838  0.00  0.00    +0.100 C 
ATOM     25  C   UNL     1      28.893 -24.519 -13.986  0.00  0.00    +0.022 C 
ATOM     26  C   UNL     1      31.742 -24.077 -13.826  0.00  0.00    +0.165 C 
ATOM     27  C   UNL     1      29.543 -24.531 -12.618  0.00  0.00    +0.011 C 
ATOM     28  C   UNL     1      31.008 -24.885 -12.771  0.00  0.00    +0.075 C 
ATOM     29  C   UNL     1      31.659 -22.746 -15.839  0.00  0.00    +0.237 C 
ATOM     30  C   UNL     1      33.730 -23.373 -14.720  0.00  0.00    +0.096 C 
ATOM     31  C   UNL     1      35.223 -23.451 -14.535  0.00  0.00    +0.062 C 
ENDBRANCH  19  23
ENDBRANCH  18  19
ENDBRANCH   1  18
TORSDOF 4
ENDMDL
MODEL 5
REMARK VINA RESULT:     -12.0      3.501     10.182
REMARK  Name = 5073
REMARK  4 active torsions:
REMARK  status: ('A' for Active; 'I' for Inactive)
REMARK    1  A    between atoms: N_1  and  C_18
REMARK    2  A    between atoms: C_2  and  C_11
REMARK    3  A    between atoms: C_18  and  C_19
REMARK    4  A    between atoms: C_19  and  C_23
REMARK                            x       y       z     vdW  Elec       q    Type
REMARK                         _______ _______ _______ _____ _____    ______ ____
ROOT
ATOM      1  N   UNL     1      33.422 -20.007 -19.707  0.00  0.00    +0.387 N 
ATOM      2  C   UNL     1      33.283 -22.161 -17.719  0.00  0.00    +0.039 C 
ATOM      3  C   UNL     1      34.579 -21.385 -18.007  0.00  0.00    -0.017 C 
ATOM      4  C   UNL     1      32.065 -21.296 -18.087  0.00  0.00    -0.017 C 
ATOM      5  C   UNL     1      34.598 -20.848 -19.440  0.00  0.00    -0.077 C 
ATOM      6  C   UNL     1      32.176 -20.762 -19.517  0.00  0.00    -0.077 C 
ATOM      7  H   UNL     1      33.429 -19.237 -19.039  0.00  0.00    -0.080 HD
ENDROOT
BRANCH   2  11
ATOM      8  F   UNL     1      36.365 -23.489 -11.893  0.00  0.00    -0.204 F 
ATOM      9  O   UNL     1      32.342 -23.541 -14.527  0.00  0.00    -0.354 OA
ATOM     10  N   UNL     1      32.062 -23.142 -15.828  0.00  0.00    -0.081 NA
ATOM     11  C   UNL     1      33.220 -22.686 -16.303  0.00  0.00    +0.100 A 
ATOM     12  C   UNL     1      34.265 -22.762 -15.371  0.00  0.00    +0.054 A 
ATOM     13  C   UNL     1      33.656 -23.313 -14.256  0.00  0.00    +0.179 A 
ATOM     14  C   UNL     1      35.630 -22.444 -15.314  0.00  0.00    +0.007 C 
ATOM     15  C   UNL     1      34.311 -23.581 -13.057  0.00  0.00    +0.070 C 
ATOM     16  C   UNL     1      36.321 -22.701 -14.122  0.00  0.00    +0.030 C 
ATOM     17  C   UNL     1      35.672 -23.259 -13.016  0.00  0.00    +0.143 C 
ENDBRANCH   2  11
BRANCH   1  18
ATOM     18  C   UNL     1      33.485 -19.455 -21.061  0.00  0.00    -0.076 C 
BRANCH  18  19
ATOM     19  C   UNL     1      34.433 -18.265 -21.090  0.00  0.00    -0.007 C 
BRANCH  19  23
ATOM     20  O   UNL     1      34.140 -15.551 -20.551  0.00  0.00    -0.274 OA
ATOM     21  N   UNL     1      33.533 -14.962 -22.721  0.00  0.00    -0.237 N 
ATOM     22  N   UNL     1      33.337 -16.649 -24.369  0.00  0.00    -0.399 NA
ATOM     23  C   UNL     1      34.030 -17.287 -22.155  0.00  0.00    +0.123 C 
ATOM     24  C   UNL     1      33.325 -13.568 -22.316  0.00  0.00    +0.100 C 
ATOM     25  C   UNL     1      33.274 -12.575 -23.462  0.00  0.00    +0.022 C 
ATOM     26  C   UNL     1      33.245 -15.412 -23.997  0.00  0.00    +0.165 C 
ATOM     27  C   UNL     1      32.328 -13.092 -24.525  0.00  0.00    +0.011 C 
ATOM     28  C   UNL     1      32.862 -14.403 -25.065  0.00  0.00    +0.075 C 
ATOM     29  C   UNL     1      33.915 -15.859 -21.721  0.00  0.00    +0.237 C 
ATOM     30  C   UNL     1      33.735 -17.578 -23.438  0.00  0.00    +0.096 C 
ATOM     31  C   UNL     1      33.840 -18.969 -24.005  0.00  0.00    +0.062 C 
ENDBRANCH  19  23
ENDBRANCH  18  19
ENDBRANCH   1  18
TORSDOF 4
ENDMDL
MODEL 6
REMARK VINA RESULT:     -12.0      4.255     10.835
REMARK  Name = 5073
REMARK  4 active torsions:
REMARK  status: ('A' for Active; 'I' for Inactive)
REMARK    1  A    between atoms: N_1  and  C_18
REMARK    2  A    between atoms: C_2  and  C_11
REMARK    3  A    between atoms: C_18  and  C_19
REMARK    4  A    between atoms: C_19  and  C_23
REMARK                            x       y       z     vdW  Elec       q    Type
REMARK                         _______ _______ _______ _____ _____    ______ ____
ROOT
ATOM      1  N   UNL     1      32.990 -15.187 -22.634  0.00  0.00    +0.387 N 
ATOM      2  C   UNL     1      34.779 -17.186 -21.445  0.00  0.00    +0.039 C 
ATOM      3  C   UNL     1      34.056 -16.121 -20.604  0.00  0.00    -0.017 C 
ATOM      4  C   UNL     1      33.996 -17.447 -22.742  0.00  0.00    -0.017 C 
ATOM      5  C   UNL     1      33.768 -14.864 -21.429  0.00  0.00    -0.077 C 
ATOM      6  C   UNL     1      33.710 -16.142 -23.489  0.00  0.00    -0.077 C 
ATOM      7  H   UNL     1      32.118 -15.625 -22.337  0.00  0.00    -0.080 HD
ENDROOT
BRANCH   2  11
ATOM      8  F   UNL     1      32.493 -22.618 -18.208  0.00  0.00    -0.204 F 
ATOM      9  O   UNL     1      36.230 -19.985 -19.702  0.00  0.00    -0.354 OA
ATOM     10  N   UNL     1      36.320 -18.800 -20.420  0.00  0.00    -0.081 NA
ATOM     11  C   UNL     1      35.059 -18.452 -20.667  0.00  0.00    +0.100 A 
ATOM     12  C   UNL     1      34.126 -19.357 -20.142  0.00  0.00    +0.054 A 
ATOM     13  C   UNL     1      34.920 -20.317 -19.537  0.00  0.00    +0.179 A 
ATOM     14  C   UNL     1      32.731 -19.500 -20.095  0.00  0.00    +0.007 C 
ATOM     15  C   UNL     1      34.429 -21.436 -18.871  0.00  0.00    +0.070 C 
ATOM     16  C   UNL     1      32.201 -20.616 -19.431  0.00  0.00    +0.030 C 
ATOM     17  C   UNL     1      33.036 -21.565 -18.832  0.00  0.00    +0.143 C 
ENDBRANCH   2  11
BRANCH   1  18
ATOM     18  C   UNL     1      32.674 -13.969 -23.380  0.00  0.00    -0.076 C 
BRANCH  18  19
ATOM     19  C   UNL     1      33.584 -12.836 -22.929  0.00  0.00    -0.007 C 
BRANCH  19  23
ATOM     20  O   UNL     1      33.902 -10.515 -24.432  0.00  0.00    -0.274 OA
ATOM     21  N   UNL     1      32.321  -9.275 -23.253  0.00  0.00    -0.237 N 
ATOM     22  N   UNL     1      31.214 -10.261 -21.409  0.00  0.00    -0.399 NA
ATOM     23  C   UNL     1      32.790 -11.595 -22.643  0.00  0.00    +0.123 C 
ATOM     24  C   UNL     1      32.622  -8.080 -24.048  0.00  0.00    +0.100 C 
ATOM     25  C   UNL     1      31.574  -6.987 -23.973  0.00  0.00    +0.022 C 
ATOM     26  C   UNL     1      31.442  -9.249 -22.185  0.00  0.00    +0.165 C 
ATOM     27  C   UNL     1      31.226  -6.731 -22.522  0.00  0.00    +0.011 C 
ATOM     28  C   UNL     1      30.632  -7.992 -21.928  0.00  0.00    +0.075 C 
ATOM     29  C   UNL     1      33.064 -10.424 -23.535  0.00  0.00    +0.237 C 
ATOM     30  C   UNL     1      31.892 -11.431 -21.651  0.00  0.00    +0.096 C 
ATOM     31  C   UNL     1      31.507 -12.538 -20.706  0.00  0.00    +0.062 C 
ENDBRANCH  19  23
ENDBRANCH  18  19
ENDBRANCH   1  18
TORSDOF 4
ENDMDL
MODEL 7
REMARK VINA RESULT:     -12.0      3.351     10.108
REMARK  Name = 5073
REMARK  4 active torsions:
REMARK  status: ('A' for Active; 'I' for Inactive)
REMARK    1  A    between atoms: N_1  and  C_18
REMARK    2  A    between atoms: C_2  and  C_11
REMARK    3  A    between atoms: C_18  and  C_19
REMARK    4  A    between atoms: C_19  and  C_23
REMARK                            x       y       z     vdW  Elec       q    Type
REMARK                         _______ _______ _______ _____ _____    ______ ____
ROOT
ATOM      1  N   UNL     1      34.563 -18.333 -20.979  0.00  0.00    +0.387 N 
ATOM      2  C   UNL     1      34.381 -20.831 -19.450  0.00  0.00    +0.039 C 
ATOM      3  C   UNL     1      35.555 -19.850 -19.292  0.00  0.00    -0.017 C 
ATOM      4  C   UNL     1      33.139 -20.081 -19.957  0.00  0.00    -0.017 C 
ATOM      5  C   UNL     1      35.783 -19.047 -20.575  0.00  0.00    -0.077 C 
ATOM      6  C   UNL     1      33.456 -19.269 -21.215  0.00  0.00    -0.077 C 
ATOM      7  H   UNL     1      34.294 -17.713 -20.215  0.00  0.00    -0.080 HD
ENDROOT
BRANCH   2  11
ATOM      8  F   UNL     1      36.370 -22.896 -13.368  0.00  0.00    -0.204 F 
ATOM      9  O   UNL     1      33.033 -22.906 -16.831  0.00  0.00    -0.354 OA
ATOM     10  N   UNL     1      32.968 -22.297 -18.078  0.00  0.00    -0.081 NA
ATOM     11  C   UNL     1      34.112 -21.625 -18.192  0.00  0.00    +0.100 A 
ATOM     12  C   UNL     1      34.942 -21.758 -17.070  0.00  0.00    +0.054 A 
ATOM     13  C   UNL     1      34.211 -22.583 -16.231  0.00  0.00    +0.179 A 
ATOM     14  C   UNL     1      36.199 -21.300 -16.648  0.00  0.00    +0.007 C 
ATOM     15  C   UNL     1      34.639 -23.000 -14.974  0.00  0.00    +0.070 C 
ATOM     16  C   UNL     1      36.662 -21.701 -15.387  0.00  0.00    +0.030 C 
ATOM     17  C   UNL     1      35.895 -22.535 -14.567  0.00  0.00    +0.143 C 
ENDBRANCH   2  11
BRANCH   1  18
ATOM     18  C   UNL     1      34.815 -17.526 -22.172  0.00  0.00    -0.076 C 
BRANCH  18  19
ATOM     19  C   UNL     1      33.494 -17.082 -22.784  0.00  0.00    -0.007 C 
BRANCH  19  23
ATOM     20  O   UNL     1      33.084 -15.720 -25.176  0.00  0.00    -0.274 OA
ATOM     21  N   UNL     1      33.104 -13.595 -24.223  0.00  0.00    -0.237 N 
ATOM     22  N   UNL     1      33.484 -13.371 -21.898  0.00  0.00    -0.399 NA
ATOM     23  C   UNL     1      33.405 -15.584 -22.836  0.00  0.00    +0.123 C 
ATOM     24  C   UNL     1      32.970 -12.969 -25.542  0.00  0.00    +0.100 C 
ATOM     25  C   UNL     1      32.530 -11.518 -25.515  0.00  0.00    +0.022 C 
ATOM     26  C   UNL     1      33.280 -12.854 -23.068  0.00  0.00    +0.165 C 
ATOM     27  C   UNL     1      33.383 -10.760 -24.519  0.00  0.00    +0.011 C 
ATOM     28  C   UNL     1      33.163 -11.342 -23.138  0.00  0.00    +0.075 C 
ATOM     29  C   UNL     1      33.179 -14.989 -24.190  0.00  0.00    +0.237 C 
ATOM     30  C   UNL     1      33.541 -14.740 -21.794  0.00  0.00    +0.096 C 
ATOM     31  C   UNL     1      33.742 -15.212 -20.379  0.00  0.00    +0.062 C 
ENDBRANCH  19  23
ENDBRANCH  18  19
ENDBRANCH   1  18
TORSDOF 4
ENDMDL
MODEL 8
REMARK VINA RESULT:     -11.8      5.970     12.516
REMARK  Name = 5073
REMARK  4 active torsions:
REMARK  status: ('A' for Active; 'I' for Inactive)
REMARK    1  A    between atoms: N_1  and  C_18
REMARK    2  A    between atoms: C_2  and  C_11
REMARK    3  A    between atoms: C_18  and  C_19
REMARK    4  A    between atoms: C_19  and  C_23
REMARK                            x       y       z     vdW  Elec       q    Type
REMARK                         _______ _______ _______ _____ _____    ______ ____
ROOT
ATOM      1  N   UNL     1      33.343 -11.021 -24.326  0.00  0.00    +0.387 N 
ATOM      2  C   UNL     1      32.778 -13.871 -23.913  0.00  0.00    +0.039 C 
ATOM      3  C   UNL     1      33.010 -13.269 -25.308  0.00  0.00    -0.017 C 
ATOM      4  C   UNL     1      33.470 -13.003 -22.849  0.00  0.00    -0.017 C 
ATOM      5  C   UNL     1      32.618 -11.790 -25.348  0.00  0.00    -0.077 C 
ATOM      6  C   UNL     1      33.061 -11.534 -22.978  0.00  0.00    -0.077 C 
ATOM      7  H   UNL     1      34.341 -11.128 -24.502  0.00  0.00    -0.080 HD
ENDROOT
BRANCH   2  11
ATOM      8  F   UNL     1      35.141 -19.034 -20.311  0.00  0.00    -0.204 F 
ATOM      9  O   UNL     1      33.506 -17.348 -24.508  0.00  0.00    -0.354 OA
ATOM     10  N   UNL     1      33.066 -16.095 -24.913  0.00  0.00    -0.081 NA
ATOM     11  C   UNL     1      33.178 -15.326 -23.831  0.00  0.00    +0.100 A 
ATOM     12  C   UNL     1      33.675 -16.016 -22.716  0.00  0.00    +0.054 A 
ATOM     13  C   UNL     1      33.869 -17.300 -23.197  0.00  0.00    +0.179 A 
ATOM     14  C   UNL     1      33.986 -15.737 -21.377  0.00  0.00    +0.007 C 
ATOM     15  C   UNL     1      34.359 -18.357 -22.436  0.00  0.00    +0.070 C 
ATOM     16  C   UNL     1      34.483 -16.779 -20.581  0.00  0.00    +0.030 C 
ATOM     17  C   UNL     1      34.665 -18.063 -21.103  0.00  0.00    +0.143 C 
ENDBRANCH   2  11
BRANCH   1  18
ATOM     18  C   UNL     1      32.999  -9.602 -24.415  0.00  0.00    -0.076 C 
BRANCH  18  19
ATOM     19  C   UNL     1      33.772  -8.816 -23.365  0.00  0.00    -0.007 C 
BRANCH  19  23
ATOM     20  O   UNL     1      31.956  -8.612 -21.267  0.00  0.00    -0.274 OA
ATOM     21  N   UNL     1      31.486  -6.355 -21.605  0.00  0.00    -0.237 N 
ATOM     22  N   UNL     1      32.516  -5.213 -23.404  0.00  0.00    -0.399 NA
ATOM     23  C   UNL     1      33.077  -7.525 -23.046  0.00  0.00    +0.123 C 
ATOM     24  C   UNL     1      30.485  -6.373 -20.533  0.00  0.00    +0.100 C 
ATOM     25  C   UNL     1      30.084  -5.004 -20.017  0.00  0.00    +0.022 C 
ATOM     26  C   UNL     1      31.702  -5.241 -22.396  0.00  0.00    +0.165 C 
ATOM     27  C   UNL     1      29.763  -4.105 -21.192  0.00  0.00    +0.011 C 
ATOM     28  C   UNL     1      31.007  -3.940 -22.041  0.00  0.00    +0.075 C 
ATOM     29  C   UNL     1      32.129  -7.563 -21.887  0.00  0.00    +0.237 C 
ATOM     30  C   UNL     1      33.202  -6.362 -23.716  0.00  0.00    +0.096 C 
ATOM     31  C   UNL     1      34.142  -6.186 -24.879  0.00  0.00    +0.062 C 
ENDBRANCH  19  23
ENDBRANCH  18  19
ENDBRANCH   1  18
TORSDOF 4
ENDMDL
MODEL 9
REMARK VINA RESULT:     -11.8      2.527      3.778
REMARK  Name = 5073
REMARK  4 active torsions:
REMARK  status: ('A' for Active; 'I' for Inactive)
REMARK    1  A    between atoms: N_1  and  C_18
REMARK    2  A    between atoms: C_2  and  C_11
REMARK    3  A    between atoms: C_18  and  C_19
REMARK    4  A    between atoms: C_19  and  C_23
REMARK                            x       y       z     vdW  Elec       q    Type
REMARK                         _______ _______ _______ _____ _____    ______ ____
ROOT
ATOM      1  N   UNL     1      33.815 -21.782 -18.682  0.00  0.00    +0.387 N 
ATOM      2  C   UNL     1      33.912 -19.285 -20.221  0.00  0.00    +0.039 C 
ATOM      3  C   UNL     1      35.137 -20.199 -20.051  0.00  0.00    -0.017 C 
ATOM      4  C   UNL     1      32.622 -20.108 -20.061  0.00  0.00    -0.017 C 
ATOM      5  C   UNL     1      35.057 -20.998 -18.749  0.00  0.00    -0.077 C 
ATOM      6  C   UNL     1      32.634 -20.910 -18.758  0.00  0.00    -0.077 C 
ATOM      7  H   UNL     1      33.796 -22.409 -19.486  0.00  0.00    -0.080 HD
ENDROOT
BRANCH   2  11
ATOM      8  F   UNL     1      33.887 -13.352 -23.386  0.00  0.00    -0.204 F 
ATOM      9  O   UNL     1      34.031 -18.153 -23.639  0.00  0.00    -0.354 OA
ATOM     10  N   UNL     1      34.016 -19.148 -22.671  0.00  0.00    -0.081 NA
ATOM     11  C   UNL     1      33.946 -18.498 -21.511  0.00  0.00    +0.100 A 
ATOM     12  C   UNL     1      33.913 -17.104 -21.664  0.00  0.00    +0.054 A 
ATOM     13  C   UNL     1      33.970 -16.934 -23.037  0.00  0.00    +0.179 A 
ATOM     14  C   UNL     1      33.846 -15.971 -20.840  0.00  0.00    +0.007 C 
ATOM     15  C   UNL     1      33.964 -15.697 -23.675  0.00  0.00    +0.070 C 
ATOM     16  C   UNL     1      33.837 -14.708 -21.449  0.00  0.00    +0.030 C 
ATOM     17  C   UNL     1      33.896 -14.576 -22.840  0.00  0.00    +0.143 C 
ENDBRANCH   2  11
BRANCH   1  18
ATOM     18  C   UNL     1      33.781 -22.583 -17.459  0.00  0.00    -0.076 C 
BRANCH  18  19
ATOM     19  C   UNL     1      34.319 -21.768 -16.291  0.00  0.00    -0.007 C 
BRANCH  19  23
ATOM     20  O   UNL     1      36.881 -22.560 -15.547  0.00  0.00    -0.274 OA
ATOM     21  N   UNL     1      36.195 -23.803 -13.700  0.00  0.00    -0.237 N 
ATOM     22  N   UNL     1      33.886 -23.988 -13.218  0.00  0.00    -0.399 NA
ATOM     23  C   UNL     1      34.559 -22.642 -15.095  0.00  0.00    +0.123 C 
ATOM     24  C   UNL     1      37.574 -24.233 -13.441  0.00  0.00    +0.100 C 
ATOM     25  C   UNL     1      37.812 -24.798 -12.053  0.00  0.00    +0.022 C 
ATOM     26  C   UNL     1      35.123 -24.279 -12.967  0.00  0.00    +0.165 C 
ATOM     27  C   UNL     1      36.742 -25.825 -11.745  0.00  0.00    +0.011 C 
ATOM     28  C   UNL     1      35.390 -25.142 -11.747  0.00  0.00    +0.075 C 
ATOM     29  C   UNL     1      35.988 -22.985 -14.813  0.00  0.00    +0.237 C 
ATOM     30  C   UNL     1      33.617 -23.164 -14.284  0.00  0.00    +0.096 C 
ATOM     31  C   UNL     1      32.148 -22.872 -14.444  0.00  0.00    +0.062 C 
ENDBRANCH  19  23
ENDBRANCH  18  19
ENDBRANCH   1  18
TORSDOF 4
ENDMDL
