MODEL 1
REMARK VINA RESULT:     -13.1      0.000      0.000
REMARK  Name = 10074640
REMARK  6 active torsions:
REMARK  status: ('A' for Active; 'I' for Inactive)
REMARK    1  A    between atoms: N_2  and  C_5
REMARK    2  A    between atoms: C_3  and  C_30
REMARK    3  A    between atoms: C_6  and  N_13
REMARK    4  A    between atoms: C_16  and  C_20
REMARK    5  A    between atoms: C_25  and  C_31
REMARK    6  A    between atoms: C_31  and  N_32
REMARK                            x       y       z     vdW  Elec       q    Type
REMARK                         _______ _______ _______ _____ _____    ______ ____
ROOT
ATOM      1  O   UNL     1      32.748 -23.559 -18.175  0.00  0.00    -0.270 OA
ATOM      2  N   UNL     1      32.362 -21.890 -16.572  0.00  0.00    -0.280 N 
ATOM      3  C   UNL     1      32.819 -22.376 -17.805  0.00  0.00    +0.249 C 
ATOM      4  H   UNL     1      32.487 -20.925 -16.420  0.00  0.00    +0.155 HD
ENDROOT
BRANCH   2   5
ATOM      5  C   UNL     1      31.743 -22.605 -15.518  0.00  0.00    +0.052 C 
ATOM      6  C   UNL     1      31.810 -23.469 -13.282  0.00  0.00    +0.048 C 
ATOM      7  C   UNL     1      32.420 -22.766 -14.321  0.00  0.00    +0.029 C 
ATOM      8  C   UNL     1      30.532 -24.000 -13.455  0.00  0.00    -0.008 C 
ATOM      9  C   UNL     1      30.474 -23.125 -15.707  0.00  0.00    +0.014 C 
ATOM     10  C   UNL     1      29.864 -23.828 -14.669  0.00  0.00    -0.002 C 
ATOM     11  C   UNL     1      29.856 -24.758 -12.361  0.00  0.00    +0.032 C 
BRANCH   6  13
ATOM     12  S   UNL     1      34.324 -24.247 -10.225  0.00  0.00    -0.059 S 
ATOM     13  N   UNL     1      32.500 -23.634 -12.062  0.00  0.00    -0.283 N 
ATOM     14  N   UNL     1      34.725 -24.011 -12.768  0.00  0.00    -0.384 NA
ATOM     15  C   UNL     1      33.813 -23.938 -11.830  0.00  0.00    +0.211 C 
ATOM     16  C   UNL     1      35.933 -24.338 -12.183  0.00  0.00    +0.124 C 
ATOM     17  C   UNL     1      35.914 -24.506 -10.814  0.00  0.00    +0.125 C 
ATOM     18  H   UNL     1      31.952 -23.510 -11.253  0.00  0.00    +0.155 HD
BRANCH  16  20
ATOM     19  N   UNL     1      38.432 -23.837 -14.888  0.00  0.00    -0.242 NA
ATOM     20  C   UNL     1      37.128 -24.490 -12.961  0.00  0.00    +0.046 C 
ATOM     21  C   UNL     1      38.117 -25.392 -12.587  0.00  0.00    +0.005 C 
ATOM     22  C   UNL     1      37.331 -23.743 -14.110  0.00  0.00    +0.101 C 
ATOM     23  C   UNL     1      39.264 -25.518 -13.362  0.00  0.00    +0.021 C 
ATOM     24  C   UNL     1      39.372 -24.725 -14.493  0.00  0.00    +0.099 C 
ENDBRANCH  16  20
ENDBRANCH   6  13
ENDBRANCH   2   5
BRANCH   3  30
ATOM     25  C   UNL     1      34.629 -19.527 -20.355  0.00  0.00    -0.043 C 
ATOM     26  C   UNL     1      35.429 -20.367 -19.592  0.00  0.00    -0.006 C 
ATOM     27  C   UNL     1      33.245 -19.608 -20.294  0.00  0.00    -0.006 C 
ATOM     28  C   UNL     1      34.831 -21.307 -18.751  0.00  0.00    +0.004 C 
ATOM     29  C   UNL     1      32.648 -20.548 -19.454  0.00  0.00    +0.004 C 
ATOM     30  C   UNL     1      33.441 -21.397 -18.683  0.00  0.00    +0.054 C 
BRANCH  25  31
ATOM     31  C   UNL     1      35.273 -18.514 -21.263  0.00  0.00    -0.050 C 
BRANCH  31  32
ATOM     32  N   UNL     1      34.281 -17.667 -21.923  0.00  0.00    +0.387 N 
ATOM     33  N   UNL     1      33.468 -15.688 -23.868  0.00  0.00    +0.383 N 
ATOM     34  C   UNL     1      34.609 -16.247 -21.748  0.00  0.00    -0.100 C 
ATOM     35  C   UNL     1      34.181 -17.996 -23.350  0.00  0.00    -0.100 C 
ATOM     36  C   UNL     1      33.570 -15.358 -22.441  0.00  0.00    -0.101 C 
ATOM     37  C   UNL     1      33.141 -17.109 -24.042  0.00  0.00    -0.101 C 
ATOM     38  C   UNL     1      32.474 -14.843 -24.527  0.00  0.00    -0.101 C 
ATOM     39  H   UNL     1      33.376 -17.845 -21.487  0.00  0.00    -0.079 HD
ATOM     40  H   UNL     1      34.372 -15.509 -24.305  0.00  0.00    -0.080 HD
ENDBRANCH  31  32
ENDBRANCH  25  31
ENDBRANCH   3  30
TORSDOF 6
ENDMDL
MODEL 2
REMARK VINA RESULT:     -10.7      8.434     16.920
REMARK  Name = 10074640
REMARK  6 active torsions:
REMARK  status: ('A' for Active; 'I' for Inactive)
REMARK    1  A    between atoms: N_2  and  C_5
REMARK    2  A    between atoms: C_3  and  C_30
REMARK    3  A    between atoms: C_6  and  N_13
REMARK    4  A    between atoms: C_16  and  C_20
REMARK    5  A    between atoms: C_25  and  C_31
REMARK    6  A    between atoms: C_31  and  N_32
REMARK                            x       y       z     vdW  Elec       q    Type
REMARK                         _______ _______ _______ _____ _____    ______ ____
ROOT
ATOM      1  O   UNL     1      31.432 -11.426 -21.354  0.00  0.00    -0.270 OA
ATOM      2  N   UNL     1      32.811 -10.644 -23.083  0.00  0.00    -0.280 N 
ATOM      3  C   UNL     1      32.271 -11.630 -22.246  0.00  0.00    +0.249 C 
ATOM      4  H   UNL     1      33.467 -10.959 -23.746  0.00  0.00    +0.155 HD
ENDROOT
BRANCH   2   5
ATOM      5  C   UNL     1      32.535  -9.255 -23.100  0.00  0.00    +0.052 C 
ATOM      6  C   UNL     1      31.969  -7.270 -24.320  0.00  0.00    +0.048 C 
ATOM      7  C   UNL     1      32.241  -8.638 -24.304  0.00  0.00    +0.029 C 
ATOM      8  C   UNL     1      31.994  -6.540 -23.132  0.00  0.00    -0.008 C 
ATOM      9  C   UNL     1      32.565  -8.545 -21.912  0.00  0.00    +0.014 C 
ATOM     10  C   UNL     1      32.293  -7.178 -21.927  0.00  0.00    -0.002 C 
ATOM     11  C   UNL     1      31.708  -5.074 -23.120  0.00  0.00    +0.032 C 
BRANCH   6  13
ATOM     12  S   UNL     1      31.831  -5.238 -27.802  0.00  0.00    -0.059 S 
ATOM     13  N   UNL     1      31.669  -6.640 -25.548  0.00  0.00    -0.283 N 
ATOM     14  N   UNL     1      33.811  -6.189 -26.439  0.00  0.00    -0.384 NA
ATOM     15  C   UNL     1      32.505  -6.097 -26.483  0.00  0.00    +0.211 C 
ATOM     16  C   UNL     1      34.336  -5.529 -27.535  0.00  0.00    +0.124 C 
ATOM     17  C   UNL     1      33.417  -4.951 -28.386  0.00  0.00    +0.125 C 
ATOM     18  H   UNL     1      30.709  -6.585 -25.764  0.00  0.00    +0.155 HD
BRANCH  16  20
ATOM     19  N   UNL     1      37.828  -4.260 -27.470  0.00  0.00    -0.242 NA
ATOM     20  C   UNL     1      35.750  -5.457 -27.762  0.00  0.00    +0.046 C 
ATOM     21  C   UNL     1      36.414  -6.457 -28.463  0.00  0.00    +0.005 C 
ATOM     22  C   UNL     1      36.495  -4.389 -27.290  0.00  0.00    +0.101 C 
ATOM     23  C   UNL     1      37.786  -6.360 -28.668  0.00  0.00    +0.021 C 
ATOM     24  C   UNL     1      38.441  -5.251 -28.156  0.00  0.00    +0.099 C 
ENDBRANCH  16  20
ENDBRANCH   6  13
ENDBRANCH   2   5
BRANCH   3  30
ATOM     25  C   UNL     1      33.731 -15.556 -22.837  0.00  0.00    -0.043 C 
ATOM     26  C   UNL     1      33.799 -14.984 -21.573  0.00  0.00    -0.006 C 
ATOM     27  C   UNL     1      33.191 -14.859 -23.909  0.00  0.00    -0.006 C 
ATOM     28  C   UNL     1      33.317 -13.689 -21.379  0.00  0.00    +0.004 C 
ATOM     29  C   UNL     1      32.709 -13.565 -23.714  0.00  0.00    +0.004 C 
ATOM     30  C   UNL     1      32.772 -12.981 -22.450  0.00  0.00    +0.054 C 
BRANCH  25  31
ATOM     31  C   UNL     1      34.250 -16.954 -23.047  0.00  0.00    -0.050 C 
BRANCH  31  32
ATOM     32  N   UNL     1      34.381 -17.680 -21.785  0.00  0.00    +0.387 N 
ATOM     33  N   UNL     1      35.003 -20.027 -20.215  0.00  0.00    +0.383 N 
ATOM     34  C   UNL     1      33.477 -18.835 -21.751  0.00  0.00    -0.100 C 
ATOM     35  C   UNL     1      35.768 -18.110 -21.572  0.00  0.00    -0.100 C 
ATOM     36  C   UNL     1      33.616 -19.598 -20.429  0.00  0.00    -0.101 C 
ATOM     37  C   UNL     1      35.907 -18.871 -20.250  0.00  0.00    -0.101 C 
ATOM     38  C   UNL     1      35.135 -20.750 -18.952  0.00  0.00    -0.101 C 
ATOM     39  H   UNL     1      34.122 -17.046 -21.029  0.00  0.00    -0.079 HD
ATOM     40  H   UNL     1      35.263 -20.662 -20.970  0.00  0.00    -0.080 HD
ENDBRANCH  31  32
ENDBRANCH  25  31
ENDBRANCH   3  30
TORSDOF 6
ENDMDL
MODEL 3
REMARK VINA RESULT:     -10.5      6.576     11.301
REMARK  Name = 10074640
REMARK  6 active torsions:
REMARK  status: ('A' for Active; 'I' for Inactive)
REMARK    1  A    between atoms: N_2  and  C_5
REMARK    2  A    between atoms: C_3  and  C_30
REMARK    3  A    between atoms: C_6  and  N_13
REMARK    4  A    between atoms: C_16  and  C_20
REMARK    5  A    between atoms: C_25  and  C_31
REMARK    6  A    between atoms: C_31  and  N_32
REMARK                            x       y       z     vdW  Elec       q    Type
REMARK                         _______ _______ _______ _____ _____    ______ ____
ROOT
ATOM      1  O   UNL     1      31.071 -13.460 -20.114  0.00  0.00    -0.270 OA
ATOM      2  N   UNL     1      32.374 -12.713 -21.917  0.00  0.00    -0.280 N 
ATOM      3  C   UNL     1      31.592 -12.541 -20.767  0.00  0.00    +0.249 C 
ATOM      4  H   UNL     1      32.720 -11.887 -22.326  0.00  0.00    +0.155 HD
ENDROOT
BRANCH   2   5
ATOM      5  C   UNL     1      32.732 -13.919 -22.567  0.00  0.00    +0.052 C 
ATOM      6  C   UNL     1      34.181 -15.819 -22.758  0.00  0.00    +0.048 C 
ATOM      7  C   UNL     1      33.830 -14.630 -22.117  0.00  0.00    +0.029 C 
ATOM      8  C   UNL     1      33.428 -16.279 -23.837  0.00  0.00    -0.008 C 
ATOM      9  C   UNL     1      31.972 -14.361 -23.637  0.00  0.00    +0.014 C 
ATOM     10  C   UNL     1      32.323 -15.549 -24.278  0.00  0.00    -0.002 C 
ATOM     11  C   UNL     1      33.782 -17.547 -24.541  0.00  0.00    +0.032 C 
BRANCH   6  13
ATOM     12  S   UNL     1      36.900 -18.180 -20.939  0.00  0.00    -0.059 S 
ATOM     13  N   UNL     1      35.302 -16.545 -22.299  0.00  0.00    -0.283 N 
ATOM     14  N   UNL     1      34.317 -18.262 -21.005  0.00  0.00    -0.384 NA
ATOM     15  C   UNL     1      35.367 -17.619 -21.455  0.00  0.00    +0.211 C 
ATOM     16  C   UNL     1      34.747 -19.285 -20.182  0.00  0.00    +0.124 C 
ATOM     17  C   UNL     1      36.112 -19.399 -20.025  0.00  0.00    +0.125 C 
ATOM     18  H   UNL     1      36.171 -16.230 -22.639  0.00  0.00    +0.155 HD
BRANCH  16  20
ATOM     19  N   UNL     1      31.528 -20.826 -19.142  0.00  0.00    -0.242 NA
ATOM     20  C   UNL     1      33.820 -20.170 -19.537  0.00  0.00    +0.046 C 
ATOM     21  C   UNL     1      34.265 -21.194 -18.710  0.00  0.00    +0.005 C 
ATOM     22  C   UNL     1      32.454 -20.028 -19.720  0.00  0.00    +0.101 C 
ATOM     23  C   UNL     1      33.343 -22.036 -18.098  0.00  0.00    +0.021 C 
ATOM     24  C   UNL     1      31.998 -21.811 -18.345  0.00  0.00    +0.099 C 
ENDBRANCH  16  20
ENDBRANCH   6  13
ENDBRANCH   2   5
BRANCH   3  30
ATOM     25  C   UNL     1      30.952  -8.542 -19.545  0.00  0.00    -0.043 C 
ATOM     26  C   UNL     1      30.922  -9.558 -18.600  0.00  0.00    -0.006 C 
ATOM     27  C   UNL     1      31.189  -8.817 -20.884  0.00  0.00    -0.006 C 
ATOM     28  C   UNL     1      31.134 -10.877 -19.004  0.00  0.00    +0.004 C 
ATOM     29  C   UNL     1      31.401 -10.135 -21.287  0.00  0.00    +0.004 C 
ATOM     30  C   UNL     1      31.373 -11.165 -20.347  0.00  0.00    +0.054 C 
BRANCH  25  31
ATOM     31  C   UNL     1      30.725  -7.118 -19.109  0.00  0.00    -0.050 C 
BRANCH  31  32
ATOM     32  N   UNL     1      30.541  -6.223 -20.251  0.00  0.00    +0.387 N 
ATOM     33  N   UNL     1      30.835  -3.690 -21.613  0.00  0.00    +0.383 N 
ATOM     34  C   UNL     1      29.733  -5.057 -19.874  0.00  0.00    -0.100 C 
ATOM     35  C   UNL     1      31.836  -5.795 -20.792  0.00  0.00    -0.100 C 
ATOM     36  C   UNL     1      29.540  -4.118 -21.069  0.00  0.00    -0.101 C 
ATOM     37  C   UNL     1      31.643  -4.858 -21.989  0.00  0.00    -0.101 C 
ATOM     38  C   UNL     1      30.650  -2.798 -22.755  0.00  0.00    -0.101 C 
ATOM     39  H   UNL     1      30.043  -6.739 -20.977  0.00  0.00    -0.079 HD
ATOM     40  H   UNL     1      31.333  -3.174 -20.888  0.00  0.00    -0.080 HD
ENDBRANCH  31  32
ENDBRANCH  25  31
ENDBRANCH   3  30
TORSDOF 6
ENDMDL
MODEL 4
REMARK VINA RESULT:     -10.5      8.364     16.466
REMARK  Name = 10074640
REMARK  6 active torsions:
REMARK  status: ('A' for Active; 'I' for Inactive)
REMARK    1  A    between atoms: N_2  and  C_5
REMARK    2  A    between atoms: C_3  and  C_30
REMARK    3  A    between atoms: C_6  and  N_13
REMARK    4  A    between atoms: C_16  and  C_20
REMARK    5  A    between atoms: C_25  and  C_31
REMARK    6  A    between atoms: C_31  and  N_32
REMARK                            x       y       z     vdW  Elec       q    Type
REMARK                         _______ _______ _______ _____ _____    ______ ____
ROOT
ATOM      1  O   UNL     1      30.488 -11.779 -20.257  0.00  0.00    -0.270 OA
ATOM      2  N   UNL     1      31.955 -10.468 -21.536  0.00  0.00    -0.280 N 
ATOM      3  C   UNL     1      31.467 -11.674 -21.014  0.00  0.00    +0.249 C 
ATOM      4  H   UNL     1      32.741 -10.545 -22.125  0.00  0.00    +0.155 HD
ENDROOT
BRANCH   2   5
ATOM      5  C   UNL     1      31.466  -9.156 -21.328  0.00  0.00    +0.052 C 
ATOM      6  C   UNL     1      30.440  -7.166 -22.188  0.00  0.00    +0.048 C 
ATOM      7  C   UNL     1      30.923  -8.459 -22.394  0.00  0.00    +0.029 C 
ATOM      8  C   UNL     1      30.508  -6.590 -20.920  0.00  0.00    -0.008 C 
ATOM      9  C   UNL     1      31.541  -8.599 -20.063  0.00  0.00    +0.014 C 
ATOM     10  C   UNL     1      31.059  -7.307 -19.856  0.00  0.00    -0.002 C 
ATOM     11  C   UNL     1      30.000  -5.208 -20.671  0.00  0.00    +0.032 C 
BRANCH   6  13
ATOM     12  S   UNL     1      29.566  -4.900 -25.409  0.00  0.00    -0.059 S 
ATOM     13  N   UNL     1      29.886  -6.456 -23.275  0.00  0.00    -0.283 N 
ATOM     14  N   UNL     1      31.787  -5.932 -24.579  0.00  0.00    -0.384 NA
ATOM     15  C   UNL     1      30.504  -5.844 -24.330  0.00  0.00    +0.211 C 
ATOM     16  C   UNL     1      32.067  -5.195 -25.714  0.00  0.00    +0.124 C 
ATOM     17  C   UNL     1      30.991  -4.565 -26.304  0.00  0.00    +0.125 C 
ATOM     18  H   UNL     1      28.903  -6.391 -23.273  0.00  0.00    +0.155 HD
BRANCH  16  20
ATOM     19  N   UNL     1      35.062  -5.894 -27.800  0.00  0.00    -0.242 NA
ATOM     20  C   UNL     1      33.398  -5.100 -26.239  0.00  0.00    +0.046 C 
ATOM     21  C   UNL     1      34.301  -4.171 -25.736  0.00  0.00    +0.005 C 
ATOM     22  C   UNL     1      33.823  -5.932 -27.262  0.00  0.00    +0.101 C 
ATOM     23  C   UNL     1      35.585  -4.102 -26.264  0.00  0.00    +0.021 C 
ATOM     24  C   UNL     1      35.913  -4.978 -27.286  0.00  0.00    +0.099 C 
ENDBRANCH  16  20
ENDBRANCH   6  13
ENDBRANCH   2   5
BRANCH   3  30
ATOM     25  C   UNL     1      33.599 -15.161 -22.105  0.00  0.00    -0.043 C 
ATOM     26  C   UNL     1      32.975 -14.406 -23.089  0.00  0.00    -0.006 C 
ATOM     27  C   UNL     1      33.534 -14.789 -20.769  0.00  0.00    -0.006 C 
ATOM     28  C   UNL     1      32.272 -13.255 -22.728  0.00  0.00    +0.004 C 
ATOM     29  C   UNL     1      32.832 -13.639 -20.409  0.00  0.00    +0.004 C 
ATOM     30  C   UNL     1      32.201 -12.873 -21.389  0.00  0.00    +0.054 C 
BRANCH  25  31
ATOM     31  C   UNL     1      34.359 -16.402 -22.493  0.00  0.00    -0.050 C 
BRANCH  31  32
ATOM     32  N   UNL     1      34.472 -17.341 -21.379  0.00  0.00    +0.387 N 
ATOM     33  N   UNL     1      35.038 -19.941 -20.248  0.00  0.00    +0.383 N 
ATOM     34  C   UNL     1      33.541 -18.463 -21.545  0.00  0.00    -0.100 C 
ATOM     35  C   UNL     1      35.849 -17.833 -21.250  0.00  0.00    -0.100 C 
ATOM     36  C   UNL     1      33.661 -19.449 -20.378  0.00  0.00    -0.101 C 
ATOM     37  C   UNL     1      35.969 -18.818 -20.083  0.00  0.00    -0.101 C 
ATOM     38  C   UNL     1      35.152 -20.878 -19.132  0.00  0.00    -0.101 C 
ATOM     39  H   UNL     1      34.227 -16.843 -20.522  0.00  0.00    -0.079 HD
ATOM     40  H   UNL     1      35.284 -20.439 -21.104  0.00  0.00    -0.080 HD
ENDBRANCH  31  32
ENDBRANCH  25  31
ENDBRANCH   3  30
TORSDOF 6
ENDMDL
MODEL 5
REMARK VINA RESULT:     -10.4      6.721     11.717
REMARK  Name = 10074640
REMARK  6 active torsions:
REMARK  status: ('A' for Active; 'I' for Inactive)
REMARK    1  A    between atoms: N_2  and  C_5
REMARK    2  A    between atoms: C_3  and  C_30
REMARK    3  A    between atoms: C_6  and  N_13
REMARK    4  A    between atoms: C_16  and  C_20
REMARK    5  A    between atoms: C_25  and  C_31
REMARK    6  A    between atoms: C_31  and  N_32
REMARK                            x       y       z     vdW  Elec       q    Type
REMARK                         _______ _______ _______ _____ _____    ______ ____
ROOT
ATOM      1  O   UNL     1      33.307 -11.729 -25.241  0.00  0.00    -0.270 OA
ATOM      2  N   UNL     1      33.081 -12.653 -23.097  0.00  0.00    -0.280 N 
ATOM      3  C   UNL     1      33.153 -11.598 -24.016  0.00  0.00    +0.249 C 
ATOM      4  H   UNL     1      32.956 -12.392 -22.155  0.00  0.00    +0.155 HD
ENDROOT
BRANCH   2   5
ATOM      5  C   UNL     1      33.164 -14.045 -23.344  0.00  0.00    +0.052 C 
ATOM      6  C   UNL     1      34.312 -16.133 -23.076  0.00  0.00    +0.048 C 
ATOM      7  C   UNL     1      34.232 -14.761 -22.832  0.00  0.00    +0.029 C 
ATOM      8  C   UNL     1      33.323 -16.767 -23.827  0.00  0.00    -0.008 C 
ATOM      9  C   UNL     1      32.173 -14.659 -24.093  0.00  0.00    +0.014 C 
ATOM     10  C   UNL     1      32.253 -16.029 -24.337  0.00  0.00    -0.002 C 
ATOM     11  C   UNL     1      33.385 -18.233 -24.104  0.00  0.00    +0.032 C 
BRANCH   6  13
ATOM     12  S   UNL     1      36.927 -18.448 -21.057  0.00  0.00    -0.059 S 
ATOM     13  N   UNL     1      35.401 -16.863 -22.553  0.00  0.00    -0.283 N 
ATOM     14  N   UNL     1      34.343 -18.434 -21.138  0.00  0.00    -0.384 NA
ATOM     15  C   UNL     1      35.419 -17.870 -21.628  0.00  0.00    +0.211 C 
ATOM     16  C   UNL     1      34.728 -19.406 -20.234  0.00  0.00    +0.124 C 
ATOM     17  C   UNL     1      36.087 -19.560 -20.058  0.00  0.00    +0.125 C 
ATOM     18  H   UNL     1      36.283 -16.610 -22.910  0.00  0.00    +0.155 HD
BRANCH  16  20
ATOM     19  N   UNL     1      31.447 -20.681 -19.041  0.00  0.00    -0.242 NA
ATOM     20  C   UNL     1      33.764 -20.201 -19.530  0.00  0.00    +0.046 C 
ATOM     21  C   UNL     1      34.164 -21.224 -18.679  0.00  0.00    +0.005 C 
ATOM     22  C   UNL     1      32.406 -19.970 -19.676  0.00  0.00    +0.101 C 
ATOM     23  C   UNL     1      33.207 -21.978 -18.009  0.00  0.00    +0.021 C 
ATOM     24  C   UNL     1      31.873 -21.668 -18.223  0.00  0.00    +0.099 C 
ENDBRANCH  16  20
ENDBRANCH   6  13
ENDBRANCH   2   5
BRANCH   3  30
ATOM     25  C   UNL     1      32.889  -7.705 -22.382  0.00  0.00    -0.043 C 
ATOM     26  C   UNL     1      33.969  -8.035 -23.189  0.00  0.00    -0.006 C 
ATOM     27  C   UNL     1      31.894  -8.631 -22.104  0.00  0.00    -0.006 C 
ATOM     28  C   UNL     1      34.055  -9.320 -23.728  0.00  0.00    +0.004 C 
ATOM     29  C   UNL     1      31.980  -9.915 -22.643  0.00  0.00    +0.004 C 
ATOM     30  C   UNL     1      33.061 -10.258 -23.455  0.00  0.00    +0.054 C 
BRANCH  25  31
ATOM     31  C   UNL     1      32.794  -6.318 -21.802  0.00  0.00    -0.050 C 
BRANCH  31  32
ATOM     32  N   UNL     1      31.714  -5.546 -22.413  0.00  0.00    +0.387 N 
ATOM     33  N   UNL     1      30.452  -3.073 -23.219  0.00  0.00    +0.383 N 
ATOM     34  C   UNL     1      31.090  -4.654 -21.429  0.00  0.00    -0.100 C 
ATOM     35  C   UNL     1      32.209  -4.776 -23.561  0.00  0.00    -0.100 C 
ATOM     36  C   UNL     1      29.958  -3.842 -22.070  0.00  0.00    -0.101 C 
ATOM     37  C   UNL     1      31.077  -3.966 -24.202  0.00  0.00    -0.101 C 
ATOM     38  C   UNL     1      29.371  -2.303 -23.831  0.00  0.00    -0.101 C 
ATOM     39  H   UNL     1      31.008  -6.203 -22.746  0.00  0.00    -0.079 HD
ATOM     40  H   UNL     1      31.157  -2.416 -22.886  0.00  0.00    -0.080 HD
ENDBRANCH  31  32
ENDBRANCH  25  31
ENDBRANCH   3  30
TORSDOF 6
ENDMDL
