MODEL 1
REMARK VINA RESULT:     -12.4      0.000      0.000
REMARK  Name = 11634458
REMARK  5 active torsions:
REMARK  status: ('A' for Active; 'I' for Inactive)
REMARK    1  A    between atoms: N_3  and  C_11
REMARK    2  A    between atoms: C_4  and  C_19
REMARK    3  A    between atoms: C_5  and  O_35
REMARK    4  A    between atoms: N_18  and  C_22
REMARK    5  A    between atoms: C_25  and  N_29
REMARK                            x       y       z     vdW  Elec       q    Type
REMARK                         _______ _______ _______ _____ _____    ______ ____
ROOT
ATOM      1  O   UNL     1      31.286 -23.330 -11.962  0.00  0.00    -0.252 OA
ATOM      2  N   UNL     1      33.206 -23.853 -13.109  0.00  0.00    -0.255 N 
ATOM      3  N   UNL     1      31.223 -23.433 -14.290  0.00  0.00    -0.268 N 
ATOM      4  C   UNL     1      33.975 -24.265 -14.282  0.00  0.00    +0.156 C 
ATOM      5  C   UNL     1      35.423 -24.242 -12.359  0.00  0.00    +0.137 C 
ATOM      6  C   UNL     1      35.239 -24.914 -13.718  0.00  0.00    +0.061 C 
ATOM      7  C   UNL     1      34.000 -23.979 -11.889  0.00  0.00    +0.125 C 
ATOM      8  C   UNL     1      31.844 -23.523 -13.044  0.00  0.00    +0.308 C 
ATOM      9  H   UNL     1      31.794 -23.612 -15.072  0.00  0.00    +0.156 HD
ENDROOT
BRANCH   3  11
ATOM     10 CL   UNL     1      25.569 -22.100 -15.449  0.00  0.00    -0.082 Cl
ATOM     11  C   UNL     1      29.871 -23.114 -14.567  0.00  0.00    +0.052 C 
ATOM     12  C   UNL     1      29.118 -23.946 -15.392  0.00  0.00    +0.016 C 
ATOM     13  C   UNL     1      29.301 -21.970 -14.014  0.00  0.00    +0.016 C 
ATOM     14  C   UNL     1      27.786 -23.632 -15.665  0.00  0.00    +0.013 C 
ATOM     15  C   UNL     1      27.970 -21.656 -14.287  0.00  0.00    +0.013 C 
ATOM     16  C   UNL     1      27.213 -22.487 -15.113  0.00  0.00    +0.058 C 
ENDBRANCH   3  11
BRANCH   4  19
ATOM     17  O   UNL     1      34.923 -22.109 -14.582  0.00  0.00    -0.273 OA
ATOM     18  N   UNL     1      33.834 -23.155 -16.387  0.00  0.00    -0.281 N 
ATOM     19  C   UNL     1      34.308 -23.043 -15.087  0.00  0.00    +0.244 C 
ATOM     20  H   UNL     1      33.357 -23.988 -16.607  0.00  0.00    +0.155 HD
BRANCH  18  22
ATOM     21  F   UNL     1      31.591 -22.085 -17.627  0.00  0.00    -0.203 F 
ATOM     22  C   UNL     1      33.955 -22.209 -17.432  0.00  0.00    +0.078 C 
ATOM     23  C   UNL     1      32.812 -21.699 -18.024  0.00  0.00    +0.155 C 
ATOM     24  C   UNL     1      35.218 -21.814 -17.841  0.00  0.00    +0.018 C 
ATOM     25  C   UNL     1      34.200 -20.360 -19.480  0.00  0.00    +0.061 C 
ATOM     26  C   UNL     1      32.935 -20.768 -19.056  0.00  0.00    +0.046 C 
ATOM     27  C   UNL     1      35.341 -20.883 -18.873  0.00  0.00    +0.017 C 
BRANCH  25  29
ATOM     28  O   UNL     1      36.310 -18.396 -19.717  0.00  0.00    -0.269 OA
ATOM     29  N   UNL     1      34.327 -19.392 -20.553  0.00  0.00    -0.233 N 
ATOM     30  C   UNL     1      35.434 -18.505 -20.576  0.00  0.00    +0.257 C 
ATOM     31  C   UNL     1      33.356 -19.310 -21.553  0.00  0.00    +0.072 C 
ATOM     32  C   UNL     1      35.515 -17.572 -21.742  0.00  0.00    +0.059 C 
ATOM     33  C   UNL     1      33.434 -18.443 -22.567  0.00  0.00    +0.017 C 
ATOM     34  C   UNL     1      34.551 -17.554 -22.666  0.00  0.00    +0.006 C 
ENDBRANCH  25  29
ENDBRANCH  18  22
ENDBRANCH   4  19
BRANCH   5  35
ATOM     35  O   UNL     1      36.125 -23.015 -12.521  0.00  0.00    -0.352 OA
ATOM     36  C   UNL     1      36.424 -22.416 -11.268  0.00  0.00    +0.174 C 
ENDBRANCH   5  35
TORSDOF 5
ENDMDL
MODEL 2
REMARK VINA RESULT:     -11.5      1.853      2.585
REMARK  Name = 11634458
REMARK  5 active torsions:
REMARK  status: ('A' for Active; 'I' for Inactive)
REMARK    1  A    between atoms: N_3  and  C_11
REMARK    2  A    between atoms: C_4  and  C_19
REMARK    3  A    between atoms: C_5  and  O_35
REMARK    4  A    between atoms: N_18  and  C_22
REMARK    5  A    between atoms: C_25  and  N_29
REMARK                            x       y       z     vdW  Elec       q    Type
REMARK                         _______ _______ _______ _____ _____    ______ ____
ROOT
ATOM      1  O   UNL     1      32.570 -23.121 -11.299  0.00  0.00    -0.252 OA
ATOM      2  N   UNL     1      34.388 -24.320 -12.031  0.00  0.00    -0.255 N 
ATOM      3  N   UNL     1      32.412 -24.314 -13.296  0.00  0.00    -0.268 N 
ATOM      4  C   UNL     1      35.069 -25.317 -12.854  0.00  0.00    +0.156 C 
ATOM      5  C   UNL     1      36.583 -24.528 -11.156  0.00  0.00    +0.137 C 
ATOM      6  C   UNL     1      36.285 -25.743 -12.031  0.00  0.00    +0.061 C 
ATOM      7  C   UNL     1      35.211 -23.929 -10.888  0.00  0.00    +0.125 C 
ATOM      8  C   UNL     1      33.067 -23.862 -12.150  0.00  0.00    +0.308 C 
ATOM      9  H   UNL     1      32.934 -24.901 -13.889  0.00  0.00    +0.156 HD
ENDROOT
BRANCH   3  11
ATOM     10 CL   UNL     1      26.873 -23.124 -15.026  0.00  0.00    -0.082 Cl
ATOM     11  C   UNL     1      31.087 -24.029 -13.710  0.00  0.00    +0.052 C 
ATOM     12  C   UNL     1      30.818 -22.860 -14.415  0.00  0.00    +0.016 C 
ATOM     13  C   UNL     1      30.061 -24.921 -13.408  0.00  0.00    +0.016 C 
ATOM     14  C   UNL     1      29.513 -22.579 -14.823  0.00  0.00    +0.013 C 
ATOM     15  C   UNL     1      28.757 -24.640 -13.816  0.00  0.00    +0.013 C 
ATOM     16  C   UNL     1      28.483 -23.469 -14.523  0.00  0.00    +0.058 C 
ENDBRANCH   3  11
BRANCH   4  19
ATOM     17  O   UNL     1      36.499 -25.038 -14.729  0.00  0.00    -0.273 OA
ATOM     18  N   UNL     1      34.605 -23.660 -14.504  0.00  0.00    -0.281 N 
ATOM     19  C   UNL     1      35.489 -24.668 -14.140  0.00  0.00    +0.244 C 
ATOM     20  H   UNL     1      33.846 -23.506 -13.896  0.00  0.00    +0.155 HD
BRANCH  18  22
ATOM     21  F   UNL     1      36.800 -22.025 -14.972  0.00  0.00    -0.203 F 
ATOM     22  C   UNL     1      34.670 -22.829 -15.647  0.00  0.00    +0.078 C 
ATOM     23  C   UNL     1      35.782 -22.029 -15.844  0.00  0.00    +0.155 C 
ATOM     24  C   UNL     1      33.615 -22.834 -16.545  0.00  0.00    +0.018 C 
ATOM     25  C   UNL     1      34.788 -21.202 -17.885  0.00  0.00    +0.061 C 
ATOM     26  C   UNL     1      35.842 -21.209 -16.971  0.00  0.00    +0.046 C 
ATOM     27  C   UNL     1      33.675 -22.014 -17.672  0.00  0.00    +0.017 C 
BRANCH  25  29
ATOM     28  O   UNL     1      32.553 -20.559 -19.606  0.00  0.00    -0.269 OA
ATOM     29  N   UNL     1      34.850 -20.350 -19.058  0.00  0.00    -0.233 N 
ATOM     30  C   UNL     1      33.671 -20.078 -19.798  0.00  0.00    +0.257 C 
ATOM     31  C   UNL     1      36.068 -19.810 -19.478  0.00  0.00    +0.072 C 
ATOM     32  C   UNL     1      33.814 -19.152 -20.963  0.00  0.00    +0.059 C 
ATOM     33  C   UNL     1      36.175 -19.012 -20.544  0.00  0.00    +0.017 C 
ATOM     34  C   UNL     1      35.011 -18.668 -21.303  0.00  0.00    +0.006 C 
ENDBRANCH  25  29
ENDBRANCH  18  22
ENDBRANCH   4  19
BRANCH   5  35
ATOM     35  O   UNL     1      37.393 -23.606 -11.876  0.00  0.00    -0.352 OA
ATOM     36  C   UNL     1      37.114 -22.264 -11.500  0.00  0.00    +0.174 C 
ENDBRANCH   5  35
TORSDOF 5
ENDMDL
MODEL 3
REMARK VINA RESULT:     -10.5     10.064     15.527
REMARK  Name = 11634458
REMARK  5 active torsions:
REMARK  status: ('A' for Active; 'I' for Inactive)
REMARK    1  A    between atoms: N_3  and  C_11
REMARK    2  A    between atoms: C_4  and  C_19
REMARK    3  A    between atoms: C_5  and  O_35
REMARK    4  A    between atoms: N_18  and  C_22
REMARK    5  A    between atoms: C_25  and  N_29
REMARK                            x       y       z     vdW  Elec       q    Type
REMARK                         _______ _______ _______ _____ _____    ______ ____
ROOT
ATOM      1  O   UNL     1      32.762  -5.109 -22.873  0.00  0.00    -0.252 OA
ATOM      2  N   UNL     1      31.701  -6.952 -22.006  0.00  0.00    -0.255 N 
ATOM      3  N   UNL     1      32.189  -6.862 -24.299  0.00  0.00    -0.268 N 
ATOM      4  C   UNL     1      30.933  -8.194 -22.083  0.00  0.00    +0.156 C 
ATOM      5  C   UNL     1      31.114  -7.519 -19.778  0.00  0.00    +0.137 C 
ATOM      6  C   UNL     1      30.215  -8.297 -20.736  0.00  0.00    +0.061 C 
ATOM      7  C   UNL     1      31.702  -6.417 -20.646  0.00  0.00    +0.125 C 
ATOM      8  C   UNL     1      32.259  -6.218 -23.063  0.00  0.00    +0.308 C 
ATOM      9  H   UNL     1      31.759  -7.748 -24.301  0.00  0.00    +0.156 HD
ENDROOT
BRANCH   3  11
ATOM     10 CL   UNL     1      34.172  -4.917 -29.530  0.00  0.00    -0.082 Cl
ATOM     11  C   UNL     1      32.663  -6.397 -25.550  0.00  0.00    +0.052 C 
ATOM     12  C   UNL     1      34.031  -6.378 -25.809  0.00  0.00    +0.016 C 
ATOM     13  C   UNL     1      31.759  -5.960 -26.514  0.00  0.00    +0.016 C 
ATOM     14  C   UNL     1      34.499  -5.920 -27.041  0.00  0.00    +0.013 C 
ATOM     15  C   UNL     1      32.226  -5.502 -27.746  0.00  0.00    +0.013 C 
ATOM     16  C   UNL     1      33.596  -5.482 -28.009  0.00  0.00    +0.058 C 
ENDBRANCH   3  11
BRANCH   4  19
ATOM     17  O   UNL     1      32.978  -9.158 -22.807  0.00  0.00    -0.273 OA
ATOM     18  N   UNL     1      31.355 -10.520 -21.783  0.00  0.00    -0.281 N 
ATOM     19  C   UNL     1      31.887  -9.335 -22.274  0.00  0.00    +0.244 C 
ATOM     20  H   UNL     1      30.455 -10.463 -21.388  0.00  0.00    +0.155 HD
BRANCH  18  22
ATOM     21  F   UNL     1      30.913 -12.322 -19.718  0.00  0.00    -0.203 F 
ATOM     22  C   UNL     1      31.957 -11.801 -21.786  0.00  0.00    +0.078 C 
ATOM     23  C   UNL     1      31.711 -12.670 -20.738  0.00  0.00    +0.155 C 
ATOM     24  C   UNL     1      32.782 -12.156 -22.841  0.00  0.00    +0.018 C 
ATOM     25  C   UNL     1      33.140 -14.305 -21.797  0.00  0.00    +0.061 C 
ATOM     26  C   UNL     1      32.307 -13.931 -20.743  0.00  0.00    +0.046 C 
ATOM     27  C   UNL     1      33.377 -13.417 -22.846  0.00  0.00    +0.017 C 
BRANCH  25  29
ATOM     28  O   UNL     1      33.514 -15.968 -24.134  0.00  0.00    -0.269 OA
ATOM     29  N   UNL     1      33.760 -15.617 -21.802  0.00  0.00    -0.233 N 
ATOM     30  C   UNL     1      33.921 -16.317 -23.025  0.00  0.00    +0.257 C 
ATOM     31  C   UNL     1      34.179 -16.206 -20.608  0.00  0.00    +0.072 C 
ATOM     32  C   UNL     1      34.612 -17.641 -22.947  0.00  0.00    +0.059 C 
ATOM     33  C   UNL     1      34.765 -17.407 -20.562  0.00  0.00    +0.017 C 
ATOM     34  C   UNL     1      34.993 -18.141 -21.770  0.00  0.00    +0.006 C 
ENDBRANCH  25  29
ENDBRANCH  18  22
ENDBRANCH   4  19
BRANCH   5  35
ATOM     35  O   UNL     1      32.147  -8.370 -19.293  0.00  0.00    -0.352 OA
ATOM     36  C   UNL     1      31.636  -9.357 -18.408  0.00  0.00    +0.174 C 
ENDBRANCH   5  35
TORSDOF 5
ENDMDL
MODEL 4
REMARK VINA RESULT:      -9.7     14.009     20.267
REMARK  Name = 11634458
REMARK  5 active torsions:
REMARK  status: ('A' for Active; 'I' for Inactive)
REMARK    1  A    between atoms: N_3  and  C_11
REMARK    2  A    between atoms: C_4  and  C_19
REMARK    3  A    between atoms: C_5  and  O_35
REMARK    4  A    between atoms: N_18  and  C_22
REMARK    5  A    between atoms: C_25  and  N_29
REMARK                            x       y       z     vdW  Elec       q    Type
REMARK                         _______ _______ _______ _____ _____    ______ ____
ROOT
ATOM      1  O   UNL     1      35.156  -2.944 -28.683  0.00  0.00    -0.252 OA
ATOM      2  N   UNL     1      33.267  -4.120 -28.114  0.00  0.00    -0.255 N 
ATOM      3  N   UNL     1      35.365  -5.164 -28.004  0.00  0.00    -0.268 N 
ATOM      4  C   UNL     1      32.501  -5.331 -27.822  0.00  0.00    +0.156 C 
ATOM      5  C   UNL     1      30.993  -3.460 -27.973  0.00  0.00    +0.137 C 
ATOM      6  C   UNL     1      31.054  -4.974 -28.163  0.00  0.00    +0.061 C 
ATOM      7  C   UNL     1      32.381  -2.987 -28.374  0.00  0.00    +0.125 C 
ATOM      8  C   UNL     1      34.652  -4.002 -28.299  0.00  0.00    +0.308 C 
ATOM      9  H   UNL     1      34.830  -5.935 -27.706  0.00  0.00    +0.156 HD
ENDROOT
BRANCH   3  11
ATOM     10 CL   UNL     1      41.217  -6.022 -28.321  0.00  0.00    -0.082 Cl
ATOM     11  C   UNL     1      36.764  -5.370 -28.080  0.00  0.00    +0.052 C 
ATOM     12  C   UNL     1      37.622  -4.584 -27.314  0.00  0.00    +0.016 C 
ATOM     13  C   UNL     1      37.276  -6.356 -28.920  0.00  0.00    +0.016 C 
ATOM     14  C   UNL     1      39.001  -4.786 -27.389  0.00  0.00    +0.013 C 
ATOM     15  C   UNL     1      38.653  -6.557 -28.994  0.00  0.00    +0.013 C 
ATOM     16  C   UNL     1      39.516  -5.772 -28.229  0.00  0.00    +0.058 C 
ENDBRANCH   3  11
BRANCH   4  19
ATOM     17  O   UNL     1      33.469  -5.054 -25.672  0.00  0.00    -0.273 OA
ATOM     18  N   UNL     1      31.767  -6.650 -25.977  0.00  0.00    -0.281 N 
ATOM     19  C   UNL     1      32.648  -5.648 -26.363  0.00  0.00    +0.244 C 
ATOM     20  H   UNL     1      31.182  -7.010 -26.682  0.00  0.00    +0.155 HD
BRANCH  18  22
ATOM     21  F   UNL     1      33.630  -8.441 -24.959  0.00  0.00    -0.203 F 
ATOM     22  C   UNL     1      31.615  -7.214 -24.689  0.00  0.00    +0.078 C 
ATOM     23  C   UNL     1      32.565  -8.102 -24.218  0.00  0.00    +0.155 C 
ATOM     24  C   UNL     1      30.512  -6.863 -23.926  0.00  0.00    +0.018 C 
ATOM     25  C   UNL     1      31.307  -8.315 -22.166  0.00  0.00    +0.061 C 
ATOM     26  C   UNL     1      32.411  -8.657 -22.947  0.00  0.00    +0.046 C 
ATOM     27  C   UNL     1      30.358  -7.418 -22.656  0.00  0.00    +0.017 C 
BRANCH  25  29
ATOM     28  O   UNL     1      32.154  -7.084 -19.689  0.00  0.00    -0.269 OA
ATOM     29  N   UNL     1      31.146  -8.893 -20.845  0.00  0.00    -0.233 N 
ATOM     30  C   UNL     1      31.569  -8.168 -19.701  0.00  0.00    +0.257 C 
ATOM     31  C   UNL     1      30.598 -10.168 -20.691  0.00  0.00    +0.072 C 
ATOM     32  C   UNL     1      31.323  -8.815 -18.375  0.00  0.00    +0.059 C 
ATOM     33  C   UNL     1      30.420 -10.738 -19.495  0.00  0.00    +0.017 C 
ATOM     34  C   UNL     1      30.788 -10.035 -18.304  0.00  0.00    +0.006 C 
ENDBRANCH  25  29
ENDBRANCH  18  22
ENDBRANCH   4  19
BRANCH   5  35
ATOM     35  O   UNL     1      30.745  -3.159 -26.604  0.00  0.00    -0.352 OA
ATOM     36  C   UNL     1      29.496  -3.682 -26.174  0.00  0.00    +0.174 C 
ENDBRANCH   5  35
TORSDOF 5
ENDMDL
