MODEL 1
REMARK VINA RESULT:     -12.8      0.000      0.000
REMARK  Name = 46937081
REMARK  6 active torsions:
REMARK  status: ('A' for Active; 'I' for Inactive)
REMARK    1  A    between atoms: N_1  and  C_10
REMARK    2  A    between atoms: C_4  and  C_16
REMARK    3  A    between atoms: C_9  and  C_31
REMARK    4  A    between atoms: C_16  and  C_17
REMARK    5  A    between atoms: C_18  and  N_23
REMARK    6  A    between atoms: C_31  and  N_32
REMARK                            x       y       z     vdW  Elec       q    Type
REMARK                         _______ _______ _______ _____ _____    ______ ____
ROOT
ATOM      1  N   UNL     1      33.277 -23.035 -14.929  0.00  0.00    -0.267 N 
ATOM      2  N   UNL     1      34.387 -23.247 -12.797  0.00  0.00    -0.341 NA
ATOM      3  N   UNL     1      36.750 -22.670 -12.896  0.00  0.00    -0.188 NA
ATOM      4  C   UNL     1      33.629 -22.667 -16.201  0.00  0.00    +0.035 C 
ATOM      5  C   UNL     1      34.374 -22.959 -14.111  0.00  0.00    +0.199 C 
ATOM      6  C   UNL     1      35.451 -22.533 -14.878  0.00  0.00    +0.066 C 
ATOM      7  C   UNL     1      34.971 -22.351 -16.200  0.00  0.00    +0.016 C 
ATOM      8  C   UNL     1      36.672 -22.393 -14.218  0.00  0.00    +0.114 C 
ATOM      9  C   UNL     1      35.619 -23.074 -12.276  0.00  0.00    +0.042 C 
ENDROOT
BRANCH   1  10
ATOM     10  C   UNL     1      31.889 -23.462 -14.486  0.00  0.00    +0.079 C 
ATOM     11  C   UNL     1      31.943 -24.485 -13.339  0.00  0.00    +0.020 C 
ATOM     12  C   UNL     1      31.012 -22.256 -14.108  0.00  0.00    +0.020 C 
ATOM     13  C   UNL     1      30.541 -24.916 -12.909  0.00  0.00    +0.002 C 
ATOM     14  C   UNL     1      29.615 -22.695 -13.674  0.00  0.00    +0.002 C 
ATOM     15  C   UNL     1      29.672 -23.717 -12.542  0.00  0.00    +0.000 C 
ENDBRANCH   1  10
BRANCH   4  16
ATOM     16  C   UNL     1      32.630 -22.647 -17.341  0.00  0.00    +0.068 C 
BRANCH  16  17
ATOM     17  C   UNL     1      32.905 -21.603 -18.369  0.00  0.00    -0.016 C 
ATOM     18  C   UNL     1      33.421 -19.649 -20.293  0.00  0.00    +0.048 C 
ATOM     19  C   UNL     1      34.217 -21.351 -18.773  0.00  0.00    -0.003 C 
ATOM     20  C   UNL     1      31.852 -20.879 -18.927  0.00  0.00    -0.003 C 
ATOM     21  C   UNL     1      34.474 -20.374 -19.735  0.00  0.00    +0.014 C 
ATOM     22  C   UNL     1      32.110 -19.901 -19.889  0.00  0.00    +0.014 C 
BRANCH  18  23
ATOM     23  N   UNL     1      33.679 -18.670 -21.258  0.00  0.00    -0.312 N 
ATOM     24  N   UNL     1      34.457 -16.731 -23.206  0.00  0.00    +0.388 N 
ATOM     25  C   UNL     1      33.788 -19.050 -22.670  0.00  0.00    +0.068 C 
ATOM     26  C   UNL     1      34.460 -17.494 -20.855  0.00  0.00    +0.068 C 
ATOM     27  C   UNL     1      34.211 -16.329 -21.817  0.00  0.00    -0.056 C 
ATOM     28  C   UNL     1      33.562 -17.835 -23.573  0.00  0.00    -0.056 C 
ATOM     29  C   UNL     1      34.269 -15.597 -24.110  0.00  0.00    -0.101 C 
ATOM     30  H   UNL     1      35.423 -17.049 -23.292  0.00  0.00    -0.080 HD
ENDBRANCH  18  23
ENDBRANCH  16  17
ENDBRANCH   4  16
BRANCH   9  31
ATOM     31  C   UNL     1      35.751 -23.368 -10.818  0.00  0.00    +0.030 C 
BRANCH  31  32
ATOM     32  N   UNL     1      37.106 -23.784 -10.456  0.00  0.00    +0.390 N 
ATOM     33  H   UNL     1      37.267 -24.739 -10.781  0.00  0.00    -0.088 HD
ATOM     34  H   UNL     1      37.214 -23.748  -9.443  0.00  0.00    -0.088 HD
ATOM     35  H   UNL     1      37.783 -23.158 -10.893  0.00  0.00    -0.088 HD
ENDBRANCH  31  32
ENDBRANCH   9  31
TORSDOF 6
ENDMDL
MODEL 2
REMARK VINA RESULT:     -11.8      1.833      4.042
REMARK  Name = 46937081
REMARK  6 active torsions:
REMARK  status: ('A' for Active; 'I' for Inactive)
REMARK    1  A    between atoms: N_1  and  C_10
REMARK    2  A    between atoms: C_4  and  C_16
REMARK    3  A    between atoms: C_9  and  C_31
REMARK    4  A    between atoms: C_16  and  C_17
REMARK    5  A    between atoms: C_18  and  N_23
REMARK    6  A    between atoms: C_31  and  N_32
REMARK                            x       y       z     vdW  Elec       q    Type
REMARK                         _______ _______ _______ _____ _____    ______ ____
ROOT
ATOM      1  N   UNL     1      33.416 -22.978 -15.686  0.00  0.00    -0.267 N 
ATOM      2  N   UNL     1      31.786 -23.739 -14.078  0.00  0.00    -0.341 NA
ATOM      3  N   UNL     1      29.494 -23.281 -14.760  0.00  0.00    -0.188 NA
ATOM      4  C   UNL     1      33.393 -22.349 -16.903  0.00  0.00    +0.035 C 
ATOM      5  C   UNL     1      32.133 -23.153 -15.238  0.00  0.00    +0.199 C 
ATOM      6  C   UNL     1      31.271 -22.622 -16.189  0.00  0.00    +0.066 C 
ATOM      7  C   UNL     1      32.077 -22.115 -17.240  0.00  0.00    +0.016 C 
ATOM      8  C   UNL     1      29.907 -22.703 -15.912  0.00  0.00    +0.114 C 
ATOM      9  C   UNL     1      30.446 -23.756 -13.926  0.00  0.00    +0.042 C 
ENDROOT
BRANCH   1  10
ATOM     10  C   UNL     1      34.664 -23.418 -14.943  0.00  0.00    +0.079 C 
ATOM     11  C   UNL     1      34.940 -22.536 -13.713  0.00  0.00    +0.020 C 
ATOM     12  C   UNL     1      34.605 -24.905 -14.553  0.00  0.00    +0.020 C 
ATOM     13  C   UNL     1      36.204 -22.981 -12.979  0.00  0.00    +0.002 C 
ATOM     14  C   UNL     1      35.870 -25.340 -13.816  0.00  0.00    +0.002 C 
ATOM     15  C   UNL     1      36.146 -24.458 -12.601  0.00  0.00    +0.000 C 
ENDBRANCH   1  10
BRANCH   4  16
ATOM     16  C   UNL     1      34.662 -22.014 -17.662  0.00  0.00    +0.068 C 
BRANCH  16  17
ATOM     17  C   UNL     1      34.476 -20.991 -18.731  0.00  0.00    -0.016 C 
ATOM     18  C   UNL     1      34.126 -19.075 -20.728  0.00  0.00    +0.048 C 
ATOM     19  C   UNL     1      33.198 -20.720 -19.222  0.00  0.00    -0.003 C 
ATOM     20  C   UNL     1      35.578 -20.303 -19.237  0.00  0.00    -0.003 C 
ATOM     21  C   UNL     1      33.024 -19.763 -20.221  0.00  0.00    +0.014 C 
ATOM     22  C   UNL     1      35.404 -19.345 -20.237  0.00  0.00    +0.014 C 
BRANCH  18  23
ATOM     23  N   UNL     1      33.951 -18.114 -21.730  0.00  0.00    -0.312 N 
ATOM     24  N   UNL     1      33.850 -16.166 -23.817  0.00  0.00    +0.388 N 
ATOM     25  C   UNL     1      33.781 -18.538 -23.124  0.00  0.00    +0.068 C 
ATOM     26  C   UNL     1      34.571 -16.797 -21.539  0.00  0.00    +0.068 C 
ATOM     27  C   UNL     1      33.880 -15.747 -22.411  0.00  0.00    -0.056 C 
ATOM     28  C   UNL     1      33.116 -17.431 -23.945  0.00  0.00    -0.056 C 
ATOM     29  C   UNL     1      33.237 -15.131 -24.648  0.00  0.00    -0.101 C 
ATOM     30  H   UNL     1      34.807 -16.307 -24.140  0.00  0.00    -0.080 HD
ENDBRANCH  18  23
ENDBRANCH  16  17
ENDBRANCH   4  16
BRANCH   9  31
ATOM     31  C   UNL     1      29.946 -24.385 -12.668  0.00  0.00    +0.030 C 
BRANCH  31  32
ATOM     32  N   UNL     1      28.708 -25.136 -12.876  0.00  0.00    +0.390 N 
ATOM     33  H   UNL     1      28.065 -24.953 -12.104  0.00  0.00    -0.088 HD
ATOM     34  H   UNL     1      28.917 -26.133 -12.915  0.00  0.00    -0.088 HD
ATOM     35  H   UNL     1      28.277 -24.845 -13.754  0.00  0.00    -0.088 HD
ENDBRANCH  31  32
ENDBRANCH   9  31
TORSDOF 6
ENDMDL
MODEL 3
REMARK VINA RESULT:     -10.5     10.850     17.903
REMARK  Name = 46937081
REMARK  6 active torsions:
REMARK  status: ('A' for Active; 'I' for Inactive)
REMARK    1  A    between atoms: N_1  and  C_10
REMARK    2  A    between atoms: C_4  and  C_16
REMARK    3  A    between atoms: C_9  and  C_31
REMARK    4  A    between atoms: C_16  and  C_17
REMARK    5  A    between atoms: C_18  and  N_23
REMARK    6  A    between atoms: C_31  and  N_32
REMARK                            x       y       z     vdW  Elec       q    Type
REMARK                         _______ _______ _______ _____ _____    ______ ____
ROOT
ATOM      1  N   UNL     1      32.488  -4.906 -23.993  0.00  0.00    -0.267 N 
ATOM      2  N   UNL     1      30.664  -3.363 -24.330  0.00  0.00    -0.341 NA
ATOM      3  N   UNL     1      29.262  -3.105 -22.356  0.00  0.00    -0.188 NA
ATOM      4  C   UNL     1      32.952  -5.687 -22.967  0.00  0.00    +0.035 C 
ATOM      5  C   UNL     1      31.375  -4.222 -23.578  0.00  0.00    +0.199 C 
ATOM      6  C   UNL     1      31.123  -4.575 -22.259  0.00  0.00    +0.066 C 
ATOM      7  C   UNL     1      32.126  -5.503 -21.880  0.00  0.00    +0.016 C 
ATOM      8  C   UNL     1      30.018  -3.979 -21.652  0.00  0.00    +0.114 C 
ATOM      9  C   UNL     1      29.627  -2.855 -23.634  0.00  0.00    +0.042 C 
ENDROOT
BRANCH   1  10
ATOM     10  C   UNL     1      33.104  -4.808 -25.376  0.00  0.00    +0.079 C 
ATOM     11  C   UNL     1      34.638  -4.700 -25.314  0.00  0.00    +0.020 C 
ATOM     12  C   UNL     1      32.670  -5.974 -26.281  0.00  0.00    +0.020 C 
ATOM     13  C   UNL     1      35.247  -4.591 -26.711  0.00  0.00    +0.002 C 
ATOM     14  C   UNL     1      33.287  -5.861 -27.673  0.00  0.00    +0.002 C 
ATOM     15  C   UNL     1      34.808  -5.745 -27.608  0.00  0.00    +0.000 C 
ENDBRANCH   1  10
BRANCH   4  16
ATOM     16  C   UNL     1      34.179  -6.568 -23.115  0.00  0.00    +0.068 C 
BRANCH  16  17
ATOM     17  C   UNL     1      33.865  -8.004 -23.366  0.00  0.00    -0.016 C 
ATOM     18  C   UNL     1      33.281 -10.692 -23.834  0.00  0.00    +0.048 C 
ATOM     19  C   UNL     1      34.620  -8.732 -24.287  0.00  0.00    -0.003 C 
ATOM     20  C   UNL     1      32.820  -8.620 -22.679  0.00  0.00    -0.003 C 
ATOM     21  C   UNL     1      34.328 -10.075 -24.521  0.00  0.00    +0.014 C 
ATOM     22  C   UNL     1      32.527  -9.964 -22.913  0.00  0.00    +0.014 C 
BRANCH  18  23
ATOM     23  N   UNL     1      32.988 -12.039 -24.068  0.00  0.00    -0.312 N 
ATOM     24  N   UNL     1      32.145 -14.737 -24.481  0.00  0.00    +0.388 N 
ATOM     25  C   UNL     1      32.463 -12.453 -25.373  0.00  0.00    +0.068 C 
ATOM     26  C   UNL     1      32.574 -12.864 -22.927  0.00  0.00    +0.068 C 
ATOM     27  C   UNL     1      32.799 -14.348 -23.226  0.00  0.00    -0.056 C 
ATOM     28  C   UNL     1      32.690 -13.951 -25.594  0.00  0.00    -0.056 C 
ATOM     29  C   UNL     1      32.320 -16.167 -24.729  0.00  0.00    -0.101 C 
ATOM     30  H   UNL     1      31.146 -14.548 -24.404  0.00  0.00    -0.080 HD
ENDBRANCH  18  23
ENDBRANCH  16  17
ENDBRANCH   4  16
BRANCH   9  31
ATOM     31  C   UNL     1      28.765  -1.885 -24.373  0.00  0.00    +0.030 C 
BRANCH  31  32
ATOM     32  N   UNL     1      27.693  -2.549 -25.116  0.00  0.00    +0.390 N 
ATOM     33  H   UNL     1      28.049  -3.414 -25.526  0.00  0.00    -0.088 HD
ATOM     34  H   UNL     1      27.362  -1.933 -25.857  0.00  0.00    -0.088 HD
ATOM     35  H   UNL     1      26.923  -2.764 -24.482  0.00  0.00    -0.088 HD
ENDBRANCH  31  32
ENDBRANCH   9  31
TORSDOF 6
ENDMDL
