MODEL 1
REMARK VINA RESULT:     -11.3      0.000      0.000
REMARK  Name = 11691242
REMARK  5 active torsions:
REMARK  status: ('A' for Active; 'I' for Inactive)
REMARK    1  A    between atoms: N_1  and  C_25
REMARK    2  A    between atoms: C_5  and  N_11
REMARK    3  A    between atoms: N_12  and  C_17
REMARK    4  A    between atoms: C_18  and  O_23
REMARK    5  A    between atoms: C_25  and  C_28
REMARK                            x       y       z     vdW  Elec       q    Type
REMARK                         _______ _______ _______ _____ _____    ______ ____
ROOT
ATOM      1  N   UNL     1      34.292 -16.357 -21.677  0.00  0.00    -0.282 N 
ATOM      2  C   UNL     1      33.687 -15.526 -22.592  0.00  0.00    +0.053 C 
ATOM      3  C   UNL     1      33.109 -14.476 -21.875  0.00  0.00    +0.028 C 
ATOM      4  C   UNL     1      34.116 -15.871 -20.409  0.00  0.00    +0.066 C 
ATOM      5  C   UNL     1      32.418 -13.472 -22.581  0.00  0.00    +0.053 C 
ATOM      6  C   UNL     1      33.387 -14.708 -20.498  0.00  0.00    +0.019 C 
ATOM      7  C   UNL     1      33.609 -15.622 -23.986  0.00  0.00    +0.015 C 
ATOM      8  C   UNL     1      32.331 -13.554 -23.976  0.00  0.00    +0.015 C 
ATOM      9  C   UNL     1      32.918 -14.613 -24.666  0.00  0.00    +0.003 C 
ENDROOT
BRANCH   5  11
ATOM     10  O   UNL     1      32.869 -10.533 -22.864  0.00  0.00    -0.252 OA
ATOM     11  N   UNL     1      31.822 -12.401 -21.914  0.00  0.00    -0.268 N 
ATOM     12  N   UNL     1      31.243 -10.281 -21.202  0.00  0.00    -0.266 N 
ATOM     13  C   UNL     1      32.062 -11.015 -22.075  0.00  0.00    +0.308 C 
ATOM     14  H   UNL     1      31.144 -12.640 -21.241  0.00  0.00    +0.156 HD
ATOM     15  H   UNL     1      30.644 -10.809 -20.627  0.00  0.00    +0.157 HD
BRANCH  12  17
ATOM     16 BR   UNL     1      30.343  -5.638 -23.504  0.00  0.00    -0.049 Br
ATOM     17  C   UNL     1      31.173  -8.876 -21.048  0.00  0.00    +0.086 C 
ATOM     18  C   UNL     1      31.426  -8.302 -19.812  0.00  0.00    +0.152 C 
ATOM     19  C   UNL     1      30.849  -8.101 -22.150  0.00  0.00    +0.024 C 
ATOM     20  C   UNL     1      31.353  -6.916 -19.675  0.00  0.00    +0.039 C 
ATOM     21  C   UNL     1      30.777  -6.714 -22.012  0.00  0.00    +0.036 C 
ATOM     22  C   UNL     1      31.028  -6.122 -20.775  0.00  0.00    +0.010 C 
BRANCH  18  23
ATOM     23  O   UNL     1      31.747  -9.060 -18.726  0.00  0.00    -0.470 OA
ATOM     24  C   UNL     1      30.669  -9.688 -18.033  0.00  0.00    +0.253 C 
ENDBRANCH  18  23
ENDBRANCH  12  17
ENDBRANCH   5  11
BRANCH   1  25
ATOM     25  C   UNL     1      35.009 -17.575 -21.991  0.00  0.00    +0.122 C 
BRANCH  25  28
ATOM     26  N   UNL     1      34.261 -20.632 -19.082  0.00  0.00    -0.230 NA
ATOM     27  N   UNL     1      31.937 -20.531 -19.594  0.00  0.00    -0.343 N 
ATOM     28  C   UNL     1      34.745 -18.647 -20.969  0.00  0.00    +0.002 C 
ATOM     29  C   UNL     1      33.452 -19.090 -20.758  0.00  0.00    +0.031 C 
ATOM     30  C   UNL     1      35.801 -19.181 -20.252  0.00  0.00    +0.018 C 
ATOM     31  C   UNL     1      33.263 -20.080 -19.808  0.00  0.00    +0.125 C 
ATOM     32  C   UNL     1      35.507 -20.167 -19.324  0.00  0.00    +0.100 C 
ATOM     33  H   UNL     1      31.757 -21.233 -18.929  0.00  0.00    +0.144 HD
ATOM     34  H   UNL     1      31.195 -20.142 -20.114  0.00  0.00    +0.144 HD
ENDBRANCH  25  28
ENDBRANCH   1  25
TORSDOF 5
ENDMDL
MODEL 2
REMARK VINA RESULT:     -11.3      5.988      9.905
REMARK  Name = 11691242
REMARK  5 active torsions:
REMARK  status: ('A' for Active; 'I' for Inactive)
REMARK    1  A    between atoms: N_1  and  C_25
REMARK    2  A    between atoms: C_5  and  N_11
REMARK    3  A    between atoms: N_12  and  C_17
REMARK    4  A    between atoms: C_18  and  O_23
REMARK    5  A    between atoms: C_25  and  C_28
REMARK                            x       y       z     vdW  Elec       q    Type
REMARK                         _______ _______ _______ _____ _____    ______ ____
ROOT
ATOM      1  N   UNL     1      35.413 -22.413 -14.962  0.00  0.00    -0.282 N 
ATOM      2  C   UNL     1      34.454 -22.419 -15.949  0.00  0.00    +0.053 C 
ATOM      3  C   UNL     1      34.908 -21.579 -16.969  0.00  0.00    +0.028 C 
ATOM      4  C   UNL     1      36.454 -21.600 -15.320  0.00  0.00    +0.066 C 
ATOM      5  C   UNL     1      34.105 -21.404 -18.113  0.00  0.00    +0.053 C 
ATOM      6  C   UNL     1      36.171 -21.069 -16.557  0.00  0.00    +0.019 C 
ATOM      7  C   UNL     1      33.232 -23.096 -16.018  0.00  0.00    +0.015 C 
ATOM      8  C   UNL     1      32.879 -22.076 -18.196  0.00  0.00    +0.015 C 
ATOM      9  C   UNL     1      32.451 -22.909 -17.164  0.00  0.00    +0.003 C 
ENDROOT
BRANCH   5  11
ATOM     10  O   UNL     1      32.503 -19.607 -19.881  0.00  0.00    -0.252 OA
ATOM     11  N   UNL     1      34.511 -20.576 -19.160  0.00  0.00    -0.268 N 
ATOM     12  N   UNL     1      34.532 -19.075 -20.915  0.00  0.00    -0.266 N 
ATOM     13  C   UNL     1      33.719 -19.735 -19.979  0.00  0.00    +0.308 C 
ATOM     14  H   UNL     1      35.476 -20.577 -19.356  0.00  0.00    +0.156 HD
ATOM     15  H   UNL     1      35.494 -19.279 -20.872  0.00  0.00    +0.157 HD
BRANCH  12  17
ATOM     16 BR   UNL     1      33.844 -14.024 -22.212  0.00  0.00    -0.049 Br
ATOM     17  C   UNL     1      34.138 -18.150 -21.912  0.00  0.00    +0.086 C 
ATOM     18  C   UNL     1      33.718 -18.606 -23.152  0.00  0.00    +0.152 C 
ATOM     19  C   UNL     1      34.183 -16.797 -21.620  0.00  0.00    +0.024 C 
ATOM     20  C   UNL     1      33.334 -17.684 -24.124  0.00  0.00    +0.039 C 
ATOM     21  C   UNL     1      33.797 -15.874 -22.593  0.00  0.00    +0.036 C 
ATOM     22  C   UNL     1      33.373 -16.318 -23.845  0.00  0.00    +0.010 C 
BRANCH  18  23
ATOM     23  O   UNL     1      33.672 -19.937 -23.443  0.00  0.00    -0.470 OA
ATOM     24  C   UNL     1      34.602 -20.422 -24.410  0.00  0.00    +0.253 C 
ENDBRANCH  18  23
ENDBRANCH  12  17
ENDBRANCH   5  11
BRANCH   1  25
ATOM     25  C   UNL     1      35.343 -23.149 -13.718  0.00  0.00    +0.122 C 
BRANCH  25  28
ATOM     26  N   UNL     1      37.429 -26.884 -13.988  0.00  0.00    -0.230 NA
ATOM     27  N   UNL     1      39.425 -25.805 -13.263  0.00  0.00    -0.343 N 
ATOM     28  C   UNL     1      36.076 -24.460 -13.814  0.00  0.00    +0.002 C 
ATOM     29  C   UNL     1      37.420 -24.518 -13.491  0.00  0.00    +0.031 C 
ATOM     30  C   UNL     1      35.397 -25.594 -14.222  0.00  0.00    +0.018 C 
ATOM     31  C   UNL     1      38.049 -25.749 -13.594  0.00  0.00    +0.125 C 
ATOM     32  C   UNL     1      36.116 -26.776 -14.293  0.00  0.00    +0.100 C 
ATOM     33  H   UNL     1      39.910 -26.659 -13.321  0.00  0.00    +0.144 HD
ATOM     34  H   UNL     1      39.895 -24.989 -12.972  0.00  0.00    +0.144 HD
ENDBRANCH  25  28
ENDBRANCH   1  25
TORSDOF 5
ENDMDL
MODEL 3
REMARK VINA RESULT:     -11.0      1.680      1.902
REMARK  Name = 11691242
REMARK  5 active torsions:
REMARK  status: ('A' for Active; 'I' for Inactive)
REMARK    1  A    between atoms: N_1  and  C_25
REMARK    2  A    between atoms: C_5  and  N_11
REMARK    3  A    between atoms: N_12  and  C_17
REMARK    4  A    between atoms: C_18  and  O_23
REMARK    5  A    between atoms: C_25  and  C_28
REMARK                            x       y       z     vdW  Elec       q    Type
REMARK                         _______ _______ _______ _____ _____    ______ ____
ROOT
ATOM      1  N   UNL     1      33.811 -16.147 -22.679  0.00  0.00    -0.282 N 
ATOM      2  C   UNL     1      33.343 -15.195 -23.555  0.00  0.00    +0.053 C 
ATOM      3  C   UNL     1      33.287 -13.986 -22.858  0.00  0.00    +0.028 C 
ATOM      4  C   UNL     1      34.051 -15.585 -21.454  0.00  0.00    +0.066 C 
ATOM      5  C   UNL     1      32.836 -12.834 -23.531  0.00  0.00    +0.053 C 
ATOM      6  C   UNL     1      33.736 -14.248 -21.532  0.00  0.00    +0.019 C 
ATOM      7  C   UNL     1      32.970 -15.309 -24.899  0.00  0.00    +0.015 C 
ATOM      8  C   UNL     1      32.459 -12.933 -24.876  0.00  0.00    +0.015 C 
ATOM      9  C   UNL     1      32.526 -14.152 -25.547  0.00  0.00    +0.003 C 
ENDROOT
BRANCH   5  11
ATOM     10  O   UNL     1      32.705 -10.069 -24.653  0.00  0.00    -0.252 OA
ATOM     11  N   UNL     1      32.760 -11.601 -22.881  0.00  0.00    -0.268 N 
ATOM     12  N   UNL     1      32.633  -9.340 -22.432  0.00  0.00    -0.266 N 
ATOM     13  C   UNL     1      32.699 -10.306 -23.449  0.00  0.00    +0.308 C 
ATOM     14  H   UNL     1      32.747 -11.637 -21.897  0.00  0.00    +0.156 HD
ATOM     15  H   UNL     1      32.637  -9.683 -21.509  0.00  0.00    +0.157 HD
BRANCH  12  17
ATOM     16 BR   UNL     1      34.240  -5.084 -25.074  0.00  0.00    -0.049 Br
ATOM     17  C   UNL     1      32.559  -7.933 -22.570  0.00  0.00    +0.086 C 
ATOM     18  C   UNL     1      31.759  -7.194 -21.713  0.00  0.00    +0.152 C 
ATOM     19  C   UNL     1      33.297  -7.323 -23.571  0.00  0.00    +0.024 C 
ATOM     20  C   UNL     1      31.696  -5.809 -21.861  0.00  0.00    +0.039 C 
ATOM     21  C   UNL     1      33.235  -5.937 -23.719  0.00  0.00    +0.036 C 
ATOM     22  C   UNL     1      32.434  -5.180 -22.865  0.00  0.00    +0.010 C 
BRANCH  18  23
ATOM     23  O   UNL     1      31.032  -7.790 -20.726  0.00  0.00    -0.470 OA
ATOM     24  C   UNL     1      31.539  -7.689 -19.396  0.00  0.00    +0.253 C 
ENDBRANCH  18  23
ENDBRANCH  12  17
ENDBRANCH   5  11
BRANCH   1  25
ATOM     25  C   UNL     1      34.019 -17.546 -22.989  0.00  0.00    +0.122 C 
BRANCH  25  28
ATOM     26  N   UNL     1      35.274 -19.747 -19.532  0.00  0.00    -0.230 NA
ATOM     27  N   UNL     1      33.066 -20.611 -19.299  0.00  0.00    -0.343 N 
ATOM     28  C   UNL     1      34.459 -18.318 -21.775  0.00  0.00    +0.002 C 
ATOM     29  C   UNL     1      33.547 -19.109 -21.099  0.00  0.00    +0.031 C 
ATOM     30  C   UNL     1      35.772 -18.230 -21.348  0.00  0.00    +0.018 C 
ATOM     31  C   UNL     1      34.003 -19.801 -19.988  0.00  0.00    +0.125 C 
ATOM     32  C   UNL     1      36.128 -18.961 -20.226  0.00  0.00    +0.100 C 
ATOM     33  H   UNL     1      33.347 -21.121 -18.505  0.00  0.00    +0.144 HD
ATOM     34  H   UNL     1      32.135 -20.666 -19.616  0.00  0.00    +0.144 HD
ENDBRANCH  25  28
ENDBRANCH   1  25
TORSDOF 5
ENDMDL
MODEL 4
REMARK VINA RESULT:     -10.4      1.556      2.082
REMARK  Name = 11691242
REMARK  5 active torsions:
REMARK  status: ('A' for Active; 'I' for Inactive)
REMARK    1  A    between atoms: N_1  and  C_25
REMARK    2  A    between atoms: C_5  and  N_11
REMARK    3  A    between atoms: N_12  and  C_17
REMARK    4  A    between atoms: C_18  and  O_23
REMARK    5  A    between atoms: C_25  and  C_28
REMARK                            x       y       z     vdW  Elec       q    Type
REMARK                         _______ _______ _______ _____ _____    ______ ____
ROOT
ATOM      1  N   UNL     1      34.330 -17.307 -21.586  0.00  0.00    -0.282 N 
ATOM      2  C   UNL     1      33.886 -16.510 -22.616  0.00  0.00    +0.053 C 
ATOM      3  C   UNL     1      33.634 -15.246 -22.079  0.00  0.00    +0.028 C 
ATOM      4  C   UNL     1      34.367 -16.593 -20.419  0.00  0.00    +0.066 C 
ATOM      5  C   UNL     1      33.162 -14.228 -22.932  0.00  0.00    +0.053 C 
ATOM      6  C   UNL     1      33.941 -15.313 -20.691  0.00  0.00    +0.019 C 
ATOM      7  C   UNL     1      33.690 -16.808 -23.969  0.00  0.00    +0.015 C 
ATOM      8  C   UNL     1      32.961 -14.512 -24.288  0.00  0.00    +0.015 C 
ATOM      9  C   UNL     1      33.222 -15.782 -24.797  0.00  0.00    +0.003 C 
ENDROOT
BRANCH   5  11
ATOM     10  O   UNL     1      32.706 -11.667 -24.401  0.00  0.00    -0.252 OA
ATOM     11  N   UNL     1      32.894 -12.947 -22.447  0.00  0.00    -0.268 N 
ATOM     12  N   UNL     1      32.444 -10.687 -22.294  0.00  0.00    -0.266 N 
ATOM     13  C   UNL     1      32.683 -11.752 -23.177  0.00  0.00    +0.308 C 
ATOM     14  H   UNL     1      32.845 -12.862 -21.467  0.00  0.00    +0.156 HD
ATOM     15  H   UNL     1      32.457 -10.910 -21.335  0.00  0.00    +0.157 HD
BRANCH  12  17
ATOM     16 BR   UNL     1      33.728  -6.544 -25.269  0.00  0.00    -0.049 Br
ATOM     17  C   UNL     1      32.188  -9.332 -22.613  0.00  0.00    +0.086 C 
ATOM     18  C   UNL     1      31.195  -8.638 -21.938  0.00  0.00    +0.152 C 
ATOM     19  C   UNL     1      32.945  -8.726 -23.602  0.00  0.00    +0.024 C 
ATOM     20  C   UNL     1      30.953  -7.304 -22.263  0.00  0.00    +0.039 C 
ATOM     21  C   UNL     1      32.703  -7.391 -23.927  0.00  0.00    +0.036 C 
ATOM     22  C   UNL     1      31.707  -6.680 -23.258  0.00  0.00    +0.010 C 
BRANCH  18  23
ATOM     23  O   UNL     1      30.449  -9.230 -20.963  0.00  0.00    -0.470 OA
ATOM     24  C   UNL     1      30.760  -8.889 -19.613  0.00  0.00    +0.253 C 
ENDBRANCH  18  23
ENDBRANCH  12  17
ENDBRANCH   5  11
BRANCH   1  25
ATOM     25  C   UNL     1      34.703 -18.700 -21.701  0.00  0.00    +0.122 C 
BRANCH  25  28
ATOM     26  N   UNL     1      32.907 -21.060 -18.607  0.00  0.00    -0.230 NA
ATOM     27  N   UNL     1      35.076 -21.646 -17.815  0.00  0.00    -0.343 N 
ATOM     28  C   UNL     1      34.073 -19.530 -20.615  0.00  0.00    +0.002 C 
ATOM     29  C   UNL     1      34.878 -20.207 -19.716  0.00  0.00    +0.031 C 
ATOM     30  C   UNL     1      32.695 -19.606 -20.526  0.00  0.00    +0.018 C 
ATOM     31  C   UNL     1      34.249 -20.955 -18.734  0.00  0.00    +0.125 C 
ATOM     32  C   UNL     1      32.163 -20.381 -19.508  0.00  0.00    +0.100 C 
ATOM     33  H   UNL     1      34.671 -22.189 -17.101  0.00  0.00    +0.144 HD
ATOM     34  H   UNL     1      36.056 -21.582 -17.889  0.00  0.00    +0.144 HD
ENDBRANCH  25  28
ENDBRANCH   1  25
TORSDOF 5
ENDMDL
MODEL 5
REMARK VINA RESULT:     -10.4      2.029      2.859
REMARK  Name = 11691242
REMARK  5 active torsions:
REMARK  status: ('A' for Active; 'I' for Inactive)
REMARK    1  A    between atoms: N_1  and  C_25
REMARK    2  A    between atoms: C_5  and  N_11
REMARK    3  A    between atoms: N_12  and  C_17
REMARK    4  A    between atoms: C_18  and  O_23
REMARK    5  A    between atoms: C_25  and  C_28
REMARK                            x       y       z     vdW  Elec       q    Type
REMARK                         _______ _______ _______ _____ _____    ______ ____
ROOT
ATOM      1  N   UNL     1      33.606 -15.727 -22.808  0.00  0.00    -0.282 N 
ATOM      2  C   UNL     1      33.285 -14.727 -23.697  0.00  0.00    +0.053 C 
ATOM      3  C   UNL     1      33.373 -13.517 -23.004  0.00  0.00    +0.028 C 
ATOM      4  C   UNL     1      33.893 -15.194 -21.581  0.00  0.00    +0.066 C 
ATOM      5  C   UNL     1      33.089 -12.320 -23.690  0.00  0.00    +0.053 C 
ATOM      6  C   UNL     1      33.757 -13.828 -21.669  0.00  0.00    +0.019 C 
ATOM      7  C   UNL     1      32.927 -14.798 -25.048  0.00  0.00    +0.015 C 
ATOM      8  C   UNL     1      32.729 -12.376 -25.042  0.00  0.00    +0.015 C 
ATOM      9  C   UNL     1      32.651 -13.597 -25.709  0.00  0.00    +0.003 C 
ENDROOT
BRANCH   5  11
ATOM     10  O   UNL     1      31.960  -9.667 -24.474  0.00  0.00    -0.252 OA
ATOM     11  N   UNL     1      33.162 -11.084 -23.046  0.00  0.00    -0.268 N 
ATOM     12  N   UNL     1      32.923  -8.851 -22.506  0.00  0.00    -0.266 N 
ATOM     13  C   UNL     1      32.612  -9.843 -23.449  0.00  0.00    +0.308 C 
ATOM     14  H   UNL     1      33.662 -11.073 -22.197  0.00  0.00    +0.156 HD
ATOM     15  H   UNL     1      33.455  -9.144 -21.731  0.00  0.00    +0.157 HD
BRANCH  12  17
ATOM     16 BR   UNL     1      30.068  -5.005 -20.331  0.00  0.00    -0.049 Br
ATOM     17  C   UNL     1      32.565  -7.482 -22.531  0.00  0.00    +0.086 C 
ATOM     18  C   UNL     1      33.115  -6.640 -23.485  0.00  0.00    +0.152 C 
ATOM     19  C   UNL     1      31.664  -7.012 -21.589  0.00  0.00    +0.024 C 
ATOM     20  C   UNL     1      32.753  -5.294 -23.497  0.00  0.00    +0.039 C 
ATOM     21  C   UNL     1      31.301  -5.665 -21.602  0.00  0.00    +0.036 C 
ATOM     22  C   UNL     1      31.846  -4.806 -22.556  0.00  0.00    +0.010 C 
BRANCH  18  23
ATOM     23  O   UNL     1      34.001  -7.098 -24.414  0.00  0.00    -0.470 OA
ATOM     24  C   UNL     1      33.912  -6.542 -25.724  0.00  0.00    +0.253 C 
ENDBRANCH  18  23
ENDBRANCH  12  17
ENDBRANCH   5  11
BRANCH   1  25
ATOM     25  C   UNL     1      33.637 -17.142 -23.110  0.00  0.00    +0.122 C 
BRANCH  25  28
ATOM     26  N   UNL     1      35.342 -19.395 -19.887  0.00  0.00    -0.230 NA
ATOM     27  N   UNL     1      33.215 -20.386 -19.474  0.00  0.00    -0.343 N 
ATOM     28  C   UNL     1      34.234 -17.933 -21.978  0.00  0.00    +0.002 C 
ATOM     29  C   UNL     1      33.437 -18.796 -21.249  0.00  0.00    +0.031 C 
ATOM     30  C   UNL     1      35.577 -17.788 -21.679  0.00  0.00    +0.018 C 
ATOM     31  C   UNL     1      34.035 -19.502 -20.218  0.00  0.00    +0.125 C 
ATOM     32  C   UNL     1      36.081 -18.538 -20.628  0.00  0.00    +0.100 C 
ATOM     33  H   UNL     1      33.600 -20.908 -18.734  0.00  0.00    +0.144 HD
ATOM     34  H   UNL     1      32.261 -20.480 -19.700  0.00  0.00    +0.144 HD
ENDBRANCH  25  28
ENDBRANCH   1  25
TORSDOF 5
ENDMDL
MODEL 6
REMARK VINA RESULT:     -10.4      6.794     11.805
REMARK  Name = 11691242
REMARK  5 active torsions:
REMARK  status: ('A' for Active; 'I' for Inactive)
REMARK    1  A    between atoms: N_1  and  C_25
REMARK    2  A    between atoms: C_5  and  N_11
REMARK    3  A    between atoms: N_12  and  C_17
REMARK    4  A    between atoms: C_18  and  O_23
REMARK    5  A    between atoms: C_25  and  C_28
REMARK                            x       y       z     vdW  Elec       q    Type
REMARK                         _______ _______ _______ _____ _____    ______ ____
ROOT
ATOM      1  N   UNL     1      34.993 -18.333 -22.001  0.00  0.00    -0.282 N 
ATOM      2  C   UNL     1      34.222 -19.089 -21.148  0.00  0.00    +0.053 C 
ATOM      3  C   UNL     1      35.042 -19.475 -20.086  0.00  0.00    +0.028 C 
ATOM      4  C   UNL     1      36.269 -18.228 -21.517  0.00  0.00    +0.066 C 
ATOM      5  C   UNL     1      34.494 -20.268 -19.058  0.00  0.00    +0.053 C 
ATOM      6  C   UNL     1      36.332 -18.925 -20.332  0.00  0.00    +0.019 C 
ATOM      7  C   UNL     1      32.875 -19.457 -21.234  0.00  0.00    +0.015 C 
ATOM      8  C   UNL     1      33.147 -20.644 -19.131  0.00  0.00    +0.015 C 
ATOM      9  C   UNL     1      32.352 -20.243 -20.203  0.00  0.00    +0.003 C 
ENDROOT
BRANCH   5  11
ATOM     10  O   UNL     1      34.094 -22.538 -17.158  0.00  0.00    -0.252 OA
ATOM     11  N   UNL     1      35.269 -20.681 -17.974  0.00  0.00    -0.268 N 
ATOM     12  N   UNL     1      36.075 -21.827 -16.138  0.00  0.00    -0.266 N 
ATOM     13  C   UNL     1      35.047 -21.767 -17.092  0.00  0.00    +0.308 C 
ATOM     14  H   UNL     1      36.078 -20.148 -17.798  0.00  0.00    +0.156 HD
ATOM     15  H   UNL     1      36.774 -21.138 -16.212  0.00  0.00    +0.157 HD
BRANCH  12  17
ATOM     16 BR   UNL     1      39.190 -25.370 -13.812  0.00  0.00    -0.049 Br
ATOM     17  C   UNL     1      36.230 -22.757 -15.082  0.00  0.00    +0.086 C 
ATOM     18  C   UNL     1      35.206 -22.942 -14.167  0.00  0.00    +0.152 C 
ATOM     19  C   UNL     1      37.416 -23.466 -14.989  0.00  0.00    +0.024 C 
ATOM     20  C   UNL     1      35.373 -23.861 -13.132  0.00  0.00    +0.039 C 
ATOM     21  C   UNL     1      37.583 -24.387 -13.953  0.00  0.00    +0.036 C 
ATOM     22  C   UNL     1      36.562 -24.584 -13.025  0.00  0.00    +0.010 C 
BRANCH  18  23
ATOM     23  O   UNL     1      34.037 -22.247 -14.255  0.00  0.00    -0.470 OA
ATOM     24  C   UNL     1      32.827 -22.994 -14.135  0.00  0.00    +0.253 C 
ENDBRANCH  18  23
ENDBRANCH  12  17
ENDBRANCH   5  11
BRANCH   1  25
ATOM     25  C   UNL     1      34.539 -17.733 -23.237  0.00  0.00    +0.122 C 
BRANCH  25  28
ATOM     26  N   UNL     1      32.820 -13.866 -22.557  0.00  0.00    -0.230 NA
ATOM     27  N   UNL     1      31.971 -13.868 -24.783  0.00  0.00    -0.343 N 
ATOM     28  C   UNL     1      33.936 -16.375 -22.999  0.00  0.00    +0.002 C 
ATOM     29  C   UNL     1      33.230 -15.751 -24.013  0.00  0.00    +0.031 C 
ATOM     30  C   UNL     1      34.092 -15.764 -21.768  0.00  0.00    +0.018 C 
ATOM     31  C   UNL     1      32.694 -14.503 -23.743  0.00  0.00    +0.125 C 
ATOM     32  C   UNL     1      33.517 -14.515 -21.598  0.00  0.00    +0.100 C 
ATOM     33  H   UNL     1      31.573 -12.980 -24.634  0.00  0.00    +0.144 HD
ATOM     34  H   UNL     1      31.867 -14.315 -25.654  0.00  0.00    +0.144 HD
ENDBRANCH  25  28
ENDBRANCH   1  25
TORSDOF 5
ENDMDL
MODEL 7
REMARK VINA RESULT:     -10.4      2.112      2.962
REMARK  Name = 11691242
REMARK  5 active torsions:
REMARK  status: ('A' for Active; 'I' for Inactive)
REMARK    1  A    between atoms: N_1  and  C_25
REMARK    2  A    between atoms: C_5  and  N_11
REMARK    3  A    between atoms: N_12  and  C_17
REMARK    4  A    between atoms: C_18  and  O_23
REMARK    5  A    between atoms: C_25  and  C_28
REMARK                            x       y       z     vdW  Elec       q    Type
REMARK                         _______ _______ _______ _____ _____    ______ ____
ROOT
ATOM      1  N   UNL     1      34.246 -17.566 -21.747  0.00  0.00    -0.282 N 
ATOM      2  C   UNL     1      33.717 -16.779 -22.745  0.00  0.00    +0.053 C 
ATOM      3  C   UNL     1      33.665 -15.472 -22.253  0.00  0.00    +0.028 C 
ATOM      4  C   UNL     1      34.528 -16.806 -20.645  0.00  0.00    +0.066 C 
ATOM      5  C   UNL     1      33.158 -14.454 -23.084  0.00  0.00    +0.053 C 
ATOM      6  C   UNL     1      34.180 -15.505 -20.926  0.00  0.00    +0.019 C 
ATOM      7  C   UNL     1      33.286 -17.118 -24.032  0.00  0.00    +0.015 C 
ATOM      8  C   UNL     1      32.722 -14.779 -24.374  0.00  0.00    +0.015 C 
ATOM      9  C   UNL     1      32.786 -16.091 -24.839  0.00  0.00    +0.003 C 
ENDROOT
BRANCH   5  11
ATOM     10  O   UNL     1      32.906 -11.915 -24.636  0.00  0.00    -0.252 OA
ATOM     11  N   UNL     1      33.083 -13.132 -22.642  0.00  0.00    -0.268 N 
ATOM     12  N   UNL     1      32.922 -10.830 -22.564  0.00  0.00    -0.266 N 
ATOM     13  C   UNL     1      32.964 -11.949 -23.411  0.00  0.00    +0.308 C 
ATOM     14  H   UNL     1      33.118 -13.005 -21.666  0.00  0.00    +0.156 HD
ATOM     15  H   UNL     1      32.979 -11.016 -21.599  0.00  0.00    +0.157 HD
BRANCH  12  17
ATOM     16 BR   UNL     1      29.960  -6.484 -22.485  0.00  0.00    -0.049 Br
ATOM     17  C   UNL     1      32.808  -9.467 -22.928  0.00  0.00    +0.086 C 
ATOM     18  C   UNL     1      33.840  -8.845 -23.614  0.00  0.00    +0.152 C 
ATOM     19  C   UNL     1      31.655  -8.780 -22.585  0.00  0.00    +0.024 C 
ATOM     20  C   UNL     1      33.714  -7.501 -23.965  0.00  0.00    +0.039 C 
ATOM     21  C   UNL     1      31.528  -7.436 -22.937  0.00  0.00    +0.036 C 
ATOM     22  C   UNL     1      32.558  -6.797 -23.626  0.00  0.00    +0.010 C 
BRANCH  18  23
ATOM     23  O   UNL     1      34.976  -9.516 -23.954  0.00  0.00    -0.470 OA
ATOM     24  C   UNL     1      35.319  -9.550 -25.338  0.00  0.00    +0.253 C 
ENDBRANCH  18  23
ENDBRANCH  12  17
ENDBRANCH   5  11
BRANCH   1  25
ATOM     25  C   UNL     1      34.472 -18.993 -21.834  0.00  0.00    +0.122 C 
BRANCH  25  28
ATOM     26  N   UNL     1      32.769 -21.051 -18.482  0.00  0.00    -0.230 NA
ATOM     27  N   UNL     1      34.956 -21.675 -17.772  0.00  0.00    -0.343 N 
ATOM     28  C   UNL     1      33.875 -19.716 -20.657  0.00  0.00    +0.002 C 
ATOM     29  C   UNL     1      34.704 -20.364 -19.758  0.00  0.00    +0.031 C 
ATOM     30  C   UNL     1      32.502 -19.725 -20.486  0.00  0.00    +0.018 C 
ATOM     31  C   UNL     1      34.105 -21.013 -18.691  0.00  0.00    +0.125 C 
ATOM     32  C   UNL     1      32.001 -20.404 -19.387  0.00  0.00    +0.100 C 
ATOM     33  H   UNL     1      34.573 -22.148 -17.000  0.00  0.00    +0.144 HD
ATOM     34  H   UNL     1      35.932 -21.659 -17.906  0.00  0.00    +0.144 HD
ENDBRANCH  25  28
ENDBRANCH   1  25
TORSDOF 5
ENDMDL
MODEL 8
REMARK VINA RESULT:     -10.3      7.053     12.505
REMARK  Name = 11691242
REMARK  5 active torsions:
REMARK  status: ('A' for Active; 'I' for Inactive)
REMARK    1  A    between atoms: N_1  and  C_25
REMARK    2  A    between atoms: C_5  and  N_11
REMARK    3  A    between atoms: N_12  and  C_17
REMARK    4  A    between atoms: C_18  and  O_23
REMARK    5  A    between atoms: C_25  and  C_28
REMARK                            x       y       z     vdW  Elec       q    Type
REMARK                         _______ _______ _______ _____ _____    ______ ____
ROOT
ATOM      1  N   UNL     1      34.916 -18.896 -20.957  0.00  0.00    -0.282 N 
ATOM      2  C   UNL     1      34.207 -19.740 -20.134  0.00  0.00    +0.053 C 
ATOM      3  C   UNL     1      35.099 -20.224 -19.174  0.00  0.00    +0.028 C 
ATOM      4  C   UNL     1      36.222 -18.828 -20.553  0.00  0.00    +0.066 C 
ATOM      5  C   UNL     1      34.625 -21.120 -18.196  0.00  0.00    +0.053 C 
ATOM      6  C   UNL     1      36.368 -19.640 -19.452  0.00  0.00    +0.019 C 
ATOM      7  C   UNL     1      32.858 -20.110 -20.164  0.00  0.00    +0.015 C 
ATOM      8  C   UNL     1      33.277 -21.499 -18.214  0.00  0.00    +0.015 C 
ATOM      9  C   UNL     1      32.409 -21.001 -19.183  0.00  0.00    +0.003 C 
ENDROOT
BRANCH   5  11
ATOM     10  O   UNL     1      33.989 -22.602 -15.681  0.00  0.00    -0.252 OA
ATOM     11  N   UNL     1      35.473 -21.634 -17.215  0.00  0.00    -0.268 N 
ATOM     12  N   UNL     1      36.299 -22.671 -15.324  0.00  0.00    -0.266 N 
ATOM     13  C   UNL     1      35.135 -22.333 -16.031  0.00  0.00    +0.308 C 
ATOM     14  H   UNL     1      36.436 -21.491 -17.365  0.00  0.00    +0.156 HD
ATOM     15  H   UNL     1      37.149 -22.387 -15.731  0.00  0.00    +0.157 HD
BRANCH  12  17
ATOM     16 BR   UNL     1      33.993 -23.930 -10.767  0.00  0.00    -0.049 Br
ATOM     17  C   UNL     1      36.402 -23.369 -14.097  0.00  0.00    +0.086 C 
ATOM     18  C   UNL     1      37.549 -24.090 -13.804  0.00  0.00    +0.152 C 
ATOM     19  C   UNL     1      35.340 -23.314 -13.209  0.00  0.00    +0.024 C 
ATOM     20  C   UNL     1      37.636 -24.773 -12.592  0.00  0.00    +0.039 C 
ATOM     21  C   UNL     1      35.427 -23.998 -11.996  0.00  0.00    +0.036 C 
ATOM     22  C   UNL     1      36.575 -24.727 -11.688  0.00  0.00    +0.010 C 
BRANCH  18  23
ATOM     23  O   UNL     1      38.597 -24.146 -14.674  0.00  0.00    -0.470 OA
ATOM     24  C   UNL     1      39.483 -25.256 -14.551  0.00  0.00    +0.253 C 
ENDBRANCH  18  23
ENDBRANCH  12  17
ENDBRANCH   5  11
BRANCH   1  25
ATOM     25  C   UNL     1      34.376 -18.178 -22.092  0.00  0.00    +0.122 C 
BRANCH  25  28
ATOM     26  N   UNL     1      33.565 -14.085 -21.114  0.00  0.00    -0.230 NA
ATOM     27  N   UNL     1      33.465 -13.565 -23.436  0.00  0.00    -0.343 N 
ATOM     28  C   UNL     1      34.092 -16.741 -21.749  0.00  0.00    +0.002 C 
ATOM     29  C   UNL     1      33.911 -15.818 -22.763  0.00  0.00    +0.031 C 
ATOM     30  C   UNL     1      34.014 -16.358 -20.422  0.00  0.00    +0.018 C 
ATOM     31  C   UNL     1      33.651 -14.508 -22.395  0.00  0.00    +0.125 C 
ATOM     32  C   UNL     1      33.749 -15.024 -20.158  0.00  0.00    +0.100 C 
ATOM     33  H   UNL     1      33.277 -12.624 -23.220  0.00  0.00    +0.144 HD
ATOM     34  H   UNL     1      33.522 -13.852 -24.377  0.00  0.00    +0.144 HD
ENDBRANCH  25  28
ENDBRANCH   1  25
TORSDOF 5
ENDMDL
MODEL 9
REMARK VINA RESULT:      -9.8      3.939     10.476
REMARK  Name = 11691242
REMARK  5 active torsions:
REMARK  status: ('A' for Active; 'I' for Inactive)
REMARK    1  A    between atoms: N_1  and  C_25
REMARK    2  A    between atoms: C_5  and  N_11
REMARK    3  A    between atoms: N_12  and  C_17
REMARK    4  A    between atoms: C_18  and  O_23
REMARK    5  A    between atoms: C_25  and  C_28
REMARK                            x       y       z     vdW  Elec       q    Type
REMARK                         _______ _______ _______ _____ _____    ______ ____
ROOT
ATOM      1  N   UNL     1      31.930  -8.441 -21.397  0.00  0.00    -0.282 N 
ATOM      2  C   UNL     1      32.770  -8.852 -22.407  0.00  0.00    +0.053 C 
ATOM      3  C   UNL     1      32.457 -10.184 -22.685  0.00  0.00    +0.028 C 
ATOM      4  C   UNL     1      31.100  -9.464 -21.027  0.00  0.00    +0.066 C 
ATOM      5  C   UNL     1      33.178 -10.855 -23.692  0.00  0.00    +0.053 C 
ATOM      6  C   UNL     1      31.402 -10.558 -21.805  0.00  0.00    +0.019 C 
ATOM      7  C   UNL     1      33.772  -8.154 -23.090  0.00  0.00    +0.015 C 
ATOM      8  C   UNL     1      34.184 -10.170 -24.383  0.00  0.00    +0.015 C 
ATOM      9  C   UNL     1      34.474  -8.840 -24.086  0.00  0.00    +0.003 C 
ENDROOT
BRANCH   5  11
ATOM     10  O   UNL     1      34.139 -13.377 -22.411  0.00  0.00    -0.252 OA
ATOM     11  N   UNL     1      32.906 -12.187 -24.009  0.00  0.00    -0.268 N 
ATOM     12  N   UNL     1      32.860 -14.496 -24.018  0.00  0.00    -0.266 N 
ATOM     13  C   UNL     1      33.382 -13.361 -23.377  0.00  0.00    +0.308 C 
ATOM     14  H   UNL     1      32.304 -12.329 -24.775  0.00  0.00    +0.156 HD
ATOM     15  H   UNL     1      32.264 -14.324 -24.782  0.00  0.00    +0.157 HD
BRANCH  12  17
ATOM     16 BR   UNL     1      35.458 -17.945 -21.014  0.00  0.00    -0.049 Br
ATOM     17  C   UNL     1      33.085 -15.856 -23.701  0.00  0.00    +0.086 C 
ATOM     18  C   UNL     1      32.406 -16.850 -24.389  0.00  0.00    +0.152 C 
ATOM     19  C   UNL     1      33.990 -16.165 -22.698  0.00  0.00    +0.024 C 
ATOM     20  C   UNL     1      32.638 -18.186 -24.064  0.00  0.00    +0.039 C 
ATOM     21  C   UNL     1      34.223 -17.502 -22.374  0.00  0.00    +0.036 C 
ATOM     22  C   UNL     1      33.546 -18.512 -23.057  0.00  0.00    +0.010 C 
BRANCH  18  23
ATOM     23  O   UNL     1      31.516 -16.551 -25.376  0.00  0.00    -0.470 OA
ATOM     24  C   UNL     1      30.458 -17.481 -25.599  0.00  0.00    +0.253 C 
ENDBRANCH  18  23
ENDBRANCH  12  17
ENDBRANCH   5  11
BRANCH   1  25
ATOM     25  C   UNL     1      31.917  -7.123 -20.798  0.00  0.00    +0.122 C 
BRANCH  25  28
ATOM     26  N   UNL     1      29.536  -4.390 -23.084  0.00  0.00    -0.230 NA
ATOM     27  N   UNL     1      29.412  -2.941 -21.197  0.00  0.00    -0.343 N 
ATOM     28  C   UNL     1      31.080  -6.164 -21.600  0.00  0.00    +0.002 C 
ATOM     29  C   UNL     1      30.633  -4.992 -21.016  0.00  0.00    +0.031 C 
ATOM     30  C   UNL     1      30.767  -6.463 -22.913  0.00  0.00    +0.018 C 
ATOM     31  C   UNL     1      29.868  -4.141 -21.797  0.00  0.00    +0.125 C 
ATOM     32  C   UNL     1      29.996  -5.547 -23.610  0.00  0.00    +0.100 C 
ATOM     33  H   UNL     1      28.866  -2.308 -21.716  0.00  0.00    +0.144 HD
ATOM     34  H   UNL     1      29.644  -2.741 -20.261  0.00  0.00    +0.144 HD
ENDBRANCH  25  28
ENDBRANCH   1  25
TORSDOF 5
ENDMDL
