MODEL 1
REMARK VINA RESULT:     -11.9      0.000      0.000
REMARK  Name = 16040279
REMARK  5 active torsions:
REMARK  status: ('A' for Active; 'I' for Inactive)
REMARK    1  A    between atoms: N_2  and  C_21
REMARK    2  A    between atoms: C_3  and  C_11
REMARK    3  A    between atoms: C_4  and  N_17
REMARK    4  A    between atoms: C_21  and  C_22
REMARK    5  A    between atoms: C_22  and  C_25
REMARK                            x       y       z     vdW  Elec       q    Type
REMARK                         _______ _______ _______ _____ _____    ______ ____
ROOT
ATOM      1  O   UNL     1      32.214 -20.663 -19.131  0.00  0.00    -0.275 OA
ATOM      2  N   UNL     1      34.525 -20.600 -19.330  0.00  0.00    -0.281 N 
ATOM      3  C   UNL     1      34.288 -18.180 -20.862  0.00  0.00    +0.015 C 
ATOM      4  C   UNL     1      35.565 -19.030 -20.992  0.00  0.00    -0.041 C 
ATOM      5  C   UNL     1      35.725 -19.862 -19.721  0.00  0.00    +0.072 C 
ATOM      6  C   UNL     1      33.092 -19.123 -20.710  0.00  0.00    +0.088 C 
ATOM      7  C   UNL     1      33.233 -20.176 -19.628  0.00  0.00    +0.226 C 
ENDROOT
BRANCH   3  11
ATOM      8  F   UNL     1      33.749 -19.035 -23.514  0.00  0.00    -0.204 F 
ATOM      9  F   UNL     1      33.923 -13.640 -22.631  0.00  0.00    -0.202 F 
ATOM     10  F   UNL     1      33.414 -14.603 -25.139  0.00  0.00    -0.202 F 
ATOM     11  C   UNL     1      34.052 -17.219 -22.016  0.00  0.00    +0.006 C 
ATOM     12  C   UNL     1      33.794 -17.714 -23.290  0.00  0.00    +0.138 C 
ATOM     13  C   UNL     1      34.098 -15.847 -21.789  0.00  0.00    +0.030 C 
ATOM     14  C   UNL     1      33.881 -14.961 -22.845  0.00  0.00    +0.167 C 
ATOM     15  C   UNL     1      33.578 -16.829 -24.348  0.00  0.00    +0.061 C 
ATOM     16  C   UNL     1      33.621 -15.453 -24.124  0.00  0.00    +0.170 C 
ENDBRANCH   3  11
BRANCH   4  17
ATOM     17  N   UNL     1      36.762 -18.202 -21.155  0.00  0.00    +0.383 N 
ATOM     18  H   UNL     1      36.833 -17.549 -20.375  0.00  0.00    -0.089 HD
ATOM     19  H   UNL     1      36.698 -17.681 -22.031  0.00  0.00    -0.089 HD
ATOM     20  H   UNL     1      37.589 -18.800 -21.175  0.00  0.00    -0.089 HD
ENDBRANCH   4  17
BRANCH   2  21
ATOM     21  C   UNL     1      34.726 -21.675 -18.367  0.00  0.00    +0.098 C 
BRANCH  21  22
ATOM     22  C   UNL     1      35.728 -21.305 -17.276  0.00  0.00    +0.048 C 
BRANCH  22  25
ATOM     23  O   UNL     1      37.296 -23.490 -13.135  0.00  0.00    -0.435 OA
ATOM     24  O   UNL     1      35.066 -24.144 -12.499  0.00  0.00    -0.435 OA
ATOM     25  C   UNL     1      35.513 -22.071 -15.994  0.00  0.00    -0.017 C 
ATOM     26  C   UNL     1      36.609 -22.386 -15.202  0.00  0.00    +0.036 C 
ATOM     27  C   UNL     1      34.215 -22.445 -15.638  0.00  0.00    -0.001 C 
ATOM     28  C   UNL     1      36.362 -23.088 -14.040  0.00  0.00    +0.176 C 
ATOM     29  C   UNL     1      35.088 -23.462 -13.676  0.00  0.00    +0.176 C 
ATOM     30  C   UNL     1      33.992 -23.155 -14.456  0.00  0.00    +0.040 C 
ATOM     31  C   UNL     1      36.468 -24.158 -12.162  0.00  0.00    +0.429 C 
ENDBRANCH  22  25
ENDBRANCH  21  22
ENDBRANCH   2  21
TORSDOF 5
ENDMDL
MODEL 2
REMARK VINA RESULT:     -11.9      3.434      5.587
REMARK  Name = 16040279
REMARK  5 active torsions:
REMARK  status: ('A' for Active; 'I' for Inactive)
REMARK    1  A    between atoms: N_2  and  C_21
REMARK    2  A    between atoms: C_3  and  C_11
REMARK    3  A    between atoms: C_4  and  N_17
REMARK    4  A    between atoms: C_21  and  C_22
REMARK    5  A    between atoms: C_22  and  C_25
REMARK                            x       y       z     vdW  Elec       q    Type
REMARK                         _______ _______ _______ _____ _____    ______ ____
ROOT
ATOM      1  O   UNL     1      33.623 -16.897 -24.719  0.00  0.00    -0.275 OA
ATOM      2  N   UNL     1      34.130 -16.837 -22.455  0.00  0.00    -0.281 N 
ATOM      3  C   UNL     1      32.881 -14.254 -22.285  0.00  0.00    +0.015 C 
ATOM      4  C   UNL     1      33.904 -14.667 -21.211  0.00  0.00    -0.041 C 
ATOM      5  C   UNL     1      33.959 -16.192 -21.154  0.00  0.00    +0.072 C 
ATOM      6  C   UNL     1      33.348 -14.803 -23.636  0.00  0.00    +0.088 C 
ATOM      7  C   UNL     1      33.680 -16.283 -23.650  0.00  0.00    +0.226 C 
ENDROOT
BRANCH   3  11
ATOM      8  F   UNL     1      30.968 -12.874 -20.707  0.00  0.00    -0.204 F 
ATOM      9  F   UNL     1      33.884  -9.892 -24.244  0.00  0.00    -0.202 F 
ATOM     10  F   UNL     1      32.006  -8.692 -22.661  0.00  0.00    -0.202 F 
ATOM     11  C   UNL     1      32.643 -12.756 -22.384  0.00  0.00    +0.006 C 
ATOM     12  C   UNL     1      31.686 -12.150 -21.576  0.00  0.00    +0.138 C 
ATOM     13  C   UNL     1      33.386 -11.999 -23.286  0.00  0.00    +0.030 C 
ATOM     14  C   UNL     1      33.171 -10.624 -23.379  0.00  0.00    +0.167 C 
ATOM     15  C   UNL     1      31.469 -10.774 -21.670  0.00  0.00    +0.061 C 
ATOM     16  C   UNL     1      32.213 -10.012 -22.572  0.00  0.00    +0.170 C 
ENDBRANCH   3  11
BRANCH   4  17
ATOM     17  N   UNL     1      33.539 -14.168 -19.883  0.00  0.00    +0.383 N 
ATOM     18  H   UNL     1      33.963 -13.251 -19.736  0.00  0.00    -0.089 HD
ATOM     19  H   UNL     1      33.877 -14.817 -19.172  0.00  0.00    -0.089 HD
ATOM     20  H   UNL     1      32.524 -14.088 -19.816  0.00  0.00    -0.089 HD
ENDBRANCH   4  17
BRANCH   2  21
ATOM     21  C   UNL     1      34.555 -18.230 -22.422  0.00  0.00    +0.098 C 
BRANCH  21  22
ATOM     22  C   UNL     1      35.152 -18.629 -21.074  0.00  0.00    +0.048 C 
BRANCH  22  25
ATOM     23  O   UNL     1      34.306 -22.179 -17.749  0.00  0.00    -0.435 OA
ATOM     24  O   UNL     1      31.919 -22.060 -18.058  0.00  0.00    -0.435 OA
ATOM     25  C   UNL     1      34.251 -19.539 -20.277  0.00  0.00    -0.017 C 
ATOM     26  C   UNL     1      34.816 -20.432 -19.376  0.00  0.00    +0.036 C 
ATOM     27  C   UNL     1      32.869 -19.459 -20.467  0.00  0.00    -0.001 C 
ATOM     28  C   UNL     1      33.951 -21.244 -18.671  0.00  0.00    +0.176 C 
ATOM     29  C   UNL     1      32.587 -21.176 -18.848  0.00  0.00    +0.176 C 
ATOM     30  C   UNL     1      32.015 -20.292 -19.740  0.00  0.00    +0.040 C 
ATOM     31  C   UNL     1      33.013 -22.691 -17.364  0.00  0.00    +0.429 C 
ENDBRANCH  22  25
ENDBRANCH  21  22
ENDBRANCH   2  21
TORSDOF 5
ENDMDL
MODEL 3
REMARK VINA RESULT:     -11.7      0.696      1.422
REMARK  Name = 16040279
REMARK  5 active torsions:
REMARK  status: ('A' for Active; 'I' for Inactive)
REMARK    1  A    between atoms: N_2  and  C_21
REMARK    2  A    between atoms: C_3  and  C_11
REMARK    3  A    between atoms: C_4  and  N_17
REMARK    4  A    between atoms: C_21  and  C_22
REMARK    5  A    between atoms: C_22  and  C_25
REMARK                            x       y       z     vdW  Elec       q    Type
REMARK                         _______ _______ _______ _____ _____    ______ ____
ROOT
ATOM      1  O   UNL     1      32.195 -20.668 -19.142  0.00  0.00    -0.275 OA
ATOM      2  N   UNL     1      34.508 -20.612 -19.325  0.00  0.00    -0.281 N 
ATOM      3  C   UNL     1      34.289 -18.176 -20.834  0.00  0.00    +0.015 C 
ATOM      4  C   UNL     1      35.564 -19.029 -20.964  0.00  0.00    -0.041 C 
ATOM      5  C   UNL     1      35.713 -19.874 -19.700  0.00  0.00    +0.072 C 
ATOM      6  C   UNL     1      33.088 -19.117 -20.700  0.00  0.00    +0.088 C 
ATOM      7  C   UNL     1      33.219 -20.180 -19.627  0.00  0.00    +0.226 C 
ENDROOT
BRANCH   3  11
ATOM      8  F   UNL     1      33.726 -19.004 -23.490  0.00  0.00    -0.204 F 
ATOM      9  F   UNL     1      33.991 -13.619 -22.570  0.00  0.00    -0.202 F 
ATOM     10  F   UNL     1      33.456 -14.556 -25.083  0.00  0.00    -0.202 F 
ATOM     11  C   UNL     1      34.065 -17.203 -21.981  0.00  0.00    +0.006 C 
ATOM     12  C   UNL     1      33.793 -17.685 -23.258  0.00  0.00    +0.138 C 
ATOM     13  C   UNL     1      34.133 -15.834 -21.744  0.00  0.00    +0.030 C 
ATOM     14  C   UNL     1      33.927 -14.937 -22.793  0.00  0.00    +0.167 C 
ATOM     15  C   UNL     1      33.588 -16.790 -24.308  0.00  0.00    +0.061 C 
ATOM     16  C   UNL     1      33.654 -15.416 -24.075  0.00  0.00    +0.170 C 
ENDBRANCH   3  11
BRANCH   4  17
ATOM     17  N   UNL     1      36.765 -18.204 -21.111  0.00  0.00    +0.383 N 
ATOM     18  H   UNL     1      37.117 -17.948 -20.188  0.00  0.00    -0.089 HD
ATOM     19  H   UNL     1      36.535 -17.358 -21.634  0.00  0.00    -0.089 HD
ATOM     20  H   UNL     1      37.480 -18.730 -21.614  0.00  0.00    -0.089 HD
ENDBRANCH   4  17
BRANCH   2  21
ATOM     21  C   UNL     1      34.698 -21.697 -18.371  0.00  0.00    +0.098 C 
BRANCH  21  22
ATOM     22  C   UNL     1      35.749 -21.368 -17.312  0.00  0.00    +0.048 C 
BRANCH  22  25
ATOM     23  O   UNL     1      32.767 -23.456 -13.976  0.00  0.00    -0.435 OA
ATOM     24  O   UNL     1      34.563 -23.783 -12.404  0.00  0.00    -0.435 OA
ATOM     25  C   UNL     1      35.465 -22.016 -15.980  0.00  0.00    -0.017 C 
ATOM     26  C   UNL     1      34.168 -22.414 -15.683  0.00  0.00    +0.036 C 
ATOM     27  C   UNL     1      36.516 -22.199 -15.077  0.00  0.00    -0.001 C 
ATOM     28  C   UNL     1      33.958 -23.002 -14.452  0.00  0.00    +0.176 C 
ATOM     29  C   UNL     1      34.984 -23.188 -13.554  0.00  0.00    +0.176 C 
ATOM     30  C   UNL     1      36.277 -22.797 -13.837  0.00  0.00    +0.040 C 
ATOM     31  C   UNL     1      33.158 -23.949 -12.679  0.00  0.00    +0.429 C 
ENDBRANCH  22  25
ENDBRANCH  21  22
ENDBRANCH   2  21
TORSDOF 5
ENDMDL
MODEL 4
REMARK VINA RESULT:     -11.4      1.522      2.378
REMARK  Name = 16040279
REMARK  5 active torsions:
REMARK  status: ('A' for Active; 'I' for Inactive)
REMARK    1  A    between atoms: N_2  and  C_21
REMARK    2  A    between atoms: C_3  and  C_11
REMARK    3  A    between atoms: C_4  and  N_17
REMARK    4  A    between atoms: C_21  and  C_22
REMARK    5  A    between atoms: C_22  and  C_25
REMARK                            x       y       z     vdW  Elec       q    Type
REMARK                         _______ _______ _______ _____ _____    ______ ____
ROOT
ATOM      1  O   UNL     1      31.589 -21.612 -18.303  0.00  0.00    -0.275 OA
ATOM      2  N   UNL     1      33.900 -21.571 -18.101  0.00  0.00    -0.281 N 
ATOM      3  C   UNL     1      33.977 -19.316 -19.880  0.00  0.00    +0.015 C 
ATOM      4  C   UNL     1      35.241 -20.176 -19.701  0.00  0.00    -0.041 C 
ATOM      5  C   UNL     1      35.163 -20.877 -18.347  0.00  0.00    +0.072 C 
ATOM      6  C   UNL     1      32.755 -20.239 -19.849  0.00  0.00    +0.088 C 
ATOM      7  C   UNL     1      32.687 -21.178 -18.659  0.00  0.00    +0.226 C 
ENDROOT
BRANCH   3  11
ATOM      8  F   UNL     1      34.482 -16.524 -19.899  0.00  0.00    -0.204 F 
ATOM      9  F   UNL     1      33.418 -18.886 -24.716  0.00  0.00    -0.202 F 
ATOM     10  F   UNL     1      33.923 -16.202 -24.587  0.00  0.00    -0.202 F 
ATOM     11  C   UNL     1      33.963 -18.475 -21.147  0.00  0.00    +0.006 C 
ATOM     12  C   UNL     1      34.220 -17.109 -21.076  0.00  0.00    +0.138 C 
ATOM     13  C   UNL     1      33.691 -19.078 -22.371  0.00  0.00    +0.030 C 
ATOM     14  C   UNL     1      33.678 -18.310 -23.535  0.00  0.00    +0.167 C 
ATOM     15  C   UNL     1      34.206 -16.339 -22.240  0.00  0.00    +0.061 C 
ATOM     16  C   UNL     1      33.936 -16.940 -23.469  0.00  0.00    +0.170 C 
ENDBRANCH   3  11
BRANCH   4  17
ATOM     17  N   UNL     1      36.463 -19.369 -19.733  0.00  0.00    +0.383 N 
ATOM     18  H   UNL     1      36.771 -19.180 -18.779  0.00  0.00    -0.089 HD
ATOM     19  H   UNL     1      36.276 -18.487 -20.212  0.00  0.00    -0.089 HD
ATOM     20  H   UNL     1      37.194 -19.878 -20.232  0.00  0.00    -0.089 HD
ENDBRANCH   4  17
BRANCH   2  21
ATOM     21  C   UNL     1      33.911 -22.545 -17.017  0.00  0.00    +0.098 C 
BRANCH  21  22
ATOM     22  C   UNL     1      34.914 -22.191 -15.921  0.00  0.00    +0.048 C 
BRANCH  22  25
ATOM     23  O   UNL     1      35.923 -23.398 -11.241  0.00  0.00    -0.435 OA
ATOM     24  O   UNL     1      33.785 -24.465 -10.933  0.00  0.00    -0.435 OA
ATOM     25  C   UNL     1      34.576 -22.813 -14.589  0.00  0.00    -0.017 C 
ATOM     26  C   UNL     1      35.508 -22.760 -13.561  0.00  0.00    +0.036 C 
ATOM     27  C   UNL     1      33.333 -23.430 -14.425  0.00  0.00    -0.001 C 
ATOM     28  C   UNL     1      35.154 -23.344 -12.362  0.00  0.00    +0.176 C 
ATOM     29  C   UNL     1      33.932 -23.954 -12.186  0.00  0.00    +0.176 C 
ATOM     30  C   UNL     1      32.998 -24.013 -13.201  0.00  0.00    +0.040 C 
ATOM     31  C   UNL     1      35.049 -24.109 -10.340  0.00  0.00    +0.429 C 
ENDBRANCH  22  25
ENDBRANCH  21  22
ENDBRANCH   2  21
TORSDOF 5
ENDMDL
MODEL 5
REMARK VINA RESULT:     -11.2      3.104      4.448
REMARK  Name = 16040279
REMARK  5 active torsions:
REMARK  status: ('A' for Active; 'I' for Inactive)
REMARK    1  A    between atoms: N_2  and  C_21
REMARK    2  A    between atoms: C_3  and  C_11
REMARK    3  A    between atoms: C_4  and  N_17
REMARK    4  A    between atoms: C_21  and  C_22
REMARK    5  A    between atoms: C_22  and  C_25
REMARK                            x       y       z     vdW  Elec       q    Type
REMARK                         _______ _______ _______ _____ _____    ______ ____
ROOT
ATOM      1  O   UNL     1      35.906 -21.709 -17.824  0.00  0.00    -0.275 OA
ATOM      2  N   UNL     1      33.606 -21.823 -18.114  0.00  0.00    -0.281 N 
ATOM      3  C   UNL     1      33.829 -19.966 -20.296  0.00  0.00    +0.015 C 
ATOM      4  C   UNL     1      32.476 -20.127 -19.580  0.00  0.00    -0.041 C 
ATOM      5  C   UNL     1      32.433 -21.506 -18.926  0.00  0.00    +0.072 C 
ATOM      6  C   UNL     1      34.945 -20.075 -19.252  0.00  0.00    +0.088 C 
ATOM      7  C   UNL     1      34.873 -21.297 -18.357  0.00  0.00    +0.226 C 
ENDROOT
BRANCH   3  11
ATOM      8  F   UNL     1      34.099 -19.886 -23.120  0.00  0.00    -0.204 F 
ATOM      9  F   UNL     1      34.118 -15.092 -20.486  0.00  0.00    -0.202 F 
ATOM     10  F   UNL     1      34.370 -15.162 -23.208  0.00  0.00    -0.202 F 
ATOM     11  C   UNL     1      33.975 -18.673 -21.083  0.00  0.00    +0.006 C 
ATOM     12  C   UNL     1      34.103 -18.715 -22.468  0.00  0.00    +0.138 C 
ATOM     13  C   UNL     1      33.980 -17.455 -20.410  0.00  0.00    +0.030 C 
ATOM     14  C   UNL     1      34.113 -16.266 -21.129  0.00  0.00    +0.167 C 
ATOM     15  C   UNL     1      34.237 -17.526 -23.187  0.00  0.00    +0.061 C 
ATOM     16  C   UNL     1      34.242 -16.303 -22.517  0.00  0.00    +0.170 C 
ENDBRANCH   3  11
BRANCH   4  17
ATOM     17  N   UNL     1      31.347 -20.021 -20.508  0.00  0.00    +0.383 N 
ATOM     18  H   UNL     1      30.881 -20.925 -20.581  0.00  0.00    -0.089 HD
ATOM     19  H   UNL     1      31.689 -19.739 -21.428  0.00  0.00    -0.089 HD
ATOM     20  H   UNL     1      30.687 -19.324 -20.163  0.00  0.00    -0.089 HD
ENDBRANCH   4  17
BRANCH   2  21
ATOM     21  C   UNL     1      33.456 -22.938 -17.188  0.00  0.00    +0.098 C 
BRANCH  21  22
ATOM     22  C   UNL     1      33.111 -22.481 -15.772  0.00  0.00    +0.048 C 
BRANCH  22  25
ATOM     23  O   UNL     1      28.195 -22.391 -16.231  0.00  0.00    -0.435 OA
ATOM     24  O   UNL     1      27.875 -23.829 -14.324  0.00  0.00    -0.435 OA
ATOM     25  C   UNL     1      31.713 -22.865 -15.354  0.00  0.00    -0.017 C 
ATOM     26  C   UNL     1      30.633 -22.381 -16.079  0.00  0.00    +0.036 C 
ATOM     27  C   UNL     1      31.542 -23.699 -14.246  0.00  0.00    -0.001 C 
ATOM     28  C   UNL     1      29.374 -22.759 -15.658  0.00  0.00    +0.176 C 
ATOM     29  C   UNL     1      29.191 -23.580 -14.568  0.00  0.00    +0.176 C 
ATOM     30  C   UNL     1      30.256 -24.067 -13.840  0.00  0.00    +0.040 C 
ATOM     31  C   UNL     1      27.251 -23.073 -15.381  0.00  0.00    +0.429 C 
ENDBRANCH  22  25
ENDBRANCH  21  22
ENDBRANCH   2  21
TORSDOF 5
ENDMDL
MODEL 6
REMARK VINA RESULT:     -11.2      2.042      3.094
REMARK  Name = 16040279
REMARK  5 active torsions:
REMARK  status: ('A' for Active; 'I' for Inactive)
REMARK    1  A    between atoms: N_2  and  C_21
REMARK    2  A    between atoms: C_3  and  C_11
REMARK    3  A    between atoms: C_4  and  N_17
REMARK    4  A    between atoms: C_21  and  C_22
REMARK    5  A    between atoms: C_22  and  C_25
REMARK                            x       y       z     vdW  Elec       q    Type
REMARK                         _______ _______ _______ _____ _____    ______ ____
ROOT
ATOM      1  O   UNL     1      31.579 -21.371 -18.839  0.00  0.00    -0.275 OA
ATOM      2  N   UNL     1      33.893 -21.389 -18.658  0.00  0.00    -0.281 N 
ATOM      3  C   UNL     1      33.988 -18.918 -20.121  0.00  0.00    +0.015 C 
ATOM      4  C   UNL     1      35.240 -19.811 -20.072  0.00  0.00    -0.041 C 
ATOM      5  C   UNL     1      35.164 -20.686 -18.823  0.00  0.00    +0.072 C 
ATOM      6  C   UNL     1      32.752 -19.819 -20.200  0.00  0.00    +0.088 C 
ATOM      7  C   UNL     1      32.681 -20.908 -19.146  0.00  0.00    +0.226 C 
ENDROOT
BRANCH   3  11
ATOM      8  F   UNL     1      34.217 -16.116 -19.734  0.00  0.00    -0.204 F 
ATOM      9  F   UNL     1      33.711 -17.877 -24.887  0.00  0.00    -0.202 F 
ATOM     10  F   UNL     1      33.940 -15.202 -24.369  0.00  0.00    -0.202 F 
ATOM     11  C   UNL     1      33.975 -17.915 -21.264  0.00  0.00    +0.006 C 
ATOM     12  C   UNL     1      34.092 -16.554 -20.995  0.00  0.00    +0.138 C 
ATOM     13  C   UNL     1      33.845 -18.366 -22.574  0.00  0.00    +0.030 C 
ATOM     14  C   UNL     1      33.834 -17.448 -23.625  0.00  0.00    +0.167 C 
ATOM     15  C   UNL     1      34.080 -15.636 -22.045  0.00  0.00    +0.061 C 
ATOM     16  C   UNL     1      33.951 -16.084 -23.361  0.00  0.00    +0.170 C 
ENDBRANCH   3  11
BRANCH   4  17
ATOM     17  N   UNL     1      36.474 -19.024 -20.010  0.00  0.00    +0.383 N 
ATOM     18  H   UNL     1      37.211 -19.507 -20.524  0.00  0.00    -0.089 HD
ATOM     19  H   UNL     1      36.757 -18.912 -19.035  0.00  0.00    -0.089 HD
ATOM     20  H   UNL     1      36.315 -18.106 -20.426  0.00  0.00    -0.089 HD
ENDBRANCH   4  17
BRANCH   2  21
ATOM     21  C   UNL     1      33.899 -22.499 -17.713  0.00  0.00    +0.098 C 
BRANCH  21  22
ATOM     22  C   UNL     1      34.293 -22.066 -16.303  0.00  0.00    +0.048 C 
BRANCH  22  25
ATOM     23  O   UNL     1      30.129 -23.812 -14.306  0.00  0.00    -0.435 OA
ATOM     24  O   UNL     1      31.283 -24.694 -12.384  0.00  0.00    -0.435 OA
ATOM     25  C   UNL     1      33.513 -22.780 -15.227  0.00  0.00    -0.017 C 
ATOM     26  C   UNL     1      32.138 -22.917 -15.366  0.00  0.00    +0.036 C 
ATOM     27  C   UNL     1      34.195 -23.286 -14.118  0.00  0.00    -0.001 C 
ATOM     28  C   UNL     1      31.468 -23.578 -14.357  0.00  0.00    +0.176 C 
ATOM     29  C   UNL     1      32.128 -24.081 -13.258  0.00  0.00    +0.176 C 
ATOM     30  C   UNL     1      33.493 -23.951 -13.109  0.00  0.00    +0.040 C 
ATOM     31  C   UNL     1      30.019 -24.520 -13.055  0.00  0.00    +0.429 C 
ENDBRANCH  22  25
ENDBRANCH  21  22
ENDBRANCH   2  21
TORSDOF 5
ENDMDL
MODEL 7
REMARK VINA RESULT:     -11.1      3.524      6.091
REMARK  Name = 16040279
REMARK  5 active torsions:
REMARK  status: ('A' for Active; 'I' for Inactive)
REMARK    1  A    between atoms: N_2  and  C_21
REMARK    2  A    between atoms: C_3  and  C_11
REMARK    3  A    between atoms: C_4  and  N_17
REMARK    4  A    between atoms: C_21  and  C_22
REMARK    5  A    between atoms: C_22  and  C_25
REMARK                            x       y       z     vdW  Elec       q    Type
REMARK                         _______ _______ _______ _____ _____    ______ ____
ROOT
ATOM      1  O   UNL     1      34.215 -16.040 -19.639  0.00  0.00    -0.275 OA
ATOM      2  N   UNL     1      33.874 -16.201 -21.929  0.00  0.00    -0.281 N 
ATOM      3  C   UNL     1      33.193 -13.410 -21.984  0.00  0.00    +0.015 C 
ATOM      4  C   UNL     1      32.711 -14.324 -23.125  0.00  0.00    -0.041 C 
ATOM      5  C   UNL     1      33.644 -15.531 -23.207  0.00  0.00    +0.072 C 
ATOM      6  C   UNL     1      33.132 -14.198 -20.673  0.00  0.00    +0.088 C 
ATOM      7  C   UNL     1      33.821 -15.549 -20.700  0.00  0.00    +0.226 C 
ENDROOT
BRANCH   3  11
ATOM      8  F   UNL     1      33.830 -11.058 -23.439  0.00  0.00    -0.204 F 
ATOM      9  F   UNL     1      29.577 -10.782 -20.011  0.00  0.00    -0.202 F 
ATOM     10  F   UNL     1      30.302  -8.590 -21.475  0.00  0.00    -0.202 F 
ATOM     11  C   UNL     1      32.416 -12.110 -21.849  0.00  0.00    +0.006 C 
ATOM     12  C   UNL     1      32.789 -10.997 -22.597  0.00  0.00    +0.138 C 
ATOM     13  C   UNL     1      31.334 -12.043 -20.976  0.00  0.00    +0.030 C 
ATOM     14  C   UNL     1      30.618 -10.852 -20.849  0.00  0.00    +0.167 C 
ATOM     15  C   UNL     1      32.074  -9.806 -22.470  0.00  0.00    +0.061 C 
ATOM     16  C   UNL     1      30.988  -9.734 -21.597  0.00  0.00    +0.170 C 
ENDBRANCH   3  11
BRANCH   4  17
ATOM     17  N   UNL     1      32.724 -13.641 -24.420  0.00  0.00    +0.383 N 
ATOM     18  H   UNL     1      33.587 -13.106 -24.514  0.00  0.00    -0.089 HD
ATOM     19  H   UNL     1      31.924 -13.010 -24.480  0.00  0.00    -0.089 HD
ATOM     20  H   UNL     1      32.669 -14.331 -25.170  0.00  0.00    -0.089 HD
ENDBRANCH   4  17
BRANCH   2  21
ATOM     21  C   UNL     1      34.437 -17.543 -22.008  0.00  0.00    +0.098 C 
BRANCH  21  22
ATOM     22  C   UNL     1      33.374 -18.633 -21.888  0.00  0.00    +0.048 C 
BRANCH  22  25
ATOM     23  O   UNL     1      31.851 -21.653 -18.292  0.00  0.00    -0.435 OA
ATOM     24  O   UNL     1      34.100 -22.079 -17.539  0.00  0.00    -0.435 OA
ATOM     25  C   UNL     1      33.606 -19.557 -20.719  0.00  0.00    -0.017 C 
ATOM     26  C   UNL     1      32.515 -20.148 -20.096  0.00  0.00    +0.036 C 
ATOM     27  C   UNL     1      34.916 -19.794 -20.292  0.00  0.00    -0.001 C 
ATOM     28  C   UNL     1      32.778 -20.985 -19.030  0.00  0.00    +0.176 C 
ATOM     29  C   UNL     1      34.063 -21.227 -18.600  0.00  0.00    +0.176 C 
ATOM     30  C   UNL     1      35.155 -20.646 -19.211  0.00  0.00    +0.040 C 
ATOM     31  C   UNL     1      32.696 -22.344 -17.349  0.00  0.00    +0.429 C 
ENDBRANCH  22  25
ENDBRANCH  21  22
ENDBRANCH   2  21
TORSDOF 5
ENDMDL
MODEL 8
REMARK VINA RESULT:     -11.0      4.398      7.479
REMARK  Name = 16040279
REMARK  5 active torsions:
REMARK  status: ('A' for Active; 'I' for Inactive)
REMARK    1  A    between atoms: N_2  and  C_21
REMARK    2  A    between atoms: C_3  and  C_11
REMARK    3  A    between atoms: C_4  and  N_17
REMARK    4  A    between atoms: C_21  and  C_22
REMARK    5  A    between atoms: C_22  and  C_25
REMARK                            x       y       z     vdW  Elec       q    Type
REMARK                         _______ _______ _______ _____ _____    ______ ____
ROOT
ATOM      1  O   UNL     1      33.766 -14.959 -21.173  0.00  0.00    -0.275 OA
ATOM      2  N   UNL     1      33.041 -15.044 -23.376  0.00  0.00    -0.281 N 
ATOM      3  C   UNL     1      33.416 -12.201 -23.566  0.00  0.00    +0.015 C 
ATOM      4  C   UNL     1      32.466 -12.902 -24.554  0.00  0.00    -0.041 C 
ATOM      5  C   UNL     1      32.875 -14.369 -24.662  0.00  0.00    +0.072 C 
ATOM      6  C   UNL     1      33.277 -12.875 -22.199  0.00  0.00    +0.088 C 
ATOM      7  C   UNL     1      33.417 -14.386 -22.208  0.00  0.00    +0.226 C 
ENDROOT
BRANCH   3  11
ATOM      8  F   UNL     1      34.957 -10.269 -24.962  0.00  0.00    -0.204 F 
ATOM      9  F   UNL     1      31.016  -8.392 -21.666  0.00  0.00    -0.202 F 
ATOM     10  F   UNL     1      32.577  -6.642 -23.071  0.00  0.00    -0.202 F 
ATOM     11  C   UNL     1      33.192 -10.703 -23.435  0.00  0.00    +0.006 C 
ATOM     12  C   UNL     1      33.989  -9.816 -24.152  0.00  0.00    +0.138 C 
ATOM     13  C   UNL     1      32.189 -10.228 -22.595  0.00  0.00    +0.030 C 
ATOM     14  C   UNL     1      31.980  -8.854 -22.472  0.00  0.00    +0.167 C 
ATOM     15  C   UNL     1      33.782  -8.442 -24.028  0.00  0.00    +0.061 C 
ATOM     16  C   UNL     1      32.777  -7.961 -23.189  0.00  0.00    +0.170 C 
ENDBRANCH   3  11
BRANCH   4  17
ATOM     17  N   UNL     1      32.525 -12.307 -25.891  0.00  0.00    +0.383 N 
ATOM     18  H   UNL     1      32.251 -13.002 -26.585  0.00  0.00    -0.089 HD
ATOM     19  H   UNL     1      33.478 -11.993 -26.082  0.00  0.00    -0.089 HD
ATOM     20  H   UNL     1      31.890 -11.510 -25.938  0.00  0.00    -0.089 HD
ENDBRANCH   4  17
BRANCH   2  21
ATOM     21  C   UNL     1      33.062 -16.500 -23.420  0.00  0.00    +0.098 C 
BRANCH  21  22
ATOM     22  C   UNL     1      34.471 -17.070 -23.275  0.00  0.00    +0.048 C 
BRANCH  22  25
ATOM     23  O   UNL     1      32.716 -20.299 -19.977  0.00  0.00    -0.435 OA
ATOM     24  O   UNL     1      34.860 -20.548 -18.907  0.00  0.00    -0.435 OA
ATOM     25  C   UNL     1      34.612 -18.000 -22.095  0.00  0.00    -0.017 C 
ATOM     26  C   UNL     1      33.499 -18.697 -21.646  0.00  0.00    +0.036 C 
ATOM     27  C   UNL     1      35.862 -18.134 -21.483  0.00  0.00    -0.001 C 
ATOM     28  C   UNL     1      33.677 -19.535 -20.563  0.00  0.00    +0.176 C 
ATOM     29  C   UNL     1      34.902 -19.677 -19.951  0.00  0.00    +0.176 C 
ATOM     30  C   UNL     1      36.015 -18.989 -20.389  0.00  0.00    +0.040 C 
ATOM     31  C   UNL     1      33.472 -20.938 -18.929  0.00  0.00    +0.429 C 
ENDBRANCH  22  25
ENDBRANCH  21  22
ENDBRANCH   2  21
TORSDOF 5
ENDMDL
MODEL 9
REMARK VINA RESULT:     -10.8      1.895      2.527
REMARK  Name = 16040279
REMARK  5 active torsions:
REMARK  status: ('A' for Active; 'I' for Inactive)
REMARK    1  A    between atoms: N_2  and  C_21
REMARK    2  A    between atoms: C_3  and  C_11
REMARK    3  A    between atoms: C_4  and  N_17
REMARK    4  A    between atoms: C_21  and  C_22
REMARK    5  A    between atoms: C_22  and  C_25
REMARK                            x       y       z     vdW  Elec       q    Type
REMARK                         _______ _______ _______ _____ _____    ______ ____
ROOT
ATOM      1  O   UNL     1      36.091 -21.618 -17.848  0.00  0.00    -0.275 OA
ATOM      2  N   UNL     1      33.775 -21.694 -17.979  0.00  0.00    -0.281 N 
ATOM      3  C   UNL     1      33.891 -20.004 -20.300  0.00  0.00    +0.015 C 
ATOM      4  C   UNL     1      32.585 -20.079 -19.490  0.00  0.00    -0.041 C 
ATOM      5  C   UNL     1      32.557 -21.407 -18.735  0.00  0.00    +0.072 C 
ATOM      6  C   UNL     1      35.070 -20.066 -19.326  0.00  0.00    +0.088 C 
ATOM      7  C   UNL     1      35.033 -21.219 -18.341  0.00  0.00    +0.226 C 
ENDROOT
BRANCH   3  11
ATOM      8  F   UNL     1      34.019 -20.135 -23.133  0.00  0.00    -0.204 F 
ATOM      9  F   UNL     1      34.221 -15.162 -20.866  0.00  0.00    -0.202 F 
ATOM     10  F   UNL     1      34.335 -15.435 -23.584  0.00  0.00    -0.202 F 
ATOM     11  C   UNL     1      34.011 -18.775 -21.187  0.00  0.00    +0.006 C 
ATOM     12  C   UNL     1      34.068 -18.919 -22.570  0.00  0.00    +0.138 C 
ATOM     13  C   UNL     1      34.062 -17.510 -20.608  0.00  0.00    +0.030 C 
ATOM     14  C   UNL     1      34.172 -16.380 -21.418  0.00  0.00    +0.167 C 
ATOM     15  C   UNL     1      34.179 -17.789 -23.381  0.00  0.00    +0.061 C 
ATOM     16  C   UNL     1      34.230 -16.520 -22.805  0.00  0.00    +0.170 C 
ENDBRANCH   3  11
BRANCH   4  17
ATOM     17  N   UNL     1      31.400 -20.011 -20.348  0.00  0.00    +0.383 N 
ATOM     18  H   UNL     1      30.695 -20.665 -20.007  0.00  0.00    -0.089 HD
ATOM     19  H   UNL     1      31.658 -20.258 -21.304  0.00  0.00    -0.089 HD
ATOM     20  H   UNL     1      31.021 -19.064 -20.331  0.00  0.00    -0.089 HD
ENDBRANCH   4  17
BRANCH   2  21
ATOM     21  C   UNL     1      33.663 -22.736 -16.967  0.00  0.00    +0.098 C 
BRANCH  21  22
ATOM     22  C   UNL     1      34.175 -22.283 -15.601  0.00  0.00    +0.048 C 
BRANCH  22  25
ATOM     23  O   UNL     1      38.468 -24.037 -13.907  0.00  0.00    -0.435 OA
ATOM     24  O   UNL     1      37.449 -26.060 -13.084  0.00  0.00    -0.435 OA
ATOM     25  C   UNL     1      35.027 -23.322 -14.917  0.00  0.00    -0.017 C 
ATOM     26  C   UNL     1      36.389 -23.093 -14.774  0.00  0.00    +0.036 C 
ATOM     27  C   UNL     1      34.424 -24.491 -14.446  0.00  0.00    -0.001 C 
ATOM     28  C   UNL     1      37.128 -24.073 -14.142  0.00  0.00    +0.176 C 
ATOM     29  C   UNL     1      36.546 -25.229 -13.672  0.00  0.00    +0.176 C 
ATOM     30  C   UNL     1      35.194 -25.468 -13.809  0.00  0.00    +0.040 C 
ATOM     31  C   UNL     1      38.664 -25.299 -13.236  0.00  0.00    +0.429 C 
ENDBRANCH  22  25
ENDBRANCH  21  22
ENDBRANCH   2  21
TORSDOF 5
ENDMDL
