MODEL 1
REMARK VINA RESULT:     -11.8      0.000      0.000
REMARK  Name = 9865515
REMARK  6 active torsions:
REMARK  status: ('A' for Active; 'I' for Inactive)
REMARK    1  A    between atoms: C_1  and  C_20
REMARK    2  A    between atoms: C_2  and  C_9
REMARK    3  A    between atoms: N_8  and  C_11
REMARK    4  A    between atoms: C_12  and  N_17
REMARK    5  A    between atoms: C_20  and  N_21
REMARK    6  A    between atoms: C_25  and  C_30
REMARK                            x       y       z     vdW  Elec       q    Type
REMARK                         _______ _______ _______ _____ _____    ______ ____
ROOT
ATOM      1  C   UNL     1      33.472 -21.932 -18.319  0.00  0.00    -0.002 C 
ATOM      2  C   UNL     1      34.299 -19.783 -19.892  0.00  0.00    +0.054 C 
ATOM      3  C   UNL     1      32.531 -21.174 -19.014  0.00  0.00    -0.002 C 
ATOM      4  C   UNL     1      34.828 -21.616 -18.411  0.00  0.00    -0.002 C 
ATOM      5  C   UNL     1      32.943 -20.098 -19.800  0.00  0.00    +0.004 C 
ATOM      6  C   UNL     1      35.241 -20.541 -19.197  0.00  0.00    +0.004 C 
ENDROOT
BRANCH   2   9
ATOM      7  O   UNL     1      35.944 -18.435 -20.835  0.00  0.00    -0.270 OA
ATOM      8  N   UNL     1      33.707 -17.922 -21.324  0.00  0.00    -0.279 N 
ATOM      9  C   UNL     1      34.730 -18.659 -20.710  0.00  0.00    +0.250 C 
ATOM     10  H   UNL     1      32.790 -18.220 -21.130  0.00  0.00    +0.155 HD
BRANCH   8  11
ATOM     11  C   UNL     1      33.823 -16.804 -22.186  0.00  0.00    +0.064 C 
ATOM     12  C   UNL     1      33.844 -15.520 -21.667  0.00  0.00    +0.055 C 
ATOM     13  C   UNL     1      33.913 -17.033 -23.550  0.00  0.00    +0.016 C 
ATOM     14  C   UNL     1      33.959 -14.434 -22.537  0.00  0.00    +0.015 C 
ATOM     15  C   UNL     1      34.027 -15.948 -24.418  0.00  0.00    +0.001 C 
ATOM     16  C   UNL     1      34.050 -14.648 -23.912  0.00  0.00    +0.001 C 
BRANCH  12  17
ATOM     17  N   UNL     1      33.755 -15.280 -20.279  0.00  0.00    -0.356 N 
ATOM     18  H   UNL     1      34.519 -15.487 -19.693  0.00  0.00    +0.142 HD
ATOM     19  H   UNL     1      32.928 -14.906 -19.895  0.00  0.00    +0.142 HD
ENDBRANCH  12  17
ENDBRANCH   8  11
ENDBRANCH   2   9
BRANCH   1  20
ATOM     20  C   UNL     1      33.031 -23.084 -17.479  0.00  0.00    +0.124 C 
BRANCH  20  21
ATOM     21  N   UNL     1      31.927 -22.707 -16.624  0.00  0.00    -0.264 N 
ATOM     22  N   UNL     1      32.994 -23.521 -14.699  0.00  0.00    -0.338 NA
ATOM     23  N   UNL     1      30.808 -22.518 -14.570  0.00  0.00    -0.170 NA
ATOM     24  C   UNL     1      31.910 -22.922 -15.256  0.00  0.00    +0.145 C 
ATOM     25  C   UNL     1      32.944 -23.715 -13.366  0.00  0.00    +0.147 C 
ATOM     26  C   UNL     1      31.874 -23.343 -12.576  0.00  0.00    +0.055 C 
ATOM     27  C   UNL     1      30.824 -22.743 -13.239  0.00  0.00    +0.114 C 
ATOM     28  H   UNL     1      31.146 -22.273 -17.037  0.00  0.00    +0.160 HD
BRANCH  25  30
ATOM     29  N   UNL     1      35.370 -24.956 -10.823  0.00  0.00    -0.242 NA
ATOM     30  C   UNL     1      34.106 -24.353 -12.793  0.00  0.00    +0.050 C 
ATOM     31  C   UNL     1      35.061 -24.962 -13.601  0.00  0.00    +0.006 C 
ATOM     32  C   UNL     1      34.306 -24.378 -11.422  0.00  0.00    +0.101 C 
ATOM     33  C   UNL     1      36.171 -25.567 -13.021  0.00  0.00    +0.021 C 
ATOM     34  C   UNL     1      36.277 -25.537 -11.640  0.00  0.00    +0.099 C 
ENDBRANCH  25  30
ENDBRANCH  20  21
ENDBRANCH   1  20
TORSDOF 6
ENDMDL
MODEL 2
REMARK VINA RESULT:     -11.6      2.273      3.426
REMARK  Name = 9865515
REMARK  6 active torsions:
REMARK  status: ('A' for Active; 'I' for Inactive)
REMARK    1  A    between atoms: C_1  and  C_20
REMARK    2  A    between atoms: C_2  and  C_9
REMARK    3  A    between atoms: N_8  and  C_11
REMARK    4  A    between atoms: C_12  and  N_17
REMARK    5  A    between atoms: C_20  and  N_21
REMARK    6  A    between atoms: C_25  and  C_30
REMARK                            x       y       z     vdW  Elec       q    Type
REMARK                         _______ _______ _______ _____ _____    ______ ____
ROOT
ATOM      1  C   UNL     1      34.186 -19.426 -20.563  0.00  0.00    -0.002 C 
ATOM      2  C   UNL     1      33.997 -17.416 -22.487  0.00  0.00    +0.054 C 
ATOM      3  C   UNL     1      33.588 -19.693 -21.794  0.00  0.00    -0.002 C 
ATOM      4  C   UNL     1      34.690 -18.154 -20.293  0.00  0.00    -0.002 C 
ATOM      5  C   UNL     1      33.493 -18.688 -22.756  0.00  0.00    +0.004 C 
ATOM      6  C   UNL     1      34.595 -17.149 -21.255  0.00  0.00    +0.004 C 
ENDROOT
BRANCH   2   9
ATOM      7  O   UNL     1      34.257 -16.607 -24.653  0.00  0.00    -0.270 OA
ATOM      8  N   UNL     1      33.362 -15.148 -23.048  0.00  0.00    -0.279 N 
ATOM      9  C   UNL     1      33.896 -16.366 -23.489  0.00  0.00    +0.250 C 
ATOM     10  H   UNL     1      33.121 -15.107 -22.094  0.00  0.00    +0.155 HD
BRANCH   8  11
ATOM     11  C   UNL     1      33.123 -13.968 -23.795  0.00  0.00    +0.064 C 
ATOM     12  C   UNL     1      33.322 -12.724 -23.220  0.00  0.00    +0.055 C 
ATOM     13  C   UNL     1      32.687 -14.096 -25.104  0.00  0.00    +0.016 C 
ATOM     14  C   UNL     1      33.080 -11.576 -23.975  0.00  0.00    +0.015 C 
ATOM     15  C   UNL     1      32.445 -12.949 -25.859  0.00  0.00    +0.001 C 
ATOM     16  C   UNL     1      32.641 -11.688 -25.294  0.00  0.00    +0.001 C 
BRANCH  12  17
ATOM     17  N   UNL     1      33.767 -12.587 -21.886  0.00  0.00    -0.356 N 
ATOM     18  H   UNL     1      33.184 -12.166 -21.213  0.00  0.00    +0.142 HD
ATOM     19  H   UNL     1      34.660 -12.912 -21.629  0.00  0.00    +0.142 HD
ENDBRANCH  12  17
ENDBRANCH   8  11
ENDBRANCH   2   9
BRANCH   1  20
ATOM     20  C   UNL     1      34.289 -20.502 -19.534  0.00  0.00    +0.124 C 
BRANCH  20  21
ATOM     21  N   UNL     1      32.978 -20.897 -19.066  0.00  0.00    -0.264 N 
ATOM     22  N   UNL     1      33.858 -21.995 -17.188  0.00  0.00    -0.338 NA
ATOM     23  N   UNL     1      31.482 -21.936 -17.587  0.00  0.00    -0.170 NA
ATOM     24  C   UNL     1      32.767 -21.632 -17.912  0.00  0.00    +0.145 C 
ATOM     25  C   UNL     1      33.615 -22.710 -16.070  0.00  0.00    +0.147 C 
ATOM     26  C   UNL     1      32.351 -23.072 -15.650  0.00  0.00    +0.055 C 
ATOM     27  C   UNL     1      31.312 -22.653 -16.456  0.00  0.00    +0.114 C 
ATOM     28  H   UNL     1      32.194 -20.629 -19.598  0.00  0.00    +0.160 HD
BRANCH  25  30
ATOM     29  N   UNL     1      37.099 -22.666 -14.746  0.00  0.00    -0.242 NA
ATOM     30  C   UNL     1      34.787 -23.085 -15.315  0.00  0.00    +0.050 C 
ATOM     31  C   UNL     1      34.767 -24.180 -14.457  0.00  0.00    +0.006 C 
ATOM     32  C   UNL     1      35.967 -22.368 -15.422  0.00  0.00    +0.101 C 
ATOM     33  C   UNL     1      35.911 -24.519 -13.744  0.00  0.00    +0.021 C 
ATOM     34  C   UNL     1      37.042 -23.736 -13.922  0.00  0.00    +0.099 C 
ENDBRANCH  25  30
ENDBRANCH  20  21
ENDBRANCH   1  20
TORSDOF 6
ENDMDL
MODEL 3
REMARK VINA RESULT:     -11.2      2.688     10.740
REMARK  Name = 9865515
REMARK  6 active torsions:
REMARK  status: ('A' for Active; 'I' for Inactive)
REMARK    1  A    between atoms: C_1  and  C_20
REMARK    2  A    between atoms: C_2  and  C_9
REMARK    3  A    between atoms: N_8  and  C_11
REMARK    4  A    between atoms: C_12  and  N_17
REMARK    5  A    between atoms: C_20  and  N_21
REMARK    6  A    between atoms: C_25  and  C_30
REMARK                            x       y       z     vdW  Elec       q    Type
REMARK                         _______ _______ _______ _____ _____    ______ ____
ROOT
ATOM      1  C   UNL     1      34.546 -19.753 -19.904  0.00  0.00    -0.002 C 
ATOM      2  C   UNL     1      33.179 -21.629 -18.358  0.00  0.00    +0.054 C 
ATOM      3  C   UNL     1      35.255 -20.631 -19.085  0.00  0.00    -0.002 C 
ATOM      4  C   UNL     1      33.153 -19.813 -19.950  0.00  0.00    -0.002 C 
ATOM      5  C   UNL     1      34.572 -21.568 -18.311  0.00  0.00    +0.004 C 
ATOM      6  C   UNL     1      32.470 -20.751 -19.177  0.00  0.00    +0.004 C 
ENDROOT
BRANCH   2   9
ATOM      7  O   UNL     1      32.653 -23.815 -17.759  0.00  0.00    -0.270 OA
ATOM      8  N   UNL     1      31.627 -22.081 -16.557  0.00  0.00    -0.279 N 
ATOM      9  C   UNL     1      32.467 -22.606 -17.548  0.00  0.00    +0.250 C 
ATOM     10  H   UNL     1      31.580 -21.099 -16.510  0.00  0.00    +0.155 HD
BRANCH   8  11
ATOM     11  C   UNL     1      30.835 -22.781 -15.612  0.00  0.00    +0.064 C 
ATOM     12  C   UNL     1      31.436 -23.496 -14.589  0.00  0.00    +0.055 C 
ATOM     13  C   UNL     1      29.457 -22.730 -15.743  0.00  0.00    +0.016 C 
ATOM     14  C   UNL     1      30.636 -24.178 -13.672  0.00  0.00    +0.015 C 
ATOM     15  C   UNL     1      28.657 -23.411 -14.826  0.00  0.00    +0.001 C 
ATOM     16  C   UNL     1      29.247 -24.136 -13.790  0.00  0.00    +0.001 C 
BRANCH  12  17
ATOM     17  N   UNL     1      32.840 -23.552 -14.450  0.00  0.00    -0.356 N 
ATOM     18  H   UNL     1      33.341 -22.748 -14.182  0.00  0.00    +0.142 HD
ATOM     19  H   UNL     1      33.319 -24.396 -14.620  0.00  0.00    +0.142 HD
ENDBRANCH  12  17
ENDBRANCH   8  11
ENDBRANCH   2   9
BRANCH   1  20
ATOM     20  C   UNL     1      35.276 -18.750 -20.734  0.00  0.00    +0.124 C 
BRANCH  20  21
ATOM     21  N   UNL     1      34.876 -18.837 -22.122  0.00  0.00    -0.264 N 
ATOM     22  N   UNL     1      33.939 -16.685 -22.101  0.00  0.00    -0.338 NA
ATOM     23  N   UNL     1      33.899 -18.033 -24.098  0.00  0.00    -0.170 NA
ATOM     24  C   UNL     1      34.218 -17.821 -22.793  0.00  0.00    +0.145 C 
ATOM     25  C   UNL     1      33.299 -15.716 -22.786  0.00  0.00    +0.147 C 
ATOM     26  C   UNL     1      32.929 -15.830 -24.111  0.00  0.00    +0.055 C 
ATOM     27  C   UNL     1      33.259 -17.022 -24.722  0.00  0.00    +0.114 C 
ATOM     28  H   UNL     1      35.082 -19.664 -22.614  0.00  0.00    +0.160 HD
BRANCH  25  30
ATOM     29  N   UNL     1      32.137 -12.266 -21.990  0.00  0.00    -0.242 NA
ATOM     30  C   UNL     1      33.012 -14.519 -22.032  0.00  0.00    +0.050 C 
ATOM     31  C   UNL     1      33.312 -14.435 -20.676  0.00  0.00    +0.006 C 
ATOM     32  C   UNL     1      32.430 -13.416 -22.636  0.00  0.00    +0.101 C 
ATOM     33  C   UNL     1      33.025 -13.268 -19.977  0.00  0.00    +0.021 C 
ATOM     34  C   UNL     1      32.443 -12.221 -20.674  0.00  0.00    +0.099 C 
ENDBRANCH  25  30
ENDBRANCH  20  21
ENDBRANCH   1  20
TORSDOF 6
ENDMDL
MODEL 4
REMARK VINA RESULT:     -11.0      4.943     12.967
REMARK  Name = 9865515
REMARK  6 active torsions:
REMARK  status: ('A' for Active; 'I' for Inactive)
REMARK    1  A    between atoms: C_1  and  C_20
REMARK    2  A    between atoms: C_2  and  C_9
REMARK    3  A    between atoms: N_8  and  C_11
REMARK    4  A    between atoms: C_12  and  N_17
REMARK    5  A    between atoms: C_20  and  N_21
REMARK    6  A    between atoms: C_25  and  C_30
REMARK                            x       y       z     vdW  Elec       q    Type
REMARK                         _______ _______ _______ _____ _____    ______ ____
ROOT
ATOM      1  C   UNL     1      32.810 -14.096 -23.698  0.00  0.00    -0.002 C 
ATOM      2  C   UNL     1      33.816 -16.486 -22.671  0.00  0.00    +0.054 C 
ATOM      3  C   UNL     1      33.343 -14.132 -22.410  0.00  0.00    -0.002 C 
ATOM      4  C   UNL     1      32.780 -15.255 -24.473  0.00  0.00    -0.002 C 
ATOM      5  C   UNL     1      33.846 -15.327 -21.896  0.00  0.00    +0.004 C 
ATOM      6  C   UNL     1      33.283 -16.450 -23.960  0.00  0.00    +0.004 C 
ENDROOT
BRANCH   2   9
ATOM      7  O   UNL     1      35.205 -18.350 -22.775  0.00  0.00    -0.270 OA
ATOM      8  N   UNL     1      33.819 -18.130 -20.894  0.00  0.00    -0.279 N 
ATOM      9  C   UNL     1      34.338 -17.734 -22.135  0.00  0.00    +0.250 C 
ATOM     10  H   UNL     1      33.135 -17.538 -20.508  0.00  0.00    +0.155 HD
BRANCH   8  11
ATOM     11  C   UNL     1      34.152 -19.273 -20.125  0.00  0.00    +0.064 C 
ATOM     12  C   UNL     1      35.458 -19.480 -19.710  0.00  0.00    +0.055 C 
ATOM     13  C   UNL     1      33.143 -20.166 -19.804  0.00  0.00    +0.016 C 
ATOM     14  C   UNL     1      35.762 -20.612 -18.954  0.00  0.00    +0.015 C 
ATOM     15  C   UNL     1      33.447 -21.298 -19.048  0.00  0.00    +0.001 C 
ATOM     16  C   UNL     1      34.757 -21.521 -18.623  0.00  0.00    +0.001 C 
BRANCH  12  17
ATOM     17  N   UNL     1      36.491 -18.573 -20.032  0.00  0.00    -0.356 N 
ATOM     18  H   UNL     1      36.738 -18.422 -20.973  0.00  0.00    +0.142 HD
ATOM     19  H   UNL     1      36.964 -18.090 -19.316  0.00  0.00    +0.142 HD
ENDBRANCH  12  17
ENDBRANCH   8  11
ENDBRANCH   2   9
BRANCH   1  20
ATOM     20  C   UNL     1      32.274 -12.817 -24.248  0.00  0.00    +0.124 C 
BRANCH  20  21
ATOM     21  N   UNL     1      33.329 -12.031 -24.850  0.00  0.00    -0.264 N 
ATOM     22  N   UNL     1      32.893 -10.185 -23.467  0.00  0.00    -0.338 NA
ATOM     23  N   UNL     1      34.651 -10.110 -25.114  0.00  0.00    -0.170 NA
ATOM     24  C   UNL     1      33.633 -10.736 -24.465  0.00  0.00    +0.145 C 
ATOM     25  C   UNL     1      33.217  -8.924 -23.117  0.00  0.00    +0.147 C 
ATOM     26  C   UNL     1      34.230  -8.199 -23.711  0.00  0.00    +0.055 C 
ATOM     27  C   UNL     1      34.921  -8.849 -24.714  0.00  0.00    +0.114 C 
ATOM     28  H   UNL     1      33.859 -12.439 -25.572  0.00  0.00    +0.160 HD
BRANCH  25  30
ATOM     29  N   UNL     1      30.550  -8.571 -20.538  0.00  0.00    -0.242 NA
ATOM     30  C   UNL     1      32.419  -8.357 -22.055  0.00  0.00    +0.050 C 
ATOM     31  C   UNL     1      32.714  -7.104 -21.527  0.00  0.00    +0.006 C 
ATOM     32  C   UNL     1      31.337  -9.044 -21.530  0.00  0.00    +0.101 C 
ATOM     33  C   UNL     1      31.927  -6.584 -20.506  0.00  0.00    +0.021 C 
ATOM     34  C   UNL     1      30.866  -7.350 -20.050  0.00  0.00    +0.099 C 
ENDBRANCH  25  30
ENDBRANCH  20  21
ENDBRANCH   1  20
TORSDOF 6
ENDMDL
MODEL 5
REMARK VINA RESULT:     -10.9      5.353      9.462
REMARK  Name = 9865515
REMARK  6 active torsions:
REMARK  status: ('A' for Active; 'I' for Inactive)
REMARK    1  A    between atoms: C_1  and  C_20
REMARK    2  A    between atoms: C_2  and  C_9
REMARK    3  A    between atoms: N_8  and  C_11
REMARK    4  A    between atoms: C_12  and  N_17
REMARK    5  A    between atoms: C_20  and  N_21
REMARK    6  A    between atoms: C_25  and  C_30
REMARK                            x       y       z     vdW  Elec       q    Type
REMARK                         _______ _______ _______ _____ _____    ______ ____
ROOT
ATOM      1  C   UNL     1      32.918 -13.701 -20.766  0.00  0.00    -0.002 C 
ATOM      2  C   UNL     1      31.463 -11.323 -20.854  0.00  0.00    +0.054 C 
ATOM      3  C   UNL     1      32.002 -13.406 -19.756  0.00  0.00    -0.002 C 
ATOM      4  C   UNL     1      33.106 -12.807 -21.820  0.00  0.00    -0.002 C 
ATOM      5  C   UNL     1      31.275 -12.217 -19.799  0.00  0.00    +0.004 C 
ATOM      6  C   UNL     1      32.379 -11.618 -21.864  0.00  0.00    +0.004 C 
ENDROOT
BRANCH   2   9
ATOM      7  O   UNL     1      29.471 -10.124 -20.776  0.00  0.00    -0.270 OA
ATOM      8  N   UNL     1      31.460  -8.911 -21.053  0.00  0.00    -0.279 N 
ATOM      9  C   UNL     1      30.706 -10.082 -20.898  0.00  0.00    +0.250 C 
ATOM     10  H   UNL     1      32.433  -9.037 -21.138  0.00  0.00    +0.155 HD
BRANCH   8  11
ATOM     11  C   UNL     1      31.005  -7.570 -21.104  0.00  0.00    +0.064 C 
ATOM     12  C   UNL     1      31.363  -6.672 -20.113  0.00  0.00    +0.055 C 
ATOM     13  C   UNL     1      30.199  -7.190 -22.165  0.00  0.00    +0.016 C 
ATOM     14  C   UNL     1      30.902  -5.356 -20.184  0.00  0.00    +0.015 C 
ATOM     15  C   UNL     1      29.738  -5.876 -22.236  0.00  0.00    +0.001 C 
ATOM     16  C   UNL     1      30.090  -4.958 -21.246  0.00  0.00    +0.001 C 
BRANCH  12  17
ATOM     17  N   UNL     1      32.186  -7.052 -19.030  0.00  0.00    -0.356 N 
ATOM     18  H   UNL     1      31.842  -7.668 -18.343  0.00  0.00    +0.142 HD
ATOM     19  H   UNL     1      33.104  -6.703 -18.962  0.00  0.00    +0.142 HD
ENDBRANCH  12  17
ENDBRANCH   8  11
ENDBRANCH   2   9
BRANCH   1  20
ATOM     20  C   UNL     1      33.696 -14.974 -20.721  0.00  0.00    +0.124 C 
BRANCH  20  21
ATOM     21  N   UNL     1      33.825 -15.548 -22.043  0.00  0.00    -0.264 N 
ATOM     22  N   UNL     1      33.814 -17.743 -21.212  0.00  0.00    -0.338 NA
ATOM     23  N   UNL     1      34.004 -17.315 -23.576  0.00  0.00    -0.170 NA
ATOM     24  C   UNL     1      33.883 -16.910 -22.284  0.00  0.00    +0.145 C 
ATOM     25  C   UNL     1      33.873 -19.062 -21.483  0.00  0.00    +0.147 C 
ATOM     26  C   UNL     1      33.996 -19.579 -22.757  0.00  0.00    +0.055 C 
ATOM     27  C   UNL     1      34.058 -18.649 -23.775  0.00  0.00    +0.114 C 
ATOM     28  H   UNL     1      33.874 -14.936 -22.813  0.00  0.00    +0.160 HD
BRANCH  25  30
ATOM     29  N   UNL     1      34.945 -21.231 -18.648  0.00  0.00    -0.242 NA
ATOM     30  C   UNL     1      33.797 -19.930 -20.331  0.00  0.00    +0.050 C 
ATOM     31  C   UNL     1      32.570 -20.304 -19.794  0.00  0.00    +0.006 C 
ATOM     32  C   UNL     1      34.945 -20.416 -19.726  0.00  0.00    +0.101 C 
ATOM     33  C   UNL     1      32.529 -21.141 -18.685  0.00  0.00    +0.021 C 
ATOM     34  C   UNL     1      33.734 -21.574 -18.154  0.00  0.00    +0.099 C 
ENDBRANCH  25  30
ENDBRANCH  20  21
ENDBRANCH   1  20
TORSDOF 6
ENDMDL
MODEL 6
REMARK VINA RESULT:     -10.8      5.039     13.600
REMARK  Name = 9865515
REMARK  6 active torsions:
REMARK  status: ('A' for Active; 'I' for Inactive)
REMARK    1  A    between atoms: C_1  and  C_20
REMARK    2  A    between atoms: C_2  and  C_9
REMARK    3  A    between atoms: N_8  and  C_11
REMARK    4  A    between atoms: C_12  and  N_17
REMARK    5  A    between atoms: C_20  and  N_21
REMARK    6  A    between atoms: C_25  and  C_30
REMARK                            x       y       z     vdW  Elec       q    Type
REMARK                         _______ _______ _______ _____ _____    ______ ____
ROOT
ATOM      1  C   UNL     1      33.414 -13.532 -22.625  0.00  0.00    -0.002 C 
ATOM      2  C   UNL     1      34.022 -16.188 -22.029  0.00  0.00    +0.054 C 
ATOM      3  C   UNL     1      33.554 -13.934 -21.297  0.00  0.00    -0.002 C 
ATOM      4  C   UNL     1      33.578 -14.457 -23.655  0.00  0.00    -0.002 C 
ATOM      5  C   UNL     1      33.857 -15.262 -20.999  0.00  0.00    +0.004 C 
ATOM      6  C   UNL     1      33.882 -15.785 -23.357  0.00  0.00    +0.004 C 
ENDROOT
BRANCH   2   9
ATOM      7  O   UNL     1      35.021 -18.231 -22.519  0.00  0.00    -0.270 OA
ATOM      8  N   UNL     1      33.846 -18.052 -20.496  0.00  0.00    -0.279 N 
ATOM      9  C   UNL     1      34.336 -17.574 -21.718  0.00  0.00    +0.250 C 
ATOM     10  H   UNL     1      33.317 -17.413 -19.967  0.00  0.00    +0.155 HD
BRANCH   8  11
ATOM     11  C   UNL     1      34.013 -19.338 -19.922  0.00  0.00    +0.064 C 
ATOM     12  C   UNL     1      35.275 -19.789 -19.572  0.00  0.00    +0.055 C 
ATOM     13  C   UNL     1      32.887 -20.120 -19.726  0.00  0.00    +0.016 C 
ATOM     14  C   UNL     1      35.414 -21.058 -19.009  0.00  0.00    +0.015 C 
ATOM     15  C   UNL     1      33.026 -21.389 -19.163  0.00  0.00    +0.001 C 
ATOM     16  C   UNL     1      34.290 -21.858 -18.805  0.00  0.00    +0.001 C 
BRANCH  12  17
ATOM     17  N   UNL     1      36.426 -18.995 -19.769  0.00  0.00    -0.356 N 
ATOM     18  H   UNL     1      36.354 -18.126 -20.225  0.00  0.00    +0.142 HD
ATOM     19  H   UNL     1      37.303 -19.311 -19.448  0.00  0.00    +0.142 HD
ENDBRANCH  12  17
ENDBRANCH   8  11
ENDBRANCH   2   9
BRANCH   1  20
ATOM     20  C   UNL     1      33.091 -12.110 -22.944  0.00  0.00    +0.124 C 
BRANCH  20  21
ATOM     21  N   UNL     1      32.143 -11.570 -21.994  0.00  0.00    -0.264 N 
ATOM     22  N   UNL     1      32.394  -9.386 -22.817  0.00  0.00    -0.338 NA
ATOM     23  N   UNL     1      30.894  -9.855 -20.991  0.00  0.00    -0.170 NA
ATOM     24  C   UNL     1      31.801 -10.230 -21.932  0.00  0.00    +0.145 C 
ATOM     25  C   UNL     1      32.038  -8.089 -22.729  0.00  0.00    +0.147 C 
ATOM     26  C   UNL     1      31.129  -7.604 -21.810  0.00  0.00    +0.055 C 
ATOM     27  C   UNL     1      30.584  -8.542 -20.958  0.00  0.00    +0.114 C 
ATOM     28  H   UNL     1      31.718 -12.189 -21.357  0.00  0.00    +0.160 HD
BRANCH  25  30
ATOM     29  N   UNL     1      32.781  -6.313 -25.920  0.00  0.00    -0.242 NA
ATOM     30  C   UNL     1      32.680  -7.210 -23.678  0.00  0.00    +0.050 C 
ATOM     31  C   UNL     1      33.774  -6.433 -23.310  0.00  0.00    +0.006 C 
ATOM     32  C   UNL     1      32.226  -7.113 -24.984  0.00  0.00    +0.101 C 
ATOM     33  C   UNL     1      34.371  -5.597 -24.246  0.00  0.00    +0.021 C 
ATOM     34  C   UNL     1      33.842  -5.573 -25.526  0.00  0.00    +0.099 C 
ENDBRANCH  25  30
ENDBRANCH  20  21
ENDBRANCH   1  20
TORSDOF 6
ENDMDL
MODEL 7
REMARK VINA RESULT:     -10.8      1.612      3.486
REMARK  Name = 9865515
REMARK  6 active torsions:
REMARK  status: ('A' for Active; 'I' for Inactive)
REMARK    1  A    between atoms: C_1  and  C_20
REMARK    2  A    between atoms: C_2  and  C_9
REMARK    3  A    between atoms: N_8  and  C_11
REMARK    4  A    between atoms: C_12  and  N_17
REMARK    5  A    between atoms: C_20  and  N_21
REMARK    6  A    between atoms: C_25  and  C_30
REMARK                            x       y       z     vdW  Elec       q    Type
REMARK                         _______ _______ _______ _____ _____    ______ ____
ROOT
ATOM      1  C   UNL     1      33.859 -21.444 -18.707  0.00  0.00    -0.002 C 
ATOM      2  C   UNL     1      34.467 -19.214 -20.268  0.00  0.00    +0.054 C 
ATOM      3  C   UNL     1      35.188 -21.062 -18.889  0.00  0.00    -0.002 C 
ATOM      4  C   UNL     1      32.834 -20.712 -19.305  0.00  0.00    -0.002 C 
ATOM      5  C   UNL     1      35.492 -19.948 -19.670  0.00  0.00    +0.004 C 
ATOM      6  C   UNL     1      33.138 -19.597 -20.085  0.00  0.00    +0.004 C 
ENDROOT
BRANCH   2   9
ATOM      7  O   UNL     1      35.967 -17.841 -21.398  0.00  0.00    -0.270 OA
ATOM      8  N   UNL     1      33.694 -17.266 -21.478  0.00  0.00    -0.279 N 
ATOM      9  C   UNL     1      34.784 -18.053 -21.084  0.00  0.00    +0.250 C 
ATOM     10  H   UNL     1      32.813 -17.559 -21.150  0.00  0.00    +0.155 HD
BRANCH   8  11
ATOM     11  C   UNL     1      33.693 -16.102 -22.286  0.00  0.00    +0.064 C 
ATOM     12  C   UNL     1      33.669 -14.845 -21.703  0.00  0.00    +0.055 C 
ATOM     13  C   UNL     1      33.716 -16.258 -23.663  0.00  0.00    +0.016 C 
ATOM     14  C   UNL     1      33.669 -13.714 -22.520  0.00  0.00    +0.015 C 
ATOM     15  C   UNL     1      33.716 -15.127 -24.479  0.00  0.00    +0.001 C 
ATOM     16  C   UNL     1      33.692 -13.854 -23.907  0.00  0.00    +0.001 C 
BRANCH  12  17
ATOM     17  N   UNL     1      33.647 -14.680 -20.301  0.00  0.00    -0.356 N 
ATOM     18  H   UNL     1      34.411 -14.980 -19.757  0.00  0.00    +0.142 HD
ATOM     19  H   UNL     1      32.868 -14.263 -19.866  0.00  0.00    +0.142 HD
ENDBRANCH  12  17
ENDBRANCH   8  11
ENDBRANCH   2   9
BRANCH   1  20
ATOM     20  C   UNL     1      33.533 -22.636 -17.870  0.00  0.00    +0.124 C 
BRANCH  20  21
ATOM     21  N   UNL     1      34.217 -22.576 -16.596  0.00  0.00    -0.264 N 
ATOM     22  N   UNL     1      32.286 -23.176 -15.405  0.00  0.00    -0.338 NA
ATOM     23  N   UNL     1      34.363 -22.750 -14.261  0.00  0.00    -0.170 NA
ATOM     24  C   UNL     1      33.603 -22.842 -15.385  0.00  0.00    +0.145 C 
ATOM     25  C   UNL     1      31.720 -23.428 -14.208  0.00  0.00    +0.147 C 
ATOM     26  C   UNL     1      32.401 -23.363 -13.009  0.00  0.00    +0.055 C 
ATOM     27  C   UNL     1      33.733 -23.016 -13.097  0.00  0.00    +0.114 C 
ATOM     28  H   UNL     1      35.171 -22.334 -16.592  0.00  0.00    +0.160 HD
BRANCH  25  30
ATOM     29  N   UNL     1      28.088 -23.276 -15.027  0.00  0.00    -0.242 NA
ATOM     30  C   UNL     1      30.321 -23.781 -14.252  0.00  0.00    +0.050 C 
ATOM     31  C   UNL     1      29.845 -24.913 -13.597  0.00  0.00    +0.006 C 
ATOM     32  C   UNL     1      29.409 -23.004 -14.947  0.00  0.00    +0.101 C 
ATOM     33  C   UNL     1      28.492 -25.227 -13.656  0.00  0.00    +0.021 C 
ATOM     34  C   UNL     1      27.662 -24.384 -14.378  0.00  0.00    +0.099 C 
ENDBRANCH  25  30
ENDBRANCH  20  21
ENDBRANCH   1  20
TORSDOF 6
ENDMDL
MODEL 8
REMARK VINA RESULT:     -10.7      2.599     11.302
REMARK  Name = 9865515
REMARK  6 active torsions:
REMARK  status: ('A' for Active; 'I' for Inactive)
REMARK    1  A    between atoms: C_1  and  C_20
REMARK    2  A    between atoms: C_2  and  C_9
REMARK    3  A    between atoms: N_8  and  C_11
REMARK    4  A    between atoms: C_12  and  N_17
REMARK    5  A    between atoms: C_20  and  N_21
REMARK    6  A    between atoms: C_25  and  C_30
REMARK                            x       y       z     vdW  Elec       q    Type
REMARK                         _______ _______ _______ _____ _____    ______ ____
ROOT
ATOM      1  C   UNL     1      33.780 -19.437 -20.123  0.00  0.00    -0.002 C 
ATOM      2  C   UNL     1      32.974 -21.528 -18.463  0.00  0.00    +0.054 C 
ATOM      3  C   UNL     1      34.735 -20.236 -19.495  0.00  0.00    -0.002 C 
ATOM      4  C   UNL     1      32.422 -19.683 -19.922  0.00  0.00    -0.002 C 
ATOM      5  C   UNL     1      34.332 -21.281 -18.664  0.00  0.00    +0.004 C 
ATOM      6  C   UNL     1      32.019 -20.728 -19.092  0.00  0.00    +0.004 C 
ENDROOT
BRANCH   2   9
ATOM      7  O   UNL     1      32.750 -23.788 -17.957  0.00  0.00    -0.270 OA
ATOM      8  N   UNL     1      31.968 -22.238 -16.379  0.00  0.00    -0.279 N 
ATOM      9  C   UNL     1      32.553 -22.617 -17.594  0.00  0.00    +0.250 C 
ATOM     10  H   UNL     1      31.877 -21.269 -16.231  0.00  0.00    +0.155 HD
BRANCH   8  11
ATOM     11  C   UNL     1      31.490 -23.068 -15.334  0.00  0.00    +0.064 C 
ATOM     12  C   UNL     1      30.130 -23.275 -15.173  0.00  0.00    +0.055 C 
ATOM     13  C   UNL     1      32.415 -23.659 -14.489  0.00  0.00    +0.016 C 
ATOM     14  C   UNL     1      29.683 -24.096 -14.137  0.00  0.00    +0.015 C 
ATOM     15  C   UNL     1      31.968 -24.479 -13.454  0.00  0.00    +0.001 C 
ATOM     16  C   UNL     1      30.601 -24.698 -13.277  0.00  0.00    +0.001 C 
BRANCH  12  17
ATOM     17  N   UNL     1      29.182 -22.677 -16.032  0.00  0.00    -0.356 N 
ATOM     18  H   UNL     1      28.686 -23.229 -16.679  0.00  0.00    +0.142 HD
ATOM     19  H   UNL     1      29.016 -21.708 -15.984  0.00  0.00    +0.142 HD
ENDBRANCH  12  17
ENDBRANCH   8  11
ENDBRANCH   2   9
BRANCH   1  20
ATOM     20  C   UNL     1      34.211 -18.319 -21.013  0.00  0.00    +0.124 C 
BRANCH  20  21
ATOM     21  N   UNL     1      34.347 -17.087 -20.266  0.00  0.00    -0.264 N 
ATOM     22  N   UNL     1      33.494 -15.795 -22.030  0.00  0.00    -0.338 NA
ATOM     23  N   UNL     1      34.174 -14.768 -19.959  0.00  0.00    -0.170 NA
ATOM     24  C   UNL     1      33.994 -15.846 -20.767  0.00  0.00    +0.145 C 
ATOM     25  C   UNL     1      33.161 -14.570 -22.485  0.00  0.00    +0.147 C 
ATOM     26  C   UNL     1      33.303 -13.412 -21.748  0.00  0.00    +0.055 C 
ATOM     27  C   UNL     1      33.820 -13.573 -20.478  0.00  0.00    +0.114 C 
ATOM     28  H   UNL     1      34.711 -17.135 -19.353  0.00  0.00    +0.160 HD
BRANCH  25  30
ATOM     29  N   UNL     1      31.780 -15.745 -25.742  0.00  0.00    -0.242 NA
ATOM     30  C   UNL     1      32.631 -14.538 -23.828  0.00  0.00    +0.050 C 
ATOM     31  C   UNL     1      32.458 -13.333 -24.502  0.00  0.00    +0.006 C 
ATOM     32  C   UNL     1      32.279 -15.705 -24.487  0.00  0.00    +0.101 C 
ATOM     33  C   UNL     1      31.947 -13.334 -25.795  0.00  0.00    +0.021 C 
ATOM     34  C   UNL     1      31.626 -14.555 -26.365  0.00  0.00    +0.099 C 
ENDBRANCH  25  30
ENDBRANCH  20  21
ENDBRANCH   1  20
TORSDOF 6
ENDMDL
MODEL 9
REMARK VINA RESULT:     -10.4      4.895     13.416
REMARK  Name = 9865515
REMARK  6 active torsions:
REMARK  status: ('A' for Active; 'I' for Inactive)
REMARK    1  A    between atoms: C_1  and  C_20
REMARK    2  A    between atoms: C_2  and  C_9
REMARK    3  A    between atoms: N_8  and  C_11
REMARK    4  A    between atoms: C_12  and  N_17
REMARK    5  A    between atoms: C_20  and  N_21
REMARK    6  A    between atoms: C_25  and  C_30
REMARK                            x       y       z     vdW  Elec       q    Type
REMARK                         _______ _______ _______ _____ _____    ______ ____
ROOT
ATOM      1  C   UNL     1      33.164 -13.760 -22.285  0.00  0.00    -0.002 C 
ATOM      2  C   UNL     1      34.057 -16.315 -21.611  0.00  0.00    +0.054 C 
ATOM      3  C   UNL     1      33.443 -14.689 -23.288  0.00  0.00    -0.002 C 
ATOM      4  C   UNL     1      33.332 -14.109 -20.946  0.00  0.00    -0.002 C 
ATOM      5  C   UNL     1      33.890 -15.966 -22.951  0.00  0.00    +0.004 C 
ATOM      6  C   UNL     1      33.779 -15.386 -20.608  0.00  0.00    +0.004 C 
ENDROOT
BRANCH   2   9
ATOM      7  O   UNL     1      35.562 -18.081 -21.789  0.00  0.00    -0.270 OA
ATOM      8  N   UNL     1      33.759 -18.334 -20.308  0.00  0.00    -0.279 N 
ATOM      9  C   UNL     1      34.526 -17.647 -21.259  0.00  0.00    +0.250 C 
ATOM     10  H   UNL     1      32.962 -17.860 -19.978  0.00  0.00    +0.155 HD
BRANCH   8  11
ATOM     11  C   UNL     1      33.983 -19.621 -19.760  0.00  0.00    +0.064 C 
ATOM     12  C   UNL     1      32.915 -20.462 -19.493  0.00  0.00    +0.055 C 
ATOM     13  C   UNL     1      35.288 -20.008 -19.500  0.00  0.00    +0.016 C 
ATOM     14  C   UNL     1      33.159 -21.725 -18.952  0.00  0.00    +0.015 C 
ATOM     15  C   UNL     1      35.532 -21.270 -18.960  0.00  0.00    +0.001 C 
ATOM     16  C   UNL     1      34.467 -22.129 -18.686  0.00  0.00    +0.001 C 
BRANCH  12  17
ATOM     17  N   UNL     1      31.583 -20.075 -19.756  0.00  0.00    -0.356 N 
ATOM     18  H   UNL     1      31.400 -19.239 -20.243  0.00  0.00    +0.142 HD
ATOM     19  H   UNL     1      30.836 -20.641 -19.453  0.00  0.00    +0.142 HD
ENDBRANCH  12  17
ENDBRANCH   8  11
ENDBRANCH   2   9
BRANCH   1  20
ATOM     20  C   UNL     1      32.684 -12.394 -22.645  0.00  0.00    +0.124 C 
BRANCH  20  21
ATOM     21  N   UNL     1      33.580 -11.764 -23.591  0.00  0.00    -0.264 N 
ATOM     22  N   UNL     1      32.844  -9.610 -23.022  0.00  0.00    -0.338 NA
ATOM     23  N   UNL     1      34.544  -9.934 -24.698  0.00  0.00    -0.170 NA
ATOM     24  C   UNL     1      33.658 -10.394 -23.776  0.00  0.00    +0.145 C 
ATOM     25  C   UNL     1      32.946  -8.281 -23.227  0.00  0.00    +0.147 C 
ATOM     26  C   UNL     1      33.812  -7.710 -24.138  0.00  0.00    +0.055 C 
ATOM     27  C   UNL     1      34.595  -8.594 -24.853  0.00  0.00    +0.114 C 
ATOM     28  H   UNL     1      34.166 -12.341 -24.132  0.00  0.00    +0.160 HD
BRANCH  25  30
ATOM     29  N   UNL     1      31.801  -5.972 -20.536  0.00  0.00    -0.242 NA
ATOM     30  C   UNL     1      32.073  -7.465 -22.417  0.00  0.00    +0.050 C 
ATOM     31  C   UNL     1      30.714  -7.371 -22.697  0.00  0.00    +0.006 C 
ATOM     32  C   UNL     1      32.562  -6.751 -21.334  0.00  0.00    +0.101 C 
ATOM     33  C   UNL     1      29.898  -6.578 -21.898  0.00  0.00    +0.021 C 
ATOM     34  C   UNL     1      30.485  -5.905 -20.839  0.00  0.00    +0.099 C 
ENDBRANCH  25  30
ENDBRANCH  20  21
ENDBRANCH   1  20
TORSDOF 6
ENDMDL
