MODEL 1
REMARK VINA RESULT:     -12.5      0.000      0.000
REMARK  Name = 25101874
REMARK  5 active torsions:
REMARK  status: ('A' for Active; 'I' for Inactive)
REMARK    1  A    between atoms: N_1  and  C_22
REMARK    2  A    between atoms: C_2  and  N_8
REMARK    3  A    between atoms: N_8  and  C_11
REMARK    4  A    between atoms: C_11  and  C_14
REMARK    5  A    between atoms: C_22  and  C_28
REMARK                            x       y       z     vdW  Elec       q    Type
REMARK                         _______ _______ _______ _____ _____    ______ ____
ROOT
ATOM      1  N   UNL     1      33.360 -22.243 -18.359  0.00  0.00    +0.388 N 
ATOM      2  C   UNL     1      33.952 -19.749 -19.770  0.00  0.00    -0.066 C 
ATOM      3  C   UNL     1      34.703 -21.651 -18.293  0.00  0.00    -0.079 C 
ATOM      4  C   UNL     1      32.328 -21.206 -18.503  0.00  0.00    -0.079 C 
ATOM      5  C   UNL     1      35.010 -20.833 -19.550  0.00  0.00    -0.044 C 
ATOM      6  C   UNL     1      32.554 -20.375 -19.768  0.00  0.00    -0.044 C 
ATOM      7  H   UNL     1      33.322 -22.841 -19.184  0.00  0.00    -0.080 HD
ENDROOT
BRANCH   2   8
ATOM      8  N   UNL     1      34.206 -19.042 -21.024  0.00  0.00    +0.389 N 
ATOM      9  H   UNL     1      33.365 -19.071 -21.601  0.00  0.00    -0.084 HD
ATOM     10  H   UNL     1      34.982 -19.499 -21.504  0.00  0.00    -0.084 HD
BRANCH   8  11
ATOM     11  C   UNL     1      34.565 -17.655 -20.772  0.00  0.00    -0.034 C 
BRANCH  11  14
ATOM     12  O   UNL     1      33.103 -14.478 -25.138  0.00  0.00    -0.474 OA
ATOM     13  N   UNL     1      34.130 -17.321 -23.141  0.00  0.00    -0.247 NA
ATOM     14  C   UNL     1      34.170 -16.756 -21.914  0.00  0.00    +0.037 C 
ATOM     15  C   UNL     1      33.875 -15.426 -21.660  0.00  0.00    +0.011 C 
ATOM     16  C   UNL     1      33.517 -14.611 -22.736  0.00  0.00    +0.015 C 
ATOM     17  C   UNL     1      33.189 -13.163 -22.513  0.00  0.00    +0.033 C 
ATOM     18  C   UNL     1      33.444 -15.173 -24.012  0.00  0.00    +0.154 C 
ATOM     19  C   UNL     1      33.223 -12.406 -23.834  0.00  0.00    +0.052 C 
ATOM     20  C   UNL     1      33.769 -16.513 -24.162  0.00  0.00    +0.135 C 
ATOM     21  C   UNL     1      32.484 -13.210 -24.893  0.00  0.00    +0.206 C 
ENDBRANCH  11  14
ENDBRANCH   8  11
ENDBRANCH   2   8
BRANCH   1  22
ATOM     22  C   UNL     1      33.102 -23.061 -17.174  0.00  0.00    -0.055 C 
BRANCH  22  28
ATOM     23  O   UNL     1      30.355 -22.513 -15.258  0.00  0.00    -0.273 OA
ATOM     24  O   UNL     1      37.030 -23.288 -13.600  0.00  0.00    -0.270 OA
ATOM     25  N   UNL     1      32.613 -22.827 -14.752  0.00  0.00    -0.261 N 
ATOM     26  N   UNL     1      34.787 -23.077 -14.159  0.00  0.00    -0.255 N 
ATOM     27  N   UNL     1      31.765 -24.016 -12.357  0.00  0.00    -0.262 NA
ATOM     28  C   UNL     1      33.360 -22.270 -15.897  0.00  0.00    +0.076 C 
ATOM     29  C   UNL     1      34.843 -22.370 -15.446  0.00  0.00    +0.113 C 
ATOM     30  C   UNL     1      33.485 -23.281 -13.817  0.00  0.00    +0.196 C 
ATOM     31  C   UNL     1      33.087 -23.849 -12.682  0.00  0.00    +0.092 C 
ATOM     32  C   UNL     1      31.261 -22.902 -14.538  0.00  0.00    +0.252 C 
ATOM     33  C   UNL     1      35.840 -23.457 -13.349  0.00  0.00    +0.251 C 
ATOM     34  C   UNL     1      34.117 -24.293 -11.769  0.00  0.00    +0.022 C 
ATOM     35  C   UNL     1      30.900 -23.571 -13.222  0.00  0.00    +0.210 C 
ATOM     36  C   UNL     1      35.419 -24.123 -12.062  0.00  0.00    +0.059 C 
ENDBRANCH  22  28
ENDBRANCH   1  22
TORSDOF 5
ENDMDL
MODEL 2
REMARK VINA RESULT:     -12.4      0.877      1.292
REMARK  Name = 25101874
REMARK  5 active torsions:
REMARK  status: ('A' for Active; 'I' for Inactive)
REMARK    1  A    between atoms: N_1  and  C_22
REMARK    2  A    between atoms: C_2  and  N_8
REMARK    3  A    between atoms: N_8  and  C_11
REMARK    4  A    between atoms: C_11  and  C_14
REMARK    5  A    between atoms: C_22  and  C_28
REMARK                            x       y       z     vdW  Elec       q    Type
REMARK                         _______ _______ _______ _____ _____    ______ ____
ROOT
ATOM      1  N   UNL     1      33.301 -22.294 -18.356  0.00  0.00    +0.388 N 
ATOM      2  C   UNL     1      33.552 -19.752 -19.783  0.00  0.00    -0.066 C 
ATOM      3  C   UNL     1      34.600 -21.613 -18.442  0.00  0.00    -0.079 C 
ATOM      4  C   UNL     1      32.193 -21.328 -18.356  0.00  0.00    -0.079 C 
ATOM      5  C   UNL     1      34.698 -20.765 -19.712  0.00  0.00    -0.044 C 
ATOM      6  C   UNL     1      32.209 -20.470 -19.624  0.00  0.00    -0.044 C 
ATOM      7  H   UNL     1      33.202 -22.885 -19.181  0.00  0.00    -0.080 HD
ENDROOT
BRANCH   2   8
ATOM      8  N   UNL     1      33.605 -19.017 -21.045  0.00  0.00    +0.389 N 
ATOM      9  H   UNL     1      32.717 -18.536 -21.189  0.00  0.00    -0.084 HD
ATOM     10  H   UNL     1      33.778 -19.679 -21.802  0.00  0.00    -0.084 HD
BRANCH   8  11
ATOM     11  C   UNL     1      34.681 -18.038 -21.028  0.00  0.00    -0.034 C 
BRANCH  11  14
ATOM     12  O   UNL     1      32.928 -12.903 -22.389  0.00  0.00    -0.474 OA
ATOM     13  N   UNL     1      34.028 -15.765 -20.460  0.00  0.00    -0.247 NA
ATOM     14  C   UNL     1      34.204 -16.672 -21.446  0.00  0.00    +0.037 C 
ATOM     15  C   UNL     1      33.972 -16.416 -22.789  0.00  0.00    +0.011 C 
ATOM     16  C   UNL     1      33.524 -15.144 -23.151  0.00  0.00    +0.015 C 
ATOM     17  C   UNL     1      33.257 -14.817 -24.592  0.00  0.00    +0.033 C 
ATOM     18  C   UNL     1      33.357 -14.179 -22.156  0.00  0.00    +0.154 C 
ATOM     19  C   UNL     1      32.420 -13.549 -24.698  0.00  0.00    +0.052 C 
ATOM     20  C   UNL     1      33.606 -14.539 -20.840  0.00  0.00    +0.135 C 
ATOM     21  C   UNL     1      32.986 -12.493 -23.760  0.00  0.00    +0.206 C 
ENDBRANCH  11  14
ENDBRANCH   8  11
ENDBRANCH   2   8
BRANCH   1  22
ATOM     22  C   UNL     1      33.244 -23.140 -17.164  0.00  0.00    -0.055 C 
BRANCH  22  28
ATOM     23  O   UNL     1      30.431 -22.564 -15.354  0.00  0.00    -0.273 OA
ATOM     24  O   UNL     1      37.052 -23.254 -13.458  0.00  0.00    -0.270 OA
ATOM     25  N   UNL     1      32.673 -22.850 -14.766  0.00  0.00    -0.261 N 
ATOM     26  N   UNL     1      34.828 -23.071 -14.096  0.00  0.00    -0.255 N 
ATOM     27  N   UNL     1      31.753 -23.986 -12.372  0.00  0.00    -0.262 NA
ATOM     28  C   UNL     1      33.455 -22.316 -15.899  0.00  0.00    +0.076 C 
ATOM     29  C   UNL     1      34.922 -22.395 -15.397  0.00  0.00    +0.113 C 
ATOM     30  C   UNL     1      33.516 -23.276 -13.792  0.00  0.00    +0.196 C 
ATOM     31  C   UNL     1      33.084 -23.819 -12.657  0.00  0.00    +0.092 C 
ATOM     32  C   UNL     1      31.315 -22.929 -14.595  0.00  0.00    +0.252 C 
ATOM     33  C   UNL     1      35.855 -23.424 -13.242  0.00  0.00    +0.251 C 
ATOM     34  C   UNL     1      34.085 -24.233 -11.700  0.00  0.00    +0.022 C 
ATOM     35  C   UNL     1      30.915 -23.568 -13.275  0.00  0.00    +0.210 C 
ATOM     36  C   UNL     1      35.396 -24.061 -11.954  0.00  0.00    +0.059 C 
ENDBRANCH  22  28
ENDBRANCH   1  22
TORSDOF 5
ENDMDL
MODEL 3
REMARK VINA RESULT:     -12.3      2.000     11.141
REMARK  Name = 25101874
REMARK  5 active torsions:
REMARK  status: ('A' for Active; 'I' for Inactive)
REMARK    1  A    between atoms: N_1  and  C_22
REMARK    2  A    between atoms: C_2  and  N_8
REMARK    3  A    between atoms: N_8  and  C_11
REMARK    4  A    between atoms: C_11  and  C_14
REMARK    5  A    between atoms: C_22  and  C_28
REMARK                            x       y       z     vdW  Elec       q    Type
REMARK                         _______ _______ _______ _____ _____    ______ ____
ROOT
ATOM      1  N   UNL     1      35.002 -18.757 -21.669  0.00  0.00    +0.388 N 
ATOM      2  C   UNL     1      34.629 -20.259 -19.186  0.00  0.00    -0.066 C 
ATOM      3  C   UNL     1      33.650 -19.049 -21.171  0.00  0.00    -0.079 C 
ATOM      4  C   UNL     1      35.957 -18.613 -20.562  0.00  0.00    -0.079 C 
ATOM      5  C   UNL     1      33.632 -20.338 -20.344  0.00  0.00    -0.044 C 
ATOM      6  C   UNL     1      36.017 -19.887 -19.715  0.00  0.00    -0.044 C 
ATOM      7  H   UNL     1      35.301 -19.545 -22.242  0.00  0.00    -0.080 HD
ENDROOT
BRANCH   2   8
ATOM      8  N   UNL     1      34.669 -21.530 -18.466  0.00  0.00    +0.389 N 
ATOM      9  H   UNL     1      34.969 -21.362 -17.506  0.00  0.00    -0.084 HD
ATOM     10  H   UNL     1      35.324 -22.153 -18.939  0.00  0.00    -0.084 HD
BRANCH   8  11
ATOM     11  C   UNL     1      33.356 -22.158 -18.452  0.00  0.00    -0.034 C 
BRANCH  11  14
ATOM     12  O   UNL     1      31.901 -23.444 -13.207  0.00  0.00    -0.474 OA
ATOM     13  N   UNL     1      33.885 -22.817 -16.172  0.00  0.00    -0.247 NA
ATOM     14  C   UNL     1      32.912 -22.500 -17.055  0.00  0.00    +0.037 C 
ATOM     15  C   UNL     1      31.561 -22.477 -16.748  0.00  0.00    +0.011 C 
ATOM     16  C   UNL     1      31.172 -22.805 -15.447  0.00  0.00    +0.015 C 
ATOM     17  C   UNL     1      29.721 -22.795 -15.065  0.00  0.00    +0.033 C 
ATOM     18  C   UNL     1      32.158 -23.112 -14.507  0.00  0.00    +0.154 C 
ATOM     19  C   UNL     1      29.515 -23.551 -13.759  0.00  0.00    +0.052 C 
ATOM     20  C   UNL     1      33.483 -23.118 -14.918  0.00  0.00    +0.135 C 
ATOM     21  C   UNL     1      30.579 -23.124 -12.758  0.00  0.00    +0.206 C 
ENDBRANCH  11  14
ENDBRANCH   8  11
ENDBRANCH   2   8
BRANCH   1  22
ATOM     22  C   UNL     1      34.992 -17.552 -22.498  0.00  0.00    -0.055 C 
BRANCH  22  28
ATOM     23  O   UNL     1      34.024 -15.989 -19.645  0.00  0.00    -0.273 OA
ATOM     24  O   UNL     1      32.472 -14.803 -26.285  0.00  0.00    -0.270 OA
ATOM     25  N   UNL     1      33.570 -15.606 -21.904  0.00  0.00    -0.261 N 
ATOM     26  N   UNL     1      33.034 -15.177 -24.065  0.00  0.00    -0.255 N 
ATOM     27  N   UNL     1      33.393 -12.882 -21.261  0.00  0.00    -0.262 NA
ATOM     28  C   UNL     1      33.600 -16.934 -22.548  0.00  0.00    +0.076 C 
ATOM     29  C   UNL     1      33.151 -16.641 -24.005  0.00  0.00    +0.113 C 
ATOM     30  C   UNL     1      33.263 -14.659 -22.826  0.00  0.00    +0.196 C 
ATOM     31  C   UNL     1      33.182 -13.366 -22.526  0.00  0.00    +0.092 C 
ATOM     32  C   UNL     1      33.773 -15.261 -20.593  0.00  0.00    +0.252 C 
ATOM     33  C   UNL     1      32.699 -14.391 -25.151  0.00  0.00    +0.251 C 
ATOM     34  C   UNL     1      32.847 -12.458 -23.600  0.00  0.00    +0.022 C 
ATOM     35  C   UNL     1      33.668 -13.765 -20.345  0.00  0.00    +0.210 C 
ATOM     36  C   UNL     1      32.619 -12.917 -24.845  0.00  0.00    +0.059 C 
ENDBRANCH  22  28
ENDBRANCH   1  22
TORSDOF 5
ENDMDL
MODEL 4
REMARK VINA RESULT:     -12.3      3.711     12.298
REMARK  Name = 25101874
REMARK  5 active torsions:
REMARK  status: ('A' for Active; 'I' for Inactive)
REMARK    1  A    between atoms: N_1  and  C_22
REMARK    2  A    between atoms: C_2  and  N_8
REMARK    3  A    between atoms: N_8  and  C_11
REMARK    4  A    between atoms: C_11  and  C_14
REMARK    5  A    between atoms: C_22  and  C_28
REMARK                            x       y       z     vdW  Elec       q    Type
REMARK                         _______ _______ _______ _____ _____    ______ ____
ROOT
ATOM      1  N   UNL     1      32.681 -14.335 -23.565  0.00  0.00    +0.388 N 
ATOM      2  C   UNL     1      33.881 -17.003 -23.491  0.00  0.00    -0.066 C 
ATOM      3  C   UNL     1      33.907 -14.579 -22.793  0.00  0.00    -0.079 C 
ATOM      4  C   UNL     1      32.607 -15.217 -24.739  0.00  0.00    -0.079 C 
ATOM      5  C   UNL     1      33.979 -16.031 -22.313  0.00  0.00    -0.044 C 
ATOM      6  C   UNL     1      32.635 -16.690 -24.324  0.00  0.00    -0.044 C 
ATOM      7  H   UNL     1      31.885 -14.546 -22.964  0.00  0.00    -0.080 HD
ENDROOT
BRANCH   2   8
ATOM      8  N   UNL     1      33.854 -18.382 -23.008  0.00  0.00    +0.389 N 
ATOM      9  H   UNL     1      34.243 -18.995 -23.725  0.00  0.00    -0.084 HD
ATOM     10  H   UNL     1      32.888 -18.638 -22.807  0.00  0.00    -0.084 HD
BRANCH   8  11
ATOM     11  C   UNL     1      34.636 -18.518 -21.789  0.00  0.00    -0.034 C 
BRANCH  11  14
ATOM     12  O   UNL     1      31.891 -21.707 -18.103  0.00  0.00    -0.474 OA
ATOM     13  N   UNL     1      32.595 -19.415 -20.819  0.00  0.00    -0.247 NA
ATOM     14  C   UNL     1      33.945 -19.388 -20.773  0.00  0.00    +0.037 C 
ATOM     15  C   UNL     1      34.706 -20.100 -19.859  0.00  0.00    +0.011 C 
ATOM     16  C   UNL     1      34.043 -20.896 -18.923  0.00  0.00    +0.015 C 
ATOM     17  C   UNL     1      34.822 -21.686 -17.912  0.00  0.00    +0.033 C 
ATOM     18  C   UNL     1      32.649 -20.963 -18.963  0.00  0.00    +0.154 C 
ATOM     19  C   UNL     1      33.909 -22.139 -16.781  0.00  0.00    +0.052 C 
ATOM     20  C   UNL     1      31.978 -20.203 -19.910  0.00  0.00    +0.135 C 
ATOM     21  C   UNL     1      32.621 -22.696 -17.367  0.00  0.00    +0.206 C 
ENDBRANCH  11  14
ENDBRANCH   8  11
ENDBRANCH   2   8
BRANCH   1  22
ATOM     22  C   UNL     1      32.603 -12.933 -23.973  0.00  0.00    -0.055 C 
BRANCH  22  28
ATOM     23  O   UNL     1      34.642 -10.410 -24.973  0.00  0.00    -0.273 OA
ATOM     24  O   UNL     1      30.071 -10.840 -19.794  0.00  0.00    -0.270 OA
ATOM     25  N   UNL     1      33.055 -10.595 -23.270  0.00  0.00    -0.261 N 
ATOM     26  N   UNL     1      31.567 -10.687 -21.562  0.00  0.00    -0.255 N 
ATOM     27  N   UNL     1      32.566  -7.856 -23.622  0.00  0.00    -0.262 NA
ATOM     28  C   UNL     1      33.077 -12.011 -22.855  0.00  0.00    +0.076 C 
ATOM     29  C   UNL     1      32.120 -12.047 -21.633  0.00  0.00    +0.113 C 
ATOM     30  C   UNL     1      32.164  -9.911 -22.508  0.00  0.00    +0.196 C 
ATOM     31  C   UNL     1      31.927  -8.613 -22.675  0.00  0.00    +0.092 C 
ATOM     32  C   UNL     1      33.787  -9.950 -24.234  0.00  0.00    +0.252 C 
ATOM     33  C   UNL     1      30.632 -10.192 -20.673  0.00  0.00    +0.251 C 
ATOM     34  C   UNL     1      30.953  -8.002 -21.798  0.00  0.00    +0.022 C 
ATOM     35  C   UNL     1      33.444  -8.474 -24.357  0.00  0.00    +0.210 C 
ATOM     36  C   UNL     1      30.327  -8.725 -20.851  0.00  0.00    +0.059 C 
ENDBRANCH  22  28
ENDBRANCH   1  22
TORSDOF 5
ENDMDL
MODEL 5
REMARK VINA RESULT:     -12.2      1.265      3.089
REMARK  Name = 25101874
REMARK  5 active torsions:
REMARK  status: ('A' for Active; 'I' for Inactive)
REMARK    1  A    between atoms: N_1  and  C_22
REMARK    2  A    between atoms: C_2  and  N_8
REMARK    3  A    between atoms: N_8  and  C_11
REMARK    4  A    between atoms: C_11  and  C_14
REMARK    5  A    between atoms: C_22  and  C_28
REMARK                            x       y       z     vdW  Elec       q    Type
REMARK                         _______ _______ _______ _____ _____    ______ ____
ROOT
ATOM      1  N   UNL     1      33.964 -21.608 -18.243  0.00  0.00    +0.388 N 
ATOM      2  C   UNL     1      33.649 -19.565 -20.314  0.00  0.00    -0.066 C 
ATOM      3  C   UNL     1      35.105 -20.774 -18.646  0.00  0.00    -0.079 C 
ATOM      4  C   UNL     1      32.696 -20.878 -18.381  0.00  0.00    -0.079 C 
ATOM      5  C   UNL     1      34.967 -20.313 -20.099  0.00  0.00    -0.044 C 
ATOM      6  C   UNL     1      32.477 -20.421 -19.826  0.00  0.00    -0.044 C 
ATOM      7  H   UNL     1      33.931 -22.415 -18.865  0.00  0.00    -0.080 HD
ENDROOT
BRANCH   2   8
ATOM      8  N   UNL     1      33.490 -19.217 -21.724  0.00  0.00    +0.389 N 
ATOM      9  H   UNL     1      32.611 -18.714 -21.847  0.00  0.00    -0.084 HD
ATOM     10  H   UNL     1      33.487 -20.077 -22.274  0.00  0.00    -0.084 HD
BRANCH   8  11
ATOM     11  C   UNL     1      34.589 -18.378 -22.177  0.00  0.00    -0.034 C 
BRANCH  11  14
ATOM     12  O   UNL     1      33.077 -13.007 -22.580  0.00  0.00    -0.474 OA
ATOM     13  N   UNL     1      34.195 -16.176 -21.224  0.00  0.00    -0.247 NA
ATOM     14  C   UNL     1      34.169 -16.941 -22.338  0.00  0.00    +0.037 C 
ATOM     15  C   UNL     1      33.783 -16.482 -23.588  0.00  0.00    +0.011 C 
ATOM     16  C   UNL     1      33.391 -15.148 -23.711  0.00  0.00    +0.015 C 
ATOM     17  C   UNL     1      32.964 -14.604 -25.043  0.00  0.00    +0.033 C 
ATOM     18  C   UNL     1      33.432 -14.327 -22.582  0.00  0.00    +0.154 C 
ATOM     19  C   UNL     1      32.221 -13.286 -24.860  0.00  0.00    +0.052 C 
ATOM     20  C   UNL     1      33.823 -14.885 -21.374  0.00  0.00    +0.135 C 
ATOM     21  C   UNL     1      32.986 -12.410 -23.879  0.00  0.00    +0.206 C 
ENDBRANCH  11  14
ENDBRANCH   8  11
ENDBRANCH   2   8
BRANCH   1  22
ATOM     22  C   UNL     1      34.136 -22.081 -16.870  0.00  0.00    -0.055 C 
BRANCH  22  28
ATOM     23  O   UNL     1      35.281 -24.314 -14.584  0.00  0.00    -0.273 OA
ATOM     24  O   UNL     1      28.872 -22.216 -16.143  0.00  0.00    -0.270 OA
ATOM     25  N   UNL     1      33.145 -23.537 -15.120  0.00  0.00    -0.261 N 
ATOM     26  N   UNL     1      31.027 -22.879 -15.593  0.00  0.00    -0.255 N 
ATOM     27  N   UNL     1      32.482 -23.921 -12.422  0.00  0.00    -0.262 NA
ATOM     28  C   UNL     1      33.182 -23.230 -16.564  0.00  0.00    +0.076 C 
ATOM     29  C   UNL     1      31.710 -22.861 -16.895  0.00  0.00    +0.113 C 
ATOM     30  C   UNL     1      31.900 -23.297 -14.636  0.00  0.00    +0.196 C 
ATOM     31  C   UNL     1      31.584 -23.474 -13.356  0.00  0.00    +0.092 C 
ATOM     32  C   UNL     1      34.131 -24.020 -14.299  0.00  0.00    +0.252 C 
ATOM     33  C   UNL     1      29.705 -22.585 -15.320  0.00  0.00    +0.251 C 
ATOM     34  C   UNL     1      30.222 -23.181 -12.966  0.00  0.00    +0.022 C 
ATOM     35  C   UNL     1      33.681 -24.184 -12.857  0.00  0.00    +0.210 C 
ATOM     36  C   UNL     1      29.321 -22.758 -13.872  0.00  0.00    +0.059 C 
ENDBRANCH  22  28
ENDBRANCH   1  22
TORSDOF 5
ENDMDL
MODEL 6
REMARK VINA RESULT:     -12.1      1.273      1.873
REMARK  Name = 25101874
REMARK  5 active torsions:
REMARK  status: ('A' for Active; 'I' for Inactive)
REMARK    1  A    between atoms: N_1  and  C_22
REMARK    2  A    between atoms: C_2  and  N_8
REMARK    3  A    between atoms: N_8  and  C_11
REMARK    4  A    between atoms: C_11  and  C_14
REMARK    5  A    between atoms: C_22  and  C_28
REMARK                            x       y       z     vdW  Elec       q    Type
REMARK                         _______ _______ _______ _____ _____    ______ ____
ROOT
ATOM      1  N   UNL     1      33.935 -21.369 -17.866  0.00  0.00    +0.388 N 
ATOM      2  C   UNL     1      33.858 -20.142 -20.522  0.00  0.00    -0.066 C 
ATOM      3  C   UNL     1      32.714 -21.433 -18.681  0.00  0.00    -0.079 C 
ATOM      4  C   UNL     1      35.138 -21.347 -18.711  0.00  0.00    -0.079 C 
ATOM      5  C   UNL     1      32.618 -20.234 -19.629  0.00  0.00    -0.044 C 
ATOM      6  C   UNL     1      35.123 -20.146 -19.660  0.00  0.00    -0.044 C 
ATOM      7  H   UNL     1      33.911 -20.501 -17.333  0.00  0.00    -0.080 HD
ENDROOT
BRANCH   2   8
ATOM      8  N   UNL     1      33.794 -18.941 -21.351  0.00  0.00    +0.389 N 
ATOM      9  H   UNL     1      32.822 -18.647 -21.441  0.00  0.00    -0.084 HD
ATOM     10  H   UNL     1      34.186 -19.157 -22.269  0.00  0.00    -0.084 HD
BRANCH   8  11
ATOM     11  C   UNL     1      34.567 -17.861 -20.757  0.00  0.00    -0.034 C 
BRANCH  11  14
ATOM     12  O   UNL     1      32.914 -12.776 -22.403  0.00  0.00    -0.474 OA
ATOM     13  N   UNL     1      33.941 -15.553 -20.315  0.00  0.00    -0.247 NA
ATOM     14  C   UNL     1      34.117 -16.511 -21.251  0.00  0.00    +0.037 C 
ATOM     15  C   UNL     1      33.909 -16.320 -22.608  0.00  0.00    +0.011 C 
ATOM     16  C   UNL     1      33.486 -15.062 -23.042  0.00  0.00    +0.015 C 
ATOM     17  C   UNL     1      33.245 -14.805 -24.501  0.00  0.00    +0.033 C 
ATOM     18  C   UNL     1      33.320 -14.045 -22.099  0.00  0.00    +0.154 C 
ATOM     19  C   UNL     1      32.430 -13.532 -24.684  0.00  0.00    +0.052 C 
ATOM     20  C   UNL     1      33.544 -14.341 -20.763  0.00  0.00    +0.135 C 
ATOM     21  C   UNL     1      32.999 -12.438 -23.793  0.00  0.00    +0.206 C 
ENDBRANCH  11  14
ENDBRANCH   8  11
ENDBRANCH   2   8
BRANCH   1  22
ATOM     22  C   UNL     1      33.986 -22.493 -16.932  0.00  0.00    -0.055 C 
BRANCH  22  28
ATOM     23  O   UNL     1      31.628 -22.218 -14.506  0.00  0.00    -0.273 OA
ATOM     24  O   UNL     1      38.348 -23.852 -14.215  0.00  0.00    -0.270 OA
ATOM     25  N   UNL     1      33.888 -22.807 -14.471  0.00  0.00    -0.261 N 
ATOM     26  N   UNL     1      36.085 -23.350 -14.325  0.00  0.00    -0.255 N 
ATOM     27  N   UNL     1      33.276 -24.468 -12.295  0.00  0.00    -0.262 NA
ATOM     28  C   UNL     1      34.515 -22.050 -15.572  0.00  0.00    +0.076 C 
ATOM     29  C   UNL     1      36.028 -22.362 -15.412  0.00  0.00    +0.113 C 
ATOM     30  C   UNL     1      34.832 -23.534 -13.823  0.00  0.00    +0.196 C 
ATOM     31  C   UNL     1      34.545 -24.326 -12.793  0.00  0.00    +0.092 C 
ATOM     32  C   UNL     1      32.582 -22.832 -14.055  0.00  0.00    +0.252 C 
ATOM     33  C   UNL     1      37.197 -23.988 -13.810  0.00  0.00    +0.251 C 
ATOM     34  C   UNL     1      35.643 -25.048 -12.189  0.00  0.00    +0.022 C 
ATOM     35  C   UNL     1      32.347 -23.768 -12.880  0.00  0.00    +0.210 C 
ATOM     36  C   UNL     1      36.899 -24.908 -12.653  0.00  0.00    +0.059 C 
ENDBRANCH  22  28
ENDBRANCH   1  22
TORSDOF 5
ENDMDL
MODEL 7
REMARK VINA RESULT:     -11.7      3.946     12.680
REMARK  Name = 25101874
REMARK  5 active torsions:
REMARK  status: ('A' for Active; 'I' for Inactive)
REMARK    1  A    between atoms: N_1  and  C_22
REMARK    2  A    between atoms: C_2  and  N_8
REMARK    3  A    between atoms: N_8  and  C_11
REMARK    4  A    between atoms: C_11  and  C_14
REMARK    5  A    between atoms: C_22  and  C_28
REMARK                            x       y       z     vdW  Elec       q    Type
REMARK                         _______ _______ _______ _____ _____    ______ ____
ROOT
ATOM      1  N   UNL     1      33.383 -13.714 -23.792  0.00  0.00    +0.388 N 
ATOM      2  C   UNL     1      33.474 -16.499 -22.898  0.00  0.00    -0.066 C 
ATOM      3  C   UNL     1      32.664 -14.759 -24.535  0.00  0.00    -0.079 C 
ATOM      4  C   UNL     1      33.455 -14.033 -22.359  0.00  0.00    -0.079 C 
ATOM      5  C   UNL     1      33.346 -16.120 -24.375  0.00  0.00    -0.044 C 
ATOM      6  C   UNL     1      34.164 -15.370 -22.127  0.00  0.00    -0.044 C 
ATOM      7  H   UNL     1      34.335 -13.673 -24.153  0.00  0.00    -0.080 HD
ENDROOT
BRANCH   2   8
ATOM      8  N   UNL     1      34.212 -17.752 -22.759  0.00  0.00    +0.389 N 
ATOM      9  H   UNL     1      34.677 -17.966 -23.642  0.00  0.00    -0.084 HD
ATOM     10  H   UNL     1      33.554 -18.493 -22.516  0.00  0.00    -0.084 HD
BRANCH   8  11
ATOM     11  C   UNL     1      35.210 -17.651 -21.706  0.00  0.00    -0.034 C 
BRANCH  11  14
ATOM     12  O   UNL     1      34.892 -21.739 -17.901  0.00  0.00    -0.474 OA
ATOM     13  N   UNL     1      36.207 -19.165 -20.085  0.00  0.00    -0.247 NA
ATOM     14  C   UNL     1      35.072 -18.757 -20.693  0.00  0.00    +0.037 C 
ATOM     15  C   UNL     1      33.818 -19.292 -20.440  0.00  0.00    +0.011 C 
ATOM     16  C   UNL     1      33.715 -20.320 -19.501  0.00  0.00    +0.015 C 
ATOM     17  C   UNL     1      32.380 -20.933 -19.192  0.00  0.00    +0.033 C 
ATOM     18  C   UNL     1      34.868 -20.746 -18.839  0.00  0.00    +0.154 C 
ATOM     19  C   UNL     1      32.564 -22.260 -18.467  0.00  0.00    +0.052 C 
ATOM     20  C   UNL     1      36.078 -20.153 -19.172  0.00  0.00    +0.135 C 
ATOM     21  C   UNL     1      33.608 -22.093 -17.373  0.00  0.00    +0.206 C 
ENDBRANCH  11  14
ENDBRANCH   8  11
ENDBRANCH   2   8
BRANCH   1  22
ATOM     22  C   UNL     1      32.748 -12.413 -23.996  0.00  0.00    -0.055 C 
BRANCH  22  28
ATOM     23  O   UNL     1      34.965 -10.037 -24.976  0.00  0.00    -0.273 OA
ATOM     24  O   UNL     1      29.933  -9.941 -20.225  0.00  0.00    -0.270 OA
ATOM     25  N   UNL     1      33.225 -10.046 -23.419  0.00  0.00    -0.261 N 
ATOM     26  N   UNL     1      31.587  -9.965 -21.853  0.00  0.00    -0.255 N 
ATOM     27  N   UNL     1      32.878  -7.325 -24.003  0.00  0.00    -0.262 NA
ATOM     28  C   UNL     1      33.155 -11.429 -22.906  0.00  0.00    +0.076 C 
ATOM     29  C   UNL     1      32.090 -11.344 -21.778  0.00  0.00    +0.113 C 
ATOM     30  C   UNL     1      32.297  -9.280 -22.791  0.00  0.00    +0.196 C 
ATOM     31  C   UNL     1      32.127  -7.991 -23.069  0.00  0.00    +0.092 C 
ATOM     32  C   UNL     1      34.066  -9.497 -24.352  0.00  0.00    +0.252 C 
ATOM     33  C   UNL     1      30.596  -9.377 -21.091  0.00  0.00    +0.251 C 
ATOM     34  C   UNL     1      31.102  -7.286 -22.330  0.00  0.00    +0.022 C 
ATOM     35  C   UNL     1      33.794  -8.024 -24.608  0.00  0.00    +0.210 C 
ATOM     36  C   UNL     1      30.366  -7.918 -21.397  0.00  0.00    +0.059 C 
ENDBRANCH  22  28
ENDBRANCH   1  22
TORSDOF 5
ENDMDL
MODEL 8
REMARK VINA RESULT:     -11.6      3.746     12.033
REMARK  Name = 25101874
REMARK  5 active torsions:
REMARK  status: ('A' for Active; 'I' for Inactive)
REMARK    1  A    between atoms: N_1  and  C_22
REMARK    2  A    between atoms: C_2  and  N_8
REMARK    3  A    between atoms: N_8  and  C_11
REMARK    4  A    between atoms: C_11  and  C_14
REMARK    5  A    between atoms: C_22  and  C_28
REMARK                            x       y       z     vdW  Elec       q    Type
REMARK                         _______ _______ _______ _____ _____    ______ ____
ROOT
ATOM      1  N   UNL     1      33.409 -14.083 -22.238  0.00  0.00    +0.388 N 
ATOM      2  C   UNL     1      34.226 -16.893 -22.286  0.00  0.00    -0.066 C 
ATOM      3  C   UNL     1      34.095 -14.679 -21.083  0.00  0.00    -0.079 C 
ATOM      4  C   UNL     1      33.840 -14.711 -23.495  0.00  0.00    -0.079 C 
ATOM      5  C   UNL     1      33.820 -16.183 -20.992  0.00  0.00    -0.044 C 
ATOM      6  C   UNL     1      33.556 -16.216 -23.485  0.00  0.00    -0.044 C 
ATOM      7  H   UNL     1      32.410 -14.251 -22.129  0.00  0.00    -0.080 HD
ENDROOT
BRANCH   2   8
ATOM      8  N   UNL     1      33.869 -18.308 -22.219  0.00  0.00    +0.389 N 
ATOM      9  H   UNL     1      33.950 -18.718 -23.150  0.00  0.00    -0.084 HD
ATOM     10  H   UNL     1      32.910 -18.387 -21.878  0.00  0.00    -0.084 HD
BRANCH   8  11
ATOM     11  C   UNL     1      34.749 -19.020 -21.305  0.00  0.00    -0.034 C 
BRANCH  11  14
ATOM     12  O   UNL     1      31.706 -21.969 -17.654  0.00  0.00    -0.474 OA
ATOM     13  N   UNL     1      32.629 -19.790 -20.397  0.00  0.00    -0.247 NA
ATOM     14  C   UNL     1      33.976 -19.828 -20.296  0.00  0.00    +0.037 C 
ATOM     15  C   UNL     1      34.664 -20.551 -19.335  0.00  0.00    +0.011 C 
ATOM     16  C   UNL     1      33.926 -21.287 -18.406  0.00  0.00    +0.015 C 
ATOM     17  C   UNL     1      34.625 -22.087 -17.345  0.00  0.00    +0.033 C 
ATOM     18  C   UNL     1      32.533 -21.287 -18.501  0.00  0.00    +0.154 C 
ATOM     19  C   UNL     1      33.647 -22.464 -16.240  0.00  0.00    +0.052 C 
ATOM     20  C   UNL     1      31.939 -20.521 -19.493  0.00  0.00    +0.135 C 
ATOM     21  C   UNL     1      32.356 -22.973 -16.864  0.00  0.00    +0.206 C 
ENDBRANCH  11  14
ENDBRANCH   8  11
ENDBRANCH   2   8
BRANCH   1  22
ATOM     22  C   UNL     1      33.641 -12.640 -22.281  0.00  0.00    -0.055 C 
BRANCH  22  28
ATOM     23  O   UNL     1      30.963 -12.992 -20.226  0.00  0.00    -0.273 OA
ATOM     24  O   UNL     1      32.942  -7.788 -24.338  0.00  0.00    -0.270 OA
ATOM     25  N   UNL     1      31.702 -11.250 -21.594  0.00  0.00    -0.261 N 
ATOM     26  N   UNL     1      32.310  -9.518 -22.925  0.00  0.00    -0.255 N 
ATOM     27  N   UNL     1      30.560  -9.491 -19.732  0.00  0.00    -0.262 NA
ATOM     28  C   UNL     1      32.387 -11.898 -22.730  0.00  0.00    +0.076 C 
ATOM     29  C   UNL     1      32.726 -10.712 -23.674  0.00  0.00    +0.113 C 
ATOM     30  C   UNL     1      31.714  -9.904 -21.764  0.00  0.00    +0.196 C 
ATOM     31  C   UNL     1      31.177  -9.067 -20.881  0.00  0.00    +0.092 C 
ATOM     32  C   UNL     1      31.087 -11.810 -20.504  0.00  0.00    +0.252 C 
ATOM     33  C   UNL     1      32.425  -8.193 -23.300  0.00  0.00    +0.251 C 
ATOM     34  C   UNL     1      31.256  -7.653 -21.177  0.00  0.00    +0.022 C 
ATOM     35  C   UNL     1      30.510 -10.779 -19.548  0.00  0.00    +0.210 C 
ATOM     36  C   UNL     1      31.843  -7.218 -22.308  0.00  0.00    +0.059 C 
ENDBRANCH  22  28
ENDBRANCH   1  22
TORSDOF 5
ENDMDL
MODEL 9
REMARK VINA RESULT:     -11.6      1.910     11.391
REMARK  Name = 25101874
REMARK  5 active torsions:
REMARK  status: ('A' for Active; 'I' for Inactive)
REMARK    1  A    between atoms: N_1  and  C_22
REMARK    2  A    between atoms: C_2  and  N_8
REMARK    3  A    between atoms: N_8  and  C_11
REMARK    4  A    between atoms: C_11  and  C_14
REMARK    5  A    between atoms: C_22  and  C_28
REMARK                            x       y       z     vdW  Elec       q    Type
REMARK                         _______ _______ _______ _____ _____    ______ ____
ROOT
ATOM      1  N   UNL     1      35.060 -18.709 -21.668  0.00  0.00    +0.388 N 
ATOM      2  C   UNL     1      34.679 -20.251 -19.211  0.00  0.00    -0.066 C 
ATOM      3  C   UNL     1      33.707 -19.019 -21.186  0.00  0.00    -0.079 C 
ATOM      4  C   UNL     1      36.005 -18.573 -20.551  0.00  0.00    -0.079 C 
ATOM      5  C   UNL     1      33.693 -20.320 -20.379  0.00  0.00    -0.044 C 
ATOM      6  C   UNL     1      36.068 -19.859 -19.723  0.00  0.00    -0.044 C 
ATOM      7  H   UNL     1      35.372 -19.486 -22.250  0.00  0.00    -0.080 HD
ENDROOT
BRANCH   2   8
ATOM      8  N   UNL     1      34.723 -21.532 -18.510  0.00  0.00    +0.389 N 
ATOM      9  H   UNL     1      35.003 -22.262 -19.164  0.00  0.00    -0.084 HD
ATOM     10  H   UNL     1      33.796 -21.729 -18.131  0.00  0.00    -0.084 HD
BRANCH   8  11
ATOM     11  C   UNL     1      35.675 -21.487 -17.410  0.00  0.00    -0.034 C 
BRANCH  11  14
ATOM     12  O   UNL     1      33.419 -23.818 -12.853  0.00  0.00    -0.474 OA
ATOM     13  N   UNL     1      33.832 -22.527 -16.213  0.00  0.00    -0.247 NA
ATOM     14  C   UNL     1      35.114 -22.103 -16.156  0.00  0.00    +0.037 C 
ATOM     15  C   UNL     1      35.917 -22.203 -15.031  0.00  0.00    +0.011 C 
ATOM     16  C   UNL     1      35.372 -22.772 -13.878  0.00  0.00    +0.015 C 
ATOM     17  C   UNL     1      36.201 -22.901 -12.633  0.00  0.00    +0.033 C 
ATOM     18  C   UNL     1      34.058 -23.241 -13.914  0.00  0.00    +0.154 C 
ATOM     19  C   UNL     1      35.306 -23.167 -11.430  0.00  0.00    +0.052 C 
ATOM     20  C   UNL     1      33.334 -23.085 -15.087  0.00  0.00    +0.135 C 
ATOM     21  C   UNL     1      34.284 -24.236 -11.790  0.00  0.00    +0.206 C 
ENDBRANCH  11  14
ENDBRANCH   8  11
ENDBRANCH   2   8
BRANCH   1  22
ATOM     22  C   UNL     1      35.048 -17.492 -22.480  0.00  0.00    -0.055 C 
BRANCH  22  28
ATOM     23  O   UNL     1      34.000 -15.991 -19.622  0.00  0.00    -0.273 OA
ATOM     24  O   UNL     1      32.560 -14.719 -26.271  0.00  0.00    -0.270 OA
ATOM     25  N   UNL     1      33.585 -15.578 -21.882  0.00  0.00    -0.261 N 
ATOM     26  N   UNL     1      33.084 -15.121 -24.046  0.00  0.00    -0.255 N 
ATOM     27  N   UNL     1      33.352 -12.868 -21.198  0.00  0.00    -0.262 NA
ATOM     28  C   UNL     1      33.647 -16.894 -22.547  0.00  0.00    +0.076 C 
ATOM     29  C   UNL     1      33.222 -16.584 -24.008  0.00  0.00    +0.113 C 
ATOM     30  C   UNL     1      33.281 -14.621 -22.795  0.00  0.00    +0.196 C 
ATOM     31  C   UNL     1      33.173 -13.334 -22.475  0.00  0.00    +0.092 C 
ATOM     32  C   UNL     1      33.757 -15.251 -20.562  0.00  0.00    +0.252 C 
ATOM     33  C   UNL     1      32.758 -14.323 -25.126  0.00  0.00    +0.251 C 
ATOM     34  C   UNL     1      32.845 -12.414 -23.541  0.00  0.00    +0.022 C 
ATOM     35  C   UNL     1      33.623 -13.762 -20.292  0.00  0.00    +0.210 C 
ATOM     36  C   UNL     1      32.649 -12.855 -24.798  0.00  0.00    +0.059 C 
ENDBRANCH  22  28
ENDBRANCH   1  22
TORSDOF 5
ENDMDL
