MODEL 1
REMARK VINA RESULT:     -12.1      0.000      0.000
REMARK  Name = 446805
REMARK  6 active torsions:
REMARK  status: ('A' for Active; 'I' for Inactive)
REMARK    1  A    between atoms: C_4  and  C_22
REMARK    2  A    between atoms: C_7  and  N_11
REMARK    3  A    between atoms: N_11  and  S_13
REMARK    4  A    between atoms: S_13  and  C_16
REMARK    5  A    between atoms: C_22  and  C_23
REMARK    6  A    between atoms: C_28  and  C_31
REMARK                            x       y       z     vdW  Elec       q    Type
REMARK                         _______ _______ _______ _____ _____    ______ ____
ROOT
ATOM      1  N   UNL     1      32.873 -13.010 -24.539  0.00  0.00    -0.262 N 
ATOM      2  N   UNL     1      33.554 -12.219 -22.577  0.00  0.00    -0.394 NA
ATOM      3  C   UNL     1      33.167 -14.114 -23.782  0.00  0.00    +0.079 C 
ATOM      4  C   UNL     1      33.120 -11.903 -23.776  0.00  0.00    +0.168 C 
ATOM      5  C   UNL     1      33.589 -13.595 -22.562  0.00  0.00    +0.129 C 
ATOM      6  C   UNL     1      33.974 -14.477 -21.537  0.00  0.00    +0.103 C 
ATOM      7  C   UNL     1      33.917 -15.854 -21.786  0.00  0.00    +0.050 C 
ATOM      8  C   UNL     1      33.101 -15.482 -24.051  0.00  0.00    +0.018 C 
ATOM      9  C   UNL     1      32.389 -13.019 -25.901  0.00  0.00    +0.119 C 
ATOM     10  C   UNL     1      33.487 -16.346 -23.021  0.00  0.00    +0.013 C 
ENDROOT
BRANCH   7  11
ATOM     11  N   UNL     1      34.304 -16.769 -20.759  0.00  0.00    -0.219 N 
ATOM     12  H   UNL     1      34.107 -16.594 -19.810  0.00  0.00    +0.173 HD
BRANCH  11  13
ATOM     13  S   UNL     1      35.136 -18.207 -21.266  0.00  0.00    +0.073 S 
ATOM     14  O   UNL     1      36.524 -18.127 -20.855  0.00  0.00    -0.150 OA
ATOM     15  O   UNL     1      34.792 -18.494 -22.647  0.00  0.00    -0.150 OA
BRANCH  13  16
ATOM     16  C   UNL     1      34.352 -19.444 -20.275  0.00  0.00    +0.125 C 
ATOM     17  C   UNL     1      35.137 -20.312 -19.536  0.00  0.00    +0.020 C 
ATOM     18  C   UNL     1      32.971 -19.520 -20.258  0.00  0.00    +0.020 C 
ATOM     19  C   UNL     1      34.519 -21.288 -18.754  0.00  0.00    +0.001 C 
ATOM     20  C   UNL     1      32.353 -20.496 -19.476  0.00  0.00    +0.001 C 
ATOM     21  C   UNL     1      33.127 -21.380 -18.724  0.00  0.00    +0.000 C 
ENDBRANCH  13  16
ENDBRANCH  11  13
ENDBRANCH   7  11
BRANCH   4  22
ATOM     22  C   UNL     1      32.907 -10.533 -24.287  0.00  0.00    +0.101 C 
BRANCH  22  23
ATOM     23  C   UNL     1      32.699  -9.492 -23.194  0.00  0.00    -0.014 C 
ATOM     24  C   UNL     1      33.530  -8.393 -23.153  0.00  0.00    -0.004 C 
ATOM     25  C   UNL     1      31.684  -9.683 -22.278  0.00  0.00    -0.004 C 
ATOM     26  C   UNL     1      33.339  -7.440 -22.152  0.00  0.00    +0.002 C 
ATOM     27  C   UNL     1      31.493  -8.731 -21.277  0.00  0.00    +0.002 C 
ATOM     28  C   UNL     1      32.321  -7.610 -21.214  0.00  0.00    +0.031 C 
BRANCH  28  31
ATOM     29  N   UNL     1      31.589  -5.361 -20.455  0.00  0.00    -0.343 N 
ATOM     30  N   UNL     1      32.452  -6.899 -18.922  0.00  0.00    -0.285 NA
ATOM     31  C   UNL     1      32.122  -6.617 -20.170  0.00  0.00    +0.117 C 
ATOM     32  H   UNL     1      31.463  -4.704 -19.732  0.00  0.00    +0.144 HD
ATOM     33  H   UNL     1      31.339  -5.130 -21.379  0.00  0.00    +0.144 HD
ATOM     34  H   UNL     1      32.319  -6.229 -18.213  0.00  0.00    +0.188 HD
ENDBRANCH  28  31
ENDBRANCH  22  23
ENDBRANCH   4  22
TORSDOF 6
ENDMDL
MODEL 2
REMARK VINA RESULT:     -12.1      3.669      6.636
REMARK  Name = 446805
REMARK  6 active torsions:
REMARK  status: ('A' for Active; 'I' for Inactive)
REMARK    1  A    between atoms: C_4  and  C_22
REMARK    2  A    between atoms: C_7  and  N_11
REMARK    3  A    between atoms: N_11  and  S_13
REMARK    4  A    between atoms: S_13  and  C_16
REMARK    5  A    between atoms: C_22  and  C_23
REMARK    6  A    between atoms: C_28  and  C_31
REMARK                            x       y       z     vdW  Elec       q    Type
REMARK                         _______ _______ _______ _____ _____    ______ ____
ROOT
ATOM      1  N   UNL     1      34.966 -18.859 -21.498  0.00  0.00    -0.262 N 
ATOM      2  N   UNL     1      32.772 -18.864 -21.857  0.00  0.00    -0.394 NA
ATOM      3  C   UNL     1      34.432 -19.625 -20.494  0.00  0.00    +0.079 C 
ATOM      4  C   UNL     1      33.936 -18.428 -22.286  0.00  0.00    +0.168 C 
ATOM      5  C   UNL     1      33.062 -19.613 -20.740  0.00  0.00    +0.129 C 
ATOM      6  C   UNL     1      32.205 -20.318 -19.878  0.00  0.00    +0.103 C 
ATOM      7  C   UNL     1      32.765 -21.009 -18.797  0.00  0.00    +0.050 C 
ATOM      8  C   UNL     1      35.012 -20.308 -19.424  0.00  0.00    +0.018 C 
ATOM      9  C   UNL     1      36.368 -18.563 -21.686  0.00  0.00    +0.119 C 
ATOM     10  C   UNL     1      34.144 -21.004 -18.576  0.00  0.00    +0.013 C 
ENDROOT
BRANCH   7  11
ATOM     11  N   UNL     1      31.912 -21.731 -17.908  0.00  0.00    -0.219 N 
ATOM     12  H   UNL     1      30.942 -21.565 -17.873  0.00  0.00    +0.173 HD
BRANCH  11  13
ATOM     13  S   UNL     1      32.669 -22.920 -16.892  0.00  0.00    +0.073 S 
ATOM     14  O   UNL     1      33.936 -22.403 -16.412  0.00  0.00    -0.150 OA
ATOM     15  O   UNL     1      32.601 -24.215 -17.541  0.00  0.00    -0.150 OA
BRANCH  13  16
ATOM     16  C   UNL     1      31.558 -22.977 -15.517  0.00  0.00    +0.125 C 
ATOM     17  C   UNL     1      32.058 -23.258 -14.257  0.00  0.00    +0.020 C 
ATOM     18  C   UNL     1      30.212 -22.740 -15.727  0.00  0.00    +0.020 C 
ATOM     19  C   UNL     1      31.182 -23.303 -13.173  0.00  0.00    +0.001 C 
ATOM     20  C   UNL     1      29.335 -22.785 -14.643  0.00  0.00    +0.001 C 
ATOM     21  C   UNL     1      29.820 -23.066 -13.365  0.00  0.00    +0.000 C 
ENDBRANCH  13  16
ENDBRANCH  11  13
ENDBRANCH   7  11
BRANCH   4  22
ATOM     22  C   UNL     1      34.157 -17.572 -23.470  0.00  0.00    +0.101 C 
BRANCH  22  23
ATOM     23  C   UNL     1      33.793 -16.109 -23.251  0.00  0.00    -0.014 C 
ATOM     24  C   UNL     1      33.197 -15.409 -24.279  0.00  0.00    -0.004 C 
ATOM     25  C   UNL     1      34.070 -15.530 -22.029  0.00  0.00    -0.004 C 
ATOM     26  C   UNL     1      32.863 -14.069 -24.078  0.00  0.00    +0.002 C 
ATOM     27  C   UNL     1      33.737 -14.191 -21.828  0.00  0.00    +0.002 C 
ATOM     28  C   UNL     1      33.133 -13.461 -22.853  0.00  0.00    +0.031 C 
BRANCH  28  31
ATOM     29  N   UNL     1      33.432 -11.044 -23.339  0.00  0.00    -0.343 N 
ATOM     30  N   UNL     1      31.843 -11.743 -21.775  0.00  0.00    -0.285 NA
ATOM     31  C   UNL     1      32.786 -12.064 -22.643  0.00  0.00    +0.117 C 
ATOM     32  H   UNL     1      33.181 -10.105 -23.181  0.00  0.00    +0.144 HD
ATOM     33  H   UNL     1      34.139 -11.262 -23.988  0.00  0.00    +0.144 HD
ATOM     34  H   UNL     1      31.606 -10.799 -21.630  0.00  0.00    +0.188 HD
ENDBRANCH  28  31
ENDBRANCH  22  23
ENDBRANCH   4  22
TORSDOF 6
ENDMDL
MODEL 3
REMARK VINA RESULT:     -11.9      8.287     11.973
REMARK  Name = 446805
REMARK  6 active torsions:
REMARK  status: ('A' for Active; 'I' for Inactive)
REMARK    1  A    between atoms: C_4  and  C_22
REMARK    2  A    between atoms: C_7  and  N_11
REMARK    3  A    between atoms: N_11  and  S_13
REMARK    4  A    between atoms: S_13  and  C_16
REMARK    5  A    between atoms: C_22  and  C_23
REMARK    6  A    between atoms: C_28  and  C_31
REMARK                            x       y       z     vdW  Elec       q    Type
REMARK                         _______ _______ _______ _____ _____    ______ ____
ROOT
ATOM      1  N   UNL     1      31.386 -22.708 -15.816  0.00  0.00    -0.262 N 
ATOM      2  N   UNL     1      33.450 -23.220 -16.462  0.00  0.00    -0.394 NA
ATOM      3  C   UNL     1      32.007 -23.205 -14.698  0.00  0.00    +0.079 C 
ATOM      4  C   UNL     1      32.288 -22.738 -16.842  0.00  0.00    +0.168 C 
ATOM      5  C   UNL     1      33.294 -23.516 -15.127  0.00  0.00    +0.129 C 
ATOM      6  C   UNL     1      34.210 -24.057 -14.210  0.00  0.00    +0.103 C 
ATOM      7  C   UNL     1      33.790 -24.263 -12.890  0.00  0.00    +0.050 C 
ATOM      8  C   UNL     1      31.568 -23.400 -13.389  0.00  0.00    +0.018 C 
ATOM      9  C   UNL     1      30.020 -22.240 -15.890  0.00  0.00    +0.119 C 
ATOM     10  C   UNL     1      32.492 -23.940 -12.488  0.00  0.00    +0.013 C 
ENDROOT
BRANCH   7  11
ATOM     11  N   UNL     1      34.705 -24.813 -11.940  0.00  0.00    -0.219 N 
ATOM     12  H   UNL     1      34.583 -25.717 -11.568  0.00  0.00    +0.173 HD
BRANCH  11  13
ATOM     13  S   UNL     1      36.045 -23.810 -11.475  0.00  0.00    +0.073 S 
ATOM     14  O   UNL     1      36.495 -24.195 -10.151  0.00  0.00    -0.150 OA
ATOM     15  O   UNL     1      35.730 -22.425 -11.772  0.00  0.00    -0.150 OA
BRANCH  13  16
ATOM     16  C   UNL     1      37.287 -24.312 -12.630  0.00  0.00    +0.125 C 
ATOM     17  C   UNL     1      37.371 -23.666 -13.851  0.00  0.00    +0.020 C 
ATOM     18  C   UNL     1      38.150 -25.337 -12.289  0.00  0.00    +0.020 C 
ATOM     19  C   UNL     1      38.352 -24.062 -14.762  0.00  0.00    +0.001 C 
ATOM     20  C   UNL     1      39.131 -25.733 -13.200  0.00  0.00    +0.001 C 
ATOM     21  C   UNL     1      39.232 -25.095 -14.436  0.00  0.00    +0.000 C 
ENDBRANCH  13  16
ENDBRANCH  11  13
ENDBRANCH   7  11
BRANCH   4  22
ATOM     22  C   UNL     1      31.946 -22.271 -18.202  0.00  0.00    +0.101 C 
BRANCH  22  23
ATOM     23  C   UNL     1      32.980 -21.330 -18.808  0.00  0.00    -0.014 C 
ATOM     24  C   UNL     1      34.313 -21.525 -18.514  0.00  0.00    -0.004 C 
ATOM     25  C   UNL     1      32.549 -20.311 -19.633  0.00  0.00    -0.004 C 
ATOM     26  C   UNL     1      35.259 -20.663 -19.070  0.00  0.00    +0.002 C 
ATOM     27  C   UNL     1      33.494 -19.448 -20.188  0.00  0.00    +0.002 C 
ATOM     28  C   UNL     1      34.849 -19.625 -19.906  0.00  0.00    +0.031 C 
BRANCH  28  31
ATOM     29  N   UNL     1      35.772 -18.346 -21.825  0.00  0.00    -0.343 N 
ATOM     30  N   UNL     1      36.817 -18.255 -19.736  0.00  0.00    -0.285 NA
ATOM     31  C   UNL     1      35.835 -18.726 -20.485  0.00  0.00    +0.117 C 
ATOM     32  H   UNL     1      36.451 -17.736 -22.195  0.00  0.00    +0.144 HD
ATOM     33  H   UNL     1      35.051 -18.688 -22.400  0.00  0.00    +0.144 HD
ATOM     34  H   UNL     1      37.485 -17.647 -20.125  0.00  0.00    +0.188 HD
ENDBRANCH  28  31
ENDBRANCH  22  23
ENDBRANCH   4  22
TORSDOF 6
ENDMDL
MODEL 4
REMARK VINA RESULT:     -11.7      5.572     12.685
REMARK  Name = 446805
REMARK  6 active torsions:
REMARK  status: ('A' for Active; 'I' for Inactive)
REMARK    1  A    between atoms: C_4  and  C_22
REMARK    2  A    between atoms: C_7  and  N_11
REMARK    3  A    between atoms: N_11  and  S_13
REMARK    4  A    between atoms: S_13  and  C_16
REMARK    5  A    between atoms: C_22  and  C_23
REMARK    6  A    between atoms: C_28  and  C_31
REMARK                            x       y       z     vdW  Elec       q    Type
REMARK                         _______ _______ _______ _____ _____    ______ ____
ROOT
ATOM      1  N   UNL     1      32.260 -22.159 -16.805  0.00  0.00    -0.262 N 
ATOM      2  N   UNL     1      34.467 -22.268 -17.045  0.00  0.00    -0.394 NA
ATOM      3  C   UNL     1      32.535 -21.490 -17.970  0.00  0.00    +0.079 C 
ATOM      4  C   UNL     1      33.445 -22.604 -16.290  0.00  0.00    +0.168 C 
ATOM      5  C   UNL     1      33.919 -21.573 -18.098  0.00  0.00    +0.129 C 
ATOM      6  C   UNL     1      34.542 -20.978 -19.209  0.00  0.00    +0.103 C 
ATOM      7  C   UNL     1      33.741 -20.320 -20.150  0.00  0.00    +0.050 C 
ATOM      8  C   UNL     1      31.718 -20.841 -18.897  0.00  0.00    +0.018 C 
ATOM      9  C   UNL     1      30.949 -22.354 -16.228  0.00  0.00    +0.119 C 
ATOM     10  C   UNL     1      32.354 -20.254 -19.996  0.00  0.00    +0.013 C 
ENDROOT
BRANCH   7  11
ATOM     11  N   UNL     1      34.353 -19.707 -21.286  0.00  0.00    -0.219 N 
ATOM     12  H   UNL     1      34.343 -20.136 -22.173  0.00  0.00    +0.173 HD
BRANCH  11  13
ATOM     13  S   UNL     1      35.113 -18.167 -21.028  0.00  0.00    +0.073 S 
ATOM     14  O   UNL     1      36.523 -18.268 -21.354  0.00  0.00    -0.150 OA
ATOM     15  O   UNL     1      34.690 -17.635 -19.746  0.00  0.00    -0.150 OA
BRANCH  13  16
ATOM     16  C   UNL     1      34.345 -17.173 -22.273  0.00  0.00    +0.125 C 
ATOM     17  C   UNL     1      34.386 -15.795 -22.156  0.00  0.00    +0.020 C 
ATOM     18  C   UNL     1      33.720 -17.793 -23.340  0.00  0.00    +0.020 C 
ATOM     19  C   UNL     1      33.781 -15.011 -23.138  0.00  0.00    +0.001 C 
ATOM     20  C   UNL     1      33.114 -17.009 -24.323  0.00  0.00    +0.001 C 
ATOM     21  C   UNL     1      33.145 -15.618 -24.222  0.00  0.00    +0.000 C 
ENDBRANCH  13  16
ENDBRANCH  11  13
ENDBRANCH   7  11
BRANCH   4  22
ATOM     22  C   UNL     1      33.515 -23.370 -15.028  0.00  0.00    +0.101 C 
BRANCH  22  23
ATOM     23  C   UNL     1      34.892 -23.949 -14.733  0.00  0.00    -0.014 C 
ATOM     24  C   UNL     1      35.018 -25.310 -14.551  0.00  0.00    -0.004 C 
ATOM     25  C   UNL     1      35.972 -23.093 -14.658  0.00  0.00    -0.004 C 
ATOM     26  C   UNL     1      36.280 -25.841 -14.281  0.00  0.00    +0.002 C 
ATOM     27  C   UNL     1      37.234 -23.623 -14.388  0.00  0.00    +0.002 C 
ATOM     28  C   UNL     1      37.387 -24.996 -14.199  0.00  0.00    +0.031 C 
BRANCH  28  31
ATOM     29  N   UNL     1      39.087 -25.880 -12.619  0.00  0.00    -0.343 N 
ATOM     30  N   UNL     1      39.561 -25.741 -14.903  0.00  0.00    -0.285 NA
ATOM     31  C   UNL     1      38.703 -25.549 -13.917  0.00  0.00    +0.117 C 
ATOM     32  H   UNL     1      39.983 -26.253 -12.451  0.00  0.00    +0.144 HD
ATOM     33  H   UNL     1      38.463 -25.742 -11.870  0.00  0.00    +0.144 HD
ATOM     34  H   UNL     1      40.452 -26.115 -14.715  0.00  0.00    +0.188 HD
ENDBRANCH  28  31
ENDBRANCH  22  23
ENDBRANCH   4  22
TORSDOF 6
ENDMDL
MODEL 5
REMARK VINA RESULT:     -11.3      1.471      2.194
REMARK  Name = 446805
REMARK  6 active torsions:
REMARK  status: ('A' for Active; 'I' for Inactive)
REMARK    1  A    between atoms: C_4  and  C_22
REMARK    2  A    between atoms: C_7  and  N_11
REMARK    3  A    between atoms: N_11  and  S_13
REMARK    4  A    between atoms: S_13  and  C_16
REMARK    5  A    between atoms: C_22  and  C_23
REMARK    6  A    between atoms: C_28  and  C_31
REMARK                            x       y       z     vdW  Elec       q    Type
REMARK                         _______ _______ _______ _____ _____    ______ ____
ROOT
ATOM      1  N   UNL     1      32.570 -13.863 -24.552  0.00  0.00    -0.262 N 
ATOM      2  N   UNL     1      33.884 -13.645 -22.773  0.00  0.00    -0.394 NA
ATOM      3  C   UNL     1      32.902 -15.141 -24.184  0.00  0.00    +0.079 C 
ATOM      4  C   UNL     1      33.180 -13.006 -23.680  0.00  0.00    +0.168 C 
ATOM      5  C   UNL     1      33.722 -14.979 -23.071  0.00  0.00    +0.129 C 
ATOM      6  C   UNL     1      34.247 -16.116 -22.434  0.00  0.00    +0.103 C 
ATOM      7  C   UNL     1      33.923 -17.378 -22.948  0.00  0.00    +0.050 C 
ATOM      8  C   UNL     1      32.565 -16.388 -24.712  0.00  0.00    +0.018 C 
ATOM      9  C   UNL     1      31.726 -13.493 -25.666  0.00  0.00    +0.119 C 
ATOM     10  C   UNL     1      33.096 -17.510 -24.066  0.00  0.00    +0.013 C 
ENDROOT
BRANCH   7  11
ATOM     11  N   UNL     1      34.446 -18.548 -22.317  0.00  0.00    -0.219 N 
ATOM     12  H   UNL     1      34.427 -19.427 -22.762  0.00  0.00    +0.173 HD
BRANCH  11  13
ATOM     13  S   UNL     1      35.120 -18.345 -20.729  0.00  0.00    +0.073 S 
ATOM     14  O   UNL     1      34.595 -17.129 -20.138  0.00  0.00    -0.150 OA
ATOM     15  O   UNL     1      36.551 -18.578 -20.785  0.00  0.00    -0.150 OA
BRANCH  13  16
ATOM     16  C   UNL     1      34.411 -19.713 -19.860  0.00  0.00    +0.125 C 
ATOM     17  C   UNL     1      33.041 -19.901 -19.903  0.00  0.00    +0.020 C 
ATOM     18  C   UNL     1      35.241 -20.566 -19.156  0.00  0.00    +0.020 C 
ATOM     19  C   UNL     1      32.483 -20.981 -19.218  0.00  0.00    +0.001 C 
ATOM     20  C   UNL     1      34.682 -21.646 -18.471  0.00  0.00    +0.001 C 
ATOM     21  C   UNL     1      33.303 -21.853 -18.502  0.00  0.00    +0.000 C 
ENDBRANCH  13  16
ENDBRANCH  11  13
ENDBRANCH   7  11
BRANCH   4  22
ATOM     22  C   UNL     1      33.034 -11.539 -23.787  0.00  0.00    +0.101 C 
BRANCH  22  23
ATOM     23  C   UNL     1      32.385 -10.893 -22.569  0.00  0.00    -0.014 C 
ATOM     24  C   UNL     1      31.878 -11.704 -21.575  0.00  0.00    -0.004 C 
ATOM     25  C   UNL     1      32.324  -9.516 -22.499  0.00  0.00    -0.004 C 
ATOM     26  C   UNL     1      31.284 -11.112 -20.460  0.00  0.00    +0.002 C 
ATOM     27  C   UNL     1      31.729  -8.924 -21.385  0.00  0.00    +0.002 C 
ATOM     28  C   UNL     1      31.210  -9.723 -20.366  0.00  0.00    +0.031 C 
BRANCH  28  31
ATOM     29  N   UNL     1      30.884  -7.794 -18.836  0.00  0.00    -0.343 N 
ATOM     30  N   UNL     1      29.730  -9.793 -18.473  0.00  0.00    -0.285 NA
ATOM     31  C   UNL     1      30.589  -9.105 -19.204  0.00  0.00    +0.117 C 
ATOM     32  H   UNL     1      30.452  -7.396 -18.045  0.00  0.00    +0.144 HD
ATOM     33  H   UNL     1      31.523  -7.265 -19.365  0.00  0.00    +0.144 HD
ATOM     34  H   UNL     1      29.309  -9.378 -17.686  0.00  0.00    +0.188 HD
ENDBRANCH  28  31
ENDBRANCH  22  23
ENDBRANCH   4  22
TORSDOF 6
ENDMDL
MODEL 6
REMARK VINA RESULT:     -11.0      5.654     11.997
REMARK  Name = 446805
REMARK  6 active torsions:
REMARK  status: ('A' for Active; 'I' for Inactive)
REMARK    1  A    between atoms: C_4  and  C_22
REMARK    2  A    between atoms: C_7  and  N_11
REMARK    3  A    between atoms: N_11  and  S_13
REMARK    4  A    between atoms: S_13  and  C_16
REMARK    5  A    between atoms: C_22  and  C_23
REMARK    6  A    between atoms: C_28  and  C_31
REMARK                            x       y       z     vdW  Elec       q    Type
REMARK                         _______ _______ _______ _____ _____    ______ ____
ROOT
ATOM      1  N   UNL     1      31.896 -22.022 -17.195  0.00  0.00    -0.262 N 
ATOM      2  N   UNL     1      34.049 -22.569 -17.274  0.00  0.00    -0.394 NA
ATOM      3  C   UNL     1      32.408 -21.338 -18.268  0.00  0.00    +0.079 C 
ATOM      4  C   UNL     1      32.913 -22.742 -16.635  0.00  0.00    +0.168 C 
ATOM      5  C   UNL     1      33.753 -21.697 -18.296  0.00  0.00    +0.129 C 
ATOM      6  C   UNL     1      34.584 -21.161 -19.294  0.00  0.00    +0.103 C 
ATOM      7  C   UNL     1      34.024 -20.281 -20.229  0.00  0.00    +0.050 C 
ATOM      8  C   UNL     1      31.829 -20.465 -19.189  0.00  0.00    +0.018 C 
ATOM      9  C   UNL     1      30.524 -21.984 -16.742  0.00  0.00    +0.119 C 
ATOM     10  C   UNL     1      32.670 -19.940 -20.175  0.00  0.00    +0.013 C 
ENDROOT
BRANCH   7  11
ATOM     11  N   UNL     1      34.851 -19.724 -21.252  0.00  0.00    -0.219 N 
ATOM     12  H   UNL     1      35.098 -20.238 -22.054  0.00  0.00    +0.173 HD
BRANCH  11  13
ATOM     13  S   UNL     1      35.398 -18.092 -21.012  0.00  0.00    +0.073 S 
ATOM     14  O   UNL     1      36.805 -18.004 -21.352  0.00  0.00    -0.150 OA
ATOM     15  O   UNL     1      34.919 -17.613 -19.729  0.00  0.00    -0.150 OA
BRANCH  13  16
ATOM     16  C   UNL     1      34.490 -17.222 -22.255  0.00  0.00    +0.125 C 
ATOM     17  C   UNL     1      33.845 -17.942 -23.246  0.00  0.00    +0.020 C 
ATOM     18  C   UNL     1      34.442 -15.841 -22.213  0.00  0.00    +0.020 C 
ATOM     19  C   UNL     1      33.128 -17.255 -24.226  0.00  0.00    +0.001 C 
ATOM     20  C   UNL     1      33.725 -15.154 -23.193  0.00  0.00    +0.001 C 
ATOM     21  C   UNL     1      33.068 -15.861 -24.200  0.00  0.00    +0.000 C 
ENDBRANCH  13  16
ENDBRANCH  11  13
ENDBRANCH   7  11
BRANCH   4  22
ATOM     22  C   UNL     1      32.709 -23.600 -15.449  0.00  0.00    +0.101 C 
BRANCH  22  23
ATOM     23  C   UNL     1      33.752 -23.401 -14.357  0.00  0.00    -0.014 C 
ATOM     24  C   UNL     1      34.971 -22.850 -14.692  0.00  0.00    -0.004 C 
ATOM     25  C   UNL     1      33.445 -23.780 -13.066  0.00  0.00    -0.004 C 
ATOM     26  C   UNL     1      35.927 -22.668 -13.692  0.00  0.00    +0.002 C 
ATOM     27  C   UNL     1      34.401 -23.600 -12.066  0.00  0.00    +0.002 C 
ATOM     28  C   UNL     1      35.641 -23.043 -12.380  0.00  0.00    +0.031 C 
BRANCH  28  31
ATOM     29  N   UNL     1      37.043 -23.911 -10.522  0.00  0.00    -0.343 N 
ATOM     30  N   UNL     1      37.174 -21.663 -11.146  0.00  0.00    -0.285 NA
ATOM     31  C   UNL     1      36.638 -22.855 -11.337  0.00  0.00    +0.117 C 
ATOM     32  H   UNL     1      37.719 -23.760  -9.822  0.00  0.00    +0.144 HD
ATOM     33  H   UNL     1      36.654 -24.806 -10.646  0.00  0.00    +0.144 HD
ATOM     34  H   UNL     1      37.848 -21.532 -10.441  0.00  0.00    +0.188 HD
ENDBRANCH  28  31
ENDBRANCH  22  23
ENDBRANCH   4  22
TORSDOF 6
ENDMDL
MODEL 7
REMARK VINA RESULT:     -10.8      5.728     11.559
REMARK  Name = 446805
REMARK  6 active torsions:
REMARK  status: ('A' for Active; 'I' for Inactive)
REMARK    1  A    between atoms: C_4  and  C_22
REMARK    2  A    between atoms: C_7  and  N_11
REMARK    3  A    between atoms: N_11  and  S_13
REMARK    4  A    between atoms: S_13  and  C_16
REMARK    5  A    between atoms: C_22  and  C_23
REMARK    6  A    between atoms: C_28  and  C_31
REMARK                            x       y       z     vdW  Elec       q    Type
REMARK                         _______ _______ _______ _____ _____    ______ ____
ROOT
ATOM      1  N   UNL     1      33.961 -22.412 -16.184  0.00  0.00    -0.262 N 
ATOM      2  N   UNL     1      32.111 -22.089 -17.373  0.00  0.00    -0.394 NA
ATOM      3  C   UNL     1      34.363 -21.747 -17.313  0.00  0.00    +0.079 C 
ATOM      4  C   UNL     1      32.609 -22.593 -16.266  0.00  0.00    +0.168 C 
ATOM      5  C   UNL     1      33.191 -21.556 -18.038  0.00  0.00    +0.129 C 
ATOM      6  C   UNL     1      33.251 -20.890 -19.275  0.00  0.00    +0.103 C 
ATOM      7  C   UNL     1      34.496 -20.440 -19.732  0.00  0.00    +0.050 C 
ATOM      8  C   UNL     1      35.614 -21.307 -17.748  0.00  0.00    +0.018 C 
ATOM      9  C   UNL     1      34.818 -22.844 -15.103  0.00  0.00    +0.119 C 
ATOM     10  C   UNL     1      35.656 -20.646 -18.980  0.00  0.00    +0.013 C 
ENDROOT
BRANCH   7  11
ATOM     11  N   UNL     1      34.580 -19.762 -20.986  0.00  0.00    -0.219 N 
ATOM     12  H   UNL     1      34.235 -20.165 -21.816  0.00  0.00    +0.173 HD
BRANCH  11  13
ATOM     13  S   UNL     1      35.319 -18.190 -20.975  0.00  0.00    +0.073 S 
ATOM     14  O   UNL     1      36.698 -18.305 -21.409  0.00  0.00    -0.150 OA
ATOM     15  O   UNL     1      34.992 -17.517 -19.732  0.00  0.00    -0.150 OA
BRANCH  13  16
ATOM     16  C   UNL     1      34.422 -17.362 -22.256  0.00  0.00    +0.125 C 
ATOM     17  C   UNL     1      33.772 -18.115 -23.218  0.00  0.00    +0.020 C 
ATOM     18  C   UNL     1      34.388 -15.980 -22.270  0.00  0.00    +0.020 C 
ATOM     19  C   UNL     1      33.064 -17.463 -24.227  0.00  0.00    +0.001 C 
ATOM     20  C   UNL     1      33.680 -15.327 -23.279  0.00  0.00    +0.001 C 
ATOM     21  C   UNL     1      33.018 -16.068 -24.258  0.00  0.00    +0.000 C 
ENDBRANCH  13  16
ENDBRANCH  11  13
ENDBRANCH   7  11
BRANCH   4  22
ATOM     22  C   UNL     1      31.842 -23.283 -15.207  0.00  0.00    +0.101 C 
BRANCH  22  23
ATOM     23  C   UNL     1      30.356 -22.948 -15.204  0.00  0.00    -0.014 C 
ATOM     24  C   UNL     1      29.868 -22.089 -14.242  0.00  0.00    -0.004 C 
ATOM     25  C   UNL     1      29.544 -23.516 -16.165  0.00  0.00    -0.004 C 
ATOM     26  C   UNL     1      28.507 -21.783 -14.239  0.00  0.00    +0.002 C 
ATOM     27  C   UNL     1      28.183 -23.210 -16.162  0.00  0.00    +0.002 C 
ATOM     28  C   UNL     1      27.665 -22.343 -15.199  0.00  0.00    +0.031 C 
BRANCH  28  31
ATOM     29  N   UNL     1      25.574 -21.700 -16.373  0.00  0.00    -0.343 N 
ATOM     30  N   UNL     1      25.571 -22.037 -14.061  0.00  0.00    -0.285 NA
ATOM     31  C   UNL     1      26.246 -22.025 -15.197  0.00  0.00    +0.117 C 
ATOM     32  H   UNL     1      24.612 -21.488 -16.348  0.00  0.00    +0.144 HD
ATOM     33  H   UNL     1      26.059 -21.683 -17.229  0.00  0.00    +0.144 HD
ATOM     34  H   UNL     1      24.611 -21.822 -14.056  0.00  0.00    +0.188 HD
ENDBRANCH  28  31
ENDBRANCH  22  23
ENDBRANCH   4  22
TORSDOF 6
ENDMDL
MODEL 8
REMARK VINA RESULT:     -10.6      4.506      7.790
REMARK  Name = 446805
REMARK  6 active torsions:
REMARK  status: ('A' for Active; 'I' for Inactive)
REMARK    1  A    between atoms: C_4  and  C_22
REMARK    2  A    between atoms: C_7  and  N_11
REMARK    3  A    between atoms: N_11  and  S_13
REMARK    4  A    between atoms: S_13  and  C_16
REMARK    5  A    between atoms: C_22  and  C_23
REMARK    6  A    between atoms: C_28  and  C_31
REMARK                            x       y       z     vdW  Elec       q    Type
REMARK                         _______ _______ _______ _____ _____    ______ ____
ROOT
ATOM      1  N   UNL     1      34.015 -19.606 -20.537  0.00  0.00    -0.262 N 
ATOM      2  N   UNL     1      36.109 -19.231 -19.894  0.00  0.00    -0.394 NA
ATOM      3  C   UNL     1      34.202 -20.388 -19.427  0.00  0.00    +0.079 C 
ATOM      4  C   UNL     1      35.181 -18.934 -20.776  0.00  0.00    +0.168 C 
ATOM      5  C   UNL     1      35.516 -20.136 -19.043  0.00  0.00    +0.129 C 
ATOM      6  C   UNL     1      36.039 -20.791 -17.915  0.00  0.00    +0.103 C 
ATOM      7  C   UNL     1      35.212 -21.679 -17.216  0.00  0.00    +0.050 C 
ATOM      8  C   UNL     1      33.360 -21.267 -18.744  0.00  0.00    +0.018 C 
ATOM      9  C   UNL     1      32.799 -19.512 -21.314  0.00  0.00    +0.119 C 
ATOM     10  C   UNL     1      33.896 -21.911 -17.624  0.00  0.00    +0.013 C 
ENDROOT
BRANCH   7  11
ATOM     11  N   UNL     1      35.723 -22.357 -16.067  0.00  0.00    -0.219 N 
ATOM     12  H   UNL     1      36.691 -22.431 -15.899  0.00  0.00    +0.173 HD
BRANCH  11  13
ATOM     13  S   UNL     1      34.554 -23.041 -14.979  0.00  0.00    +0.073 S 
ATOM     14  O   UNL     1      33.692 -23.948 -15.712  0.00  0.00    -0.150 OA
ATOM     15  O   UNL     1      33.988 -21.985 -14.162  0.00  0.00    -0.150 OA
BRANCH  13  16
ATOM     16  C   UNL     1      35.579 -24.017 -13.917  0.00  0.00    +0.125 C 
ATOM     17  C   UNL     1      35.694 -25.375 -14.154  0.00  0.00    +0.020 C 
ATOM     18  C   UNL     1      36.245 -23.402 -12.873  0.00  0.00    +0.020 C 
ATOM     19  C   UNL     1      36.503 -26.144 -13.317  0.00  0.00    +0.001 C 
ATOM     20  C   UNL     1      37.054 -24.171 -12.035  0.00  0.00    +0.001 C 
ATOM     21  C   UNL     1      37.183 -25.542 -12.258  0.00  0.00    +0.000 C 
ENDBRANCH  13  16
ENDBRANCH  11  13
ENDBRANCH   7  11
BRANCH   4  22
ATOM     22  C   UNL     1      35.330 -17.996 -21.907  0.00  0.00    +0.101 C 
BRANCH  22  23
ATOM     23  C   UNL     1      34.544 -16.701 -21.743  0.00  0.00    -0.014 C 
ATOM     24  C   UNL     1      34.260 -16.252 -20.470  0.00  0.00    -0.004 C 
ATOM     25  C   UNL     1      34.142 -16.018 -22.872  0.00  0.00    -0.004 C 
ATOM     26  C   UNL     1      33.540 -15.066 -20.319  0.00  0.00    +0.002 C 
ATOM     27  C   UNL     1      33.422 -14.833 -22.722  0.00  0.00    +0.002 C 
ATOM     28  C   UNL     1      33.121 -14.357 -21.445  0.00  0.00    +0.031 C 
BRANCH  28  31
ATOM     29  N   UNL     1      32.421 -12.115 -22.251  0.00  0.00    -0.343 N 
ATOM     30  N   UNL     1      31.624 -12.937 -20.214  0.00  0.00    -0.285 NA
ATOM     31  C   UNL     1      32.371 -13.121 -21.288  0.00  0.00    +0.117 C 
ATOM     32  H   UNL     1      31.905 -11.286 -22.124  0.00  0.00    +0.144 HD
ATOM     33  H   UNL     1      32.973 -12.232 -23.058  0.00  0.00    +0.144 HD
ATOM     34  H   UNL     1      31.115 -12.101 -20.105  0.00  0.00    +0.188 HD
ENDBRANCH  28  31
ENDBRANCH  22  23
ENDBRANCH   4  22
TORSDOF 6
ENDMDL
MODEL 9
REMARK VINA RESULT:     -10.6      4.492      7.739
REMARK  Name = 446805
REMARK  6 active torsions:
REMARK  status: ('A' for Active; 'I' for Inactive)
REMARK    1  A    between atoms: C_4  and  C_22
REMARK    2  A    between atoms: C_7  and  N_11
REMARK    3  A    between atoms: N_11  and  S_13
REMARK    4  A    between atoms: S_13  and  C_16
REMARK    5  A    between atoms: C_22  and  C_23
REMARK    6  A    between atoms: C_28  and  C_31
REMARK                            x       y       z     vdW  Elec       q    Type
REMARK                         _______ _______ _______ _____ _____    ______ ____
ROOT
ATOM      1  N   UNL     1      34.060 -19.555 -20.558  0.00  0.00    -0.262 N 
ATOM      2  N   UNL     1      36.143 -19.156 -19.894  0.00  0.00    -0.394 NA
ATOM      3  C   UNL     1      34.253 -20.353 -19.461  0.00  0.00    +0.079 C 
ATOM      4  C   UNL     1      35.216 -18.860 -20.777  0.00  0.00    +0.168 C 
ATOM      5  C   UNL     1      35.560 -20.086 -19.063  0.00  0.00    +0.129 C 
ATOM      6  C   UNL     1      36.086 -20.752 -17.944  0.00  0.00    +0.103 C 
ATOM      7  C   UNL     1      35.270 -21.666 -17.265  0.00  0.00    +0.050 C 
ATOM      8  C   UNL     1      33.421 -21.258 -18.799  0.00  0.00    +0.018 C 
ATOM      9  C   UNL     1      32.848 -19.468 -21.342  0.00  0.00    +0.119 C 
ATOM     10  C   UNL     1      33.961 -21.912 -17.687  0.00  0.00    +0.013 C 
ENDROOT
BRANCH   7  11
ATOM     11  N   UNL     1      35.784 -22.355 -16.125  0.00  0.00    -0.219 N 
ATOM     12  H   UNL     1      36.753 -22.460 -15.978  0.00  0.00    +0.173 HD
BRANCH  11  13
ATOM     13  S   UNL     1      34.619 -22.998 -15.009  0.00  0.00    +0.073 S 
ATOM     14  O   UNL     1      33.739 -23.914 -15.709  0.00  0.00    -0.150 OA
ATOM     15  O   UNL     1      34.071 -21.914 -14.215  0.00  0.00    -0.150 OA
BRANCH  13  16
ATOM     16  C   UNL     1      35.643 -23.956 -13.931  0.00  0.00    +0.125 C 
ATOM     17  C   UNL     1      36.248 -23.337 -12.851  0.00  0.00    +0.020 C 
ATOM     18  C   UNL     1      35.818 -25.303 -14.189  0.00  0.00    +0.020 C 
ATOM     19  C   UNL     1      37.055 -24.093 -12.000  0.00  0.00    +0.001 C 
ATOM     20  C   UNL     1      36.626 -26.059 -13.338  0.00  0.00    +0.001 C 
ATOM     21  C   UNL     1      37.244 -25.454 -12.244  0.00  0.00    +0.000 C 
ENDBRANCH  13  16
ENDBRANCH  11  13
ENDBRANCH   7  11
BRANCH   4  22
ATOM     22  C   UNL     1      35.357 -17.899 -21.891  0.00  0.00    +0.101 C 
BRANCH  22  23
ATOM     23  C   UNL     1      34.547 -16.622 -21.710  0.00  0.00    -0.014 C 
ATOM     24  C   UNL     1      34.170 -15.908 -22.829  0.00  0.00    -0.004 C 
ATOM     25  C   UNL     1      34.215 -16.220 -20.433  0.00  0.00    -0.004 C 
ATOM     26  C   UNL     1      33.428 -14.738 -22.663  0.00  0.00    +0.002 C 
ATOM     27  C   UNL     1      33.473 -15.050 -20.267  0.00  0.00    +0.002 C 
ATOM     28  C   UNL     1      33.080 -14.310 -21.382  0.00  0.00    +0.031 C 
BRANCH  28  31
ATOM     29  N   UNL     1      31.524 -12.883 -20.075  0.00  0.00    -0.343 N 
ATOM     30  N   UNL     1      32.337 -12.154 -22.141  0.00  0.00    -0.285 NA
ATOM     31  C   UNL     1      32.307 -13.090 -21.209  0.00  0.00    +0.117 C 
ATOM     32  H   UNL     1      31.008 -12.049 -19.979  0.00  0.00    +0.144 HD
ATOM     33  H   UNL     1      31.486 -13.569 -19.370  0.00  0.00    +0.144 HD
ATOM     34  H   UNL     1      31.814 -11.327 -22.026  0.00  0.00    +0.188 HD
ENDBRANCH  28  31
ENDBRANCH  22  23
ENDBRANCH   4  22
TORSDOF 6
ENDMDL
