MODEL 1
REMARK VINA RESULT:     -12.4      0.000      0.000
REMARK  Name = 17748441
REMARK  5 active torsions:
REMARK  status: ('A' for Active; 'I' for Inactive)
REMARK    1  A    between atoms: C_2  and  N_10
REMARK    2  A    between atoms: C_3  and  O_24
REMARK    3  A    between atoms: C_12  and  C_16
REMARK    4  A    between atoms: C_16  and  C_18
REMARK    5  A    between atoms: O_24  and  C_27
REMARK                            x       y       z     vdW  Elec       q    Type
REMARK                         _______ _______ _______ _____ _____    ______ ____
ROOT
ATOM      1  F   UNL     1      35.701 -22.038 -18.026  0.00  0.00    -0.201 F 
ATOM      2  C   UNL     1      33.628 -19.692 -19.877  0.00  0.00    +0.054 C 
ATOM      3  C   UNL     1      33.355 -22.032 -18.384  0.00  0.00    +0.173 C 
ATOM      4  C   UNL     1      34.752 -20.295 -19.314  0.00  0.00    +0.047 C 
ATOM      5  C   UNL     1      32.367 -20.261 -19.694  0.00  0.00    +0.018 C 
ATOM      6  C   UNL     1      34.616 -21.465 -18.566  0.00  0.00    +0.176 C 
ATOM      7  C   UNL     1      32.231 -21.431 -18.948  0.00  0.00    +0.041 C 
ENDROOT
BRANCH   2  10
ATOM      8  O   UNL     1      33.839 -17.197 -24.707  0.00  0.00    -0.274 OA
ATOM      9  O   UNL     1      33.609 -19.272 -22.850  0.00  0.00    -0.252 OA
ATOM     10  N   UNL     1      33.765 -18.506 -20.635  0.00  0.00    -0.268 N 
ATOM     11  N   UNL     1      33.918 -17.018 -22.382  0.00  0.00    -0.239 N 
ATOM     12  C   UNL     1      33.953 -16.521 -23.688  0.00  0.00    +0.234 C 
ATOM     13  C   UNL     1      33.748 -18.371 -22.027  0.00  0.00    +0.310 C 
ATOM     14  H   UNL     1      33.889 -17.675 -20.120  0.00  0.00    +0.156 HD
ATOM     15  H   UNL     1      34.023 -16.368 -21.649  0.00  0.00    +0.159 HD
BRANCH  12  16
ATOM     16  C   UNL     1      34.153 -15.017 -23.699  0.00  0.00    +0.112 C 
BRANCH  16  18
ATOM     17  F   UNL     1      31.318 -12.363 -19.616  0.00  0.00    -0.204 F 
ATOM     18  C   UNL     1      33.395 -14.307 -22.608  0.00  0.00    -0.013 C 
ATOM     19  C   UNL     1      33.774 -14.471 -21.276  0.00  0.00    -0.001 C 
ATOM     20  C   UNL     1      32.314 -13.486 -22.929  0.00  0.00    -0.001 C 
ATOM     21  C   UNL     1      33.073 -13.814 -20.265  0.00  0.00    +0.029 C 
ATOM     22  C   UNL     1      31.612 -12.830 -21.918  0.00  0.00    +0.029 C 
ATOM     23  C   UNL     1      31.991 -12.993 -20.586  0.00  0.00    +0.140 C 
ENDBRANCH  16  18
ENDBRANCH  12  16
ENDBRANCH   2  10
BRANCH   3  24
ATOM     24  O   UNL     1      33.222 -23.176 -17.656  0.00  0.00    -0.451 OA
BRANCH  24  27
ATOM     25  N   UNL     1      31.668 -22.846 -13.791  0.00  0.00    -0.229 NA
ATOM     26  N   UNL     1      33.855 -23.165 -12.900  0.00  0.00    -0.343 N 
ATOM     27  C   UNL     1      32.707 -23.067 -16.375  0.00  0.00    +0.150 C 
ATOM     28  C   UNL     1      33.549 -23.172 -15.273  0.00  0.00    +0.071 C 
ATOM     29  C   UNL     1      31.347 -22.851 -16.186  0.00  0.00    +0.058 C 
ATOM     30  C   UNL     1      32.984 -23.056 -14.013  0.00  0.00    +0.128 C 
ATOM     31  C   UNL     1      30.881 -22.749 -14.885  0.00  0.00    +0.103 C 
ATOM     32  H   UNL     1      33.497 -23.089 -11.986  0.00  0.00    +0.144 HD
ATOM     33  H   UNL     1      34.817 -23.318 -13.041  0.00  0.00    +0.144 HD
ENDBRANCH  24  27
ENDBRANCH   3  24
TORSDOF 5
ENDMDL
MODEL 2
REMARK VINA RESULT:     -12.1      2.990      4.212
REMARK  Name = 17748441
REMARK  5 active torsions:
REMARK  status: ('A' for Active; 'I' for Inactive)
REMARK    1  A    between atoms: C_2  and  N_10
REMARK    2  A    between atoms: C_3  and  O_24
REMARK    3  A    between atoms: C_12  and  C_16
REMARK    4  A    between atoms: C_16  and  C_18
REMARK    5  A    between atoms: O_24  and  C_27
REMARK                            x       y       z     vdW  Elec       q    Type
REMARK                         _______ _______ _______ _____ _____    ______ ____
ROOT
ATOM      1  F   UNL     1      33.227 -23.448 -15.698  0.00  0.00    -0.201 F 
ATOM      2  C   UNL     1      35.304 -21.135 -17.585  0.00  0.00    +0.054 C 
ATOM      3  C   UNL     1      35.342 -22.516 -15.162  0.00  0.00    +0.173 C 
ATOM      4  C   UNL     1      34.236 -21.962 -17.237  0.00  0.00    +0.047 C 
ATOM      5  C   UNL     1      36.390 -20.998 -16.721  0.00  0.00    +0.018 C 
ATOM      6  C   UNL     1      34.256 -22.653 -16.026  0.00  0.00    +0.176 C 
ATOM      7  C   UNL     1      36.409 -21.688 -15.509  0.00  0.00    +0.041 C 
ENDROOT
BRANCH   2  10
ATOM      8  O   UNL     1      32.545 -19.228 -21.869  0.00  0.00    -0.274 OA
ATOM      9  O   UNL     1      33.023 -20.524 -19.441  0.00  0.00    -0.252 OA
ATOM     10  N   UNL     1      35.285 -20.433 -18.814  0.00  0.00    -0.268 N 
ATOM     11  N   UNL     1      34.592 -19.447 -20.773  0.00  0.00    -0.239 N 
ATOM     12  C   UNL     1      33.754 -19.022 -21.807  0.00  0.00    +0.234 C 
ATOM     13  C   UNL     1      34.185 -20.179 -19.639  0.00  0.00    +0.310 C 
ATOM     14  H   UNL     1      36.152 -20.083 -19.125  0.00  0.00    +0.156 HD
ATOM     15  H   UNL     1      35.548 -19.217 -20.842  0.00  0.00    +0.159 HD
BRANCH  12  16
ATOM     16  C   UNL     1      34.530 -18.262 -22.866  0.00  0.00    +0.112 C 
BRANCH  16  18
ATOM     17  F   UNL     1      32.767 -12.952 -23.541  0.00  0.00    -0.204 F 
ATOM     18  C   UNL     1      34.058 -16.843 -23.046  0.00  0.00    -0.013 C 
ATOM     19  C   UNL     1      33.502 -16.442 -24.260  0.00  0.00    -0.001 C 
ATOM     20  C   UNL     1      34.179 -15.929 -21.999  0.00  0.00    -0.001 C 
ATOM     21  C   UNL     1      33.065 -15.128 -24.428  0.00  0.00    +0.029 C 
ATOM     22  C   UNL     1      33.744 -14.615 -22.167  0.00  0.00    +0.029 C 
ATOM     23  C   UNL     1      33.186 -14.214 -23.381  0.00  0.00    +0.140 C 
ENDBRANCH  16  18
ENDBRANCH  12  16
ENDBRANCH   2  10
BRANCH   3  24
ATOM     24  O   UNL     1      35.360 -23.189 -13.979  0.00  0.00    -0.451 OA
BRANCH  24  27
ATOM     25  N   UNL     1      37.362 -26.856 -13.857  0.00  0.00    -0.229 NA
ATOM     26  N   UNL     1      39.366 -25.724 -13.238  0.00  0.00    -0.343 N 
ATOM     27  C   UNL     1      36.024 -24.404 -13.939  0.00  0.00    +0.150 C 
ATOM     28  C   UNL     1      37.373 -24.452 -13.606  0.00  0.00    +0.071 C 
ATOM     29  C   UNL     1      35.344 -25.580 -14.231  0.00  0.00    +0.058 C 
ATOM     30  C   UNL     1      37.990 -25.692 -13.579  0.00  0.00    +0.128 C 
ATOM     31  C   UNL     1      36.052 -26.770 -14.177  0.00  0.00    +0.103 C 
ATOM     32  H   UNL     1      39.845 -26.583 -13.207  0.00  0.00    +0.144 HD
ATOM     33  H   UNL     1      39.841 -24.886 -13.032  0.00  0.00    +0.144 HD
ENDBRANCH  24  27
ENDBRANCH   3  24
TORSDOF 5
ENDMDL
MODEL 3
REMARK VINA RESULT:     -12.1      4.065     10.685
REMARK  Name = 17748441
REMARK  5 active torsions:
REMARK  status: ('A' for Active; 'I' for Inactive)
REMARK    1  A    between atoms: C_2  and  N_10
REMARK    2  A    between atoms: C_3  and  O_24
REMARK    3  A    between atoms: C_12  and  C_16
REMARK    4  A    between atoms: C_16  and  C_18
REMARK    5  A    between atoms: O_24  and  C_27
REMARK                            x       y       z     vdW  Elec       q    Type
REMARK                         _______ _______ _______ _____ _____    ______ ____
ROOT
ATOM      1  F   UNL     1      30.319 -11.580 -19.486  0.00  0.00    -0.201 F 
ATOM      2  C   UNL     1      32.884 -13.699 -20.954  0.00  0.00    +0.054 C 
ATOM      3  C   UNL     1      31.539 -11.319 -21.504  0.00  0.00    +0.173 C 
ATOM      4  C   UNL     1      31.917 -13.223 -20.068  0.00  0.00    +0.047 C 
ATOM      5  C   UNL     1      33.177 -12.984 -22.115  0.00  0.00    +0.018 C 
ATOM      6  C   UNL     1      31.245 -12.033 -20.343  0.00  0.00    +0.176 C 
ATOM      7  C   UNL     1      32.504 -11.794 -22.391  0.00  0.00    +0.041 C 
ENDROOT
BRANCH   2  10
ATOM      8  O   UNL     1      34.988 -18.413 -22.671  0.00  0.00    -0.274 OA
ATOM      9  O   UNL     1      33.687 -15.943 -22.781  0.00  0.00    -0.252 OA
ATOM     10  N   UNL     1      33.566 -14.907 -20.676  0.00  0.00    -0.268 N 
ATOM     11  N   UNL     1      34.587 -16.957 -20.894  0.00  0.00    -0.239 N 
ATOM     12  C   UNL     1      35.076 -18.127 -21.481  0.00  0.00    +0.234 C 
ATOM     13  C   UNL     1      33.915 -15.921 -21.574  0.00  0.00    +0.310 C 
ATOM     14  H   UNL     1      33.826 -15.051 -19.737  0.00  0.00    +0.156 HD
ATOM     15  H   UNL     1      34.722 -16.847 -19.925  0.00  0.00    +0.159 HD
BRANCH  12  16
ATOM     16  C   UNL     1      35.742 -19.021 -20.451  0.00  0.00    +0.112 C 
BRANCH  16  18
ATOM     17  F   UNL     1      32.134 -22.433 -17.789  0.00  0.00    -0.204 F 
ATOM     18  C   UNL     1      34.778 -19.933 -19.740  0.00  0.00    -0.013 C 
ATOM     19  C   UNL     1      35.253 -20.876 -18.830  0.00  0.00    -0.001 C 
ATOM     20  C   UNL     1      33.409 -19.834 -19.991  0.00  0.00    -0.001 C 
ATOM     21  C   UNL     1      34.360 -21.721 -18.170  0.00  0.00    +0.029 C 
ATOM     22  C   UNL     1      32.516 -20.679 -19.333  0.00  0.00    +0.029 C 
ATOM     23  C   UNL     1      32.991 -21.623 -18.422  0.00  0.00    +0.140 C 
ENDBRANCH  16  18
ENDBRANCH  12  16
ENDBRANCH   2  10
BRANCH   3  24
ATOM     24  O   UNL     1      30.881 -10.157 -21.774  0.00  0.00    -0.451 OA
BRANCH  24  27
ATOM     25  N   UNL     1      32.895  -6.570 -21.037  0.00  0.00    -0.229 NA
ATOM     26  N   UNL     1      32.182  -6.653 -18.765  0.00  0.00    -0.343 N 
ATOM     27  C   UNL     1      31.548  -8.968 -21.529  0.00  0.00    +0.150 C 
ATOM     28  C   UNL     1      31.528  -8.405 -20.259  0.00  0.00    +0.071 C 
ATOM     29  C   UNL     1      32.240  -8.334 -22.554  0.00  0.00    +0.058 C 
ATOM     30  C   UNL     1      32.212  -7.215 -20.066  0.00  0.00    +0.128 C 
ATOM     31  C   UNL     1      32.892  -7.147 -22.260  0.00  0.00    +0.103 C 
ATOM     32  H   UNL     1      32.654  -5.809 -18.583  0.00  0.00    +0.144 HD
ATOM     33  H   UNL     1      31.690  -7.108 -18.044  0.00  0.00    +0.144 HD
ENDBRANCH  24  27
ENDBRANCH   3  24
TORSDOF 5
ENDMDL
MODEL 4
REMARK VINA RESULT:     -11.9      2.895      9.525
REMARK  Name = 17748441
REMARK  5 active torsions:
REMARK  status: ('A' for Active; 'I' for Inactive)
REMARK    1  A    between atoms: C_2  and  N_10
REMARK    2  A    between atoms: C_3  and  O_24
REMARK    3  A    between atoms: C_12  and  C_16
REMARK    4  A    between atoms: C_16  and  C_18
REMARK    5  A    between atoms: O_24  and  C_27
REMARK                            x       y       z     vdW  Elec       q    Type
REMARK                         _______ _______ _______ _____ _____    ______ ____
ROOT
ATOM      1  F   UNL     1      36.137 -20.585 -19.501  0.00  0.00    -0.201 F 
ATOM      2  C   UNL     1      32.701 -21.263 -18.522  0.00  0.00    +0.054 C 
ATOM      3  C   UNL     1      34.104 -19.795 -20.435  0.00  0.00    +0.173 C 
ATOM      4  C   UNL     1      34.095 -21.288 -18.536  0.00  0.00    +0.047 C 
ATOM      5  C   UNL     1      32.009 -20.502 -19.465  0.00  0.00    +0.018 C 
ATOM      6  C   UNL     1      34.797 -20.555 -19.493  0.00  0.00    +0.176 C 
ATOM      7  C   UNL     1      32.710 -19.768 -20.421  0.00  0.00    +0.041 C 
ENDROOT
BRANCH   2  10
ATOM      8  O   UNL     1      32.608 -23.949 -13.793  0.00  0.00    -0.274 OA
ATOM      9  O   UNL     1      33.623 -22.463 -15.929  0.00  0.00    -0.252 OA
ATOM     10  N   UNL     1      31.988 -22.006 -17.552  0.00  0.00    -0.268 N 
ATOM     11  N   UNL     1      31.441 -23.215 -15.673  0.00  0.00    -0.239 N 
ATOM     12  C   UNL     1      31.572 -23.870 -14.446  0.00  0.00    +0.234 C 
ATOM     13  C   UNL     1      32.474 -22.543 -16.356  0.00  0.00    +0.310 C 
ATOM     14  H   UNL     1      31.035 -22.165 -17.744  0.00  0.00    +0.156 HD
ATOM     15  H   UNL     1      30.552 -23.224 -16.097  0.00  0.00    +0.159 HD
BRANCH  12  16
ATOM     16  C   UNL     1      30.256 -24.484 -14.007  0.00  0.00    +0.112 C 
BRANCH  16  18
ATOM     17  F   UNL     1      25.745 -21.770 -16.017  0.00  0.00    -0.204 F 
ATOM     18  C   UNL     1      29.051 -23.759 -14.545  0.00  0.00    -0.013 C 
ATOM     19  C   UNL     1      28.764 -22.466 -14.109  0.00  0.00    -0.001 C 
ATOM     20  C   UNL     1      28.220 -24.380 -15.478  0.00  0.00    -0.001 C 
ATOM     21  C   UNL     1      27.647 -21.794 -14.606  0.00  0.00    +0.029 C 
ATOM     22  C   UNL     1      27.104 -23.709 -15.974  0.00  0.00    +0.029 C 
ATOM     23  C   UNL     1      26.817 -22.415 -15.540  0.00  0.00    +0.140 C 
ENDBRANCH  16  18
ENDBRANCH  12  16
ENDBRANCH   2  10
BRANCH   3  24
ATOM     24  O   UNL     1      34.789 -19.077 -21.367  0.00  0.00    -0.451 OA
BRANCH  24  27
ATOM     25  N   UNL     1      33.683 -15.088 -21.942  0.00  0.00    -0.229 NA
ATOM     26  N   UNL     1      33.540 -15.481 -24.288  0.00  0.00    -0.343 N 
ATOM     27  C   UNL     1      34.423 -17.755 -21.558  0.00  0.00    +0.150 C 
ATOM     28  C   UNL     1      34.164 -17.280 -22.839  0.00  0.00    +0.071 C 
ATOM     29  C   UNL     1      34.312 -16.898 -20.470  0.00  0.00    +0.058 C 
ATOM     30  C   UNL     1      33.801 -15.950 -22.976  0.00  0.00    +0.128 C 
ATOM     31  C   UNL     1      33.942 -15.585 -20.712  0.00  0.00    +0.103 C 
ATOM     32  H   UNL     1      33.279 -14.544 -24.432  0.00  0.00    +0.144 HD
ATOM     33  H   UNL     1      33.620 -16.094 -25.054  0.00  0.00    +0.144 HD
ENDBRANCH  24  27
ENDBRANCH   3  24
TORSDOF 5
ENDMDL
MODEL 5
REMARK VINA RESULT:     -11.8      3.058     10.206
REMARK  Name = 17748441
REMARK  5 active torsions:
REMARK  status: ('A' for Active; 'I' for Inactive)
REMARK    1  A    between atoms: C_2  and  N_10
REMARK    2  A    between atoms: C_3  and  O_24
REMARK    3  A    between atoms: C_12  and  C_16
REMARK    4  A    between atoms: C_16  and  C_18
REMARK    5  A    between atoms: O_24  and  C_27
REMARK                            x       y       z     vdW  Elec       q    Type
REMARK                         _______ _______ _______ _____ _____    ______ ____
ROOT
ATOM      1  F   UNL     1      32.625 -18.559 -23.949  0.00  0.00    -0.201 F 
ATOM      2  C   UNL     1      34.085 -19.307 -20.703  0.00  0.00    +0.054 C 
ATOM      3  C   UNL     1      34.390 -17.479 -22.787  0.00  0.00    +0.173 C 
ATOM      4  C   UNL     1      33.265 -19.390 -21.828  0.00  0.00    +0.047 C 
ATOM      5  C   UNL     1      35.057 -18.311 -20.620  0.00  0.00    +0.018 C 
ATOM      6  C   UNL     1      33.417 -18.475 -22.870  0.00  0.00    +0.176 C 
ATOM      7  C   UNL     1      35.210 -17.397 -21.662  0.00  0.00    +0.041 C 
ENDROOT
BRANCH   2  10
ATOM      8  O   UNL     1      30.863 -22.016 -17.256  0.00  0.00    -0.274 OA
ATOM      9  O   UNL     1      31.607 -20.272 -19.307  0.00  0.00    -0.252 OA
ATOM     10  N   UNL     1      33.931 -20.235 -19.646  0.00  0.00    -0.268 N 
ATOM     11  N   UNL     1      33.025 -21.585 -18.019  0.00  0.00    -0.239 N 
ATOM     12  C   UNL     1      32.075 -22.205 -17.201  0.00  0.00    +0.234 C 
ATOM     13  C   UNL     1      32.744 -20.647 -19.032  0.00  0.00    +0.310 C 
ATOM     14  H   UNL     1      34.761 -20.638 -19.300  0.00  0.00    +0.156 HD
ATOM     15  H   UNL     1      33.970 -21.823 -17.873  0.00  0.00    +0.159 HD
BRANCH  12  16
ATOM     16  C   UNL     1      32.732 -23.156 -16.219  0.00  0.00    +0.112 C 
BRANCH  16  18
ATOM     17  F   UNL     1      29.523 -24.297 -11.731  0.00  0.00    -0.204 F 
ATOM     18  C   UNL     1      31.875 -23.460 -15.019  0.00  0.00    -0.013 C 
ATOM     19  C   UNL     1      32.468 -23.837 -13.816  0.00  0.00    -0.001 C 
ATOM     20  C   UNL     1      30.486 -23.367 -15.112  0.00  0.00    -0.001 C 
ATOM     21  C   UNL     1      31.674 -24.119 -12.704  0.00  0.00    +0.029 C 
ATOM     22  C   UNL     1      29.691 -23.650 -14.002  0.00  0.00    +0.029 C 
ATOM     23  C   UNL     1      30.285 -24.026 -12.797  0.00  0.00    +0.140 C 
ENDBRANCH  16  18
ENDBRANCH  12  16
ENDBRANCH   2  10
BRANCH   3  24
ATOM     24  O   UNL     1      34.540 -16.587 -23.805  0.00  0.00    -0.451 OA
BRANCH  24  27
ATOM     25  N   UNL     1      32.384 -13.013 -23.588  0.00  0.00    -0.229 NA
ATOM     26  N   UNL     1      31.448 -13.465 -25.733  0.00  0.00    -0.343 N 
ATOM     27  C   UNL     1      33.826 -15.403 -23.734  0.00  0.00    +0.150 C 
ATOM     28  C   UNL     1      32.989 -15.028 -24.779  0.00  0.00    +0.071 C 
ATOM     29  C   UNL     1      33.942 -14.585 -22.616  0.00  0.00    +0.058 C 
ATOM     30  C   UNL     1      32.297 -13.834 -24.659  0.00  0.00    +0.128 C 
ATOM     31  C   UNL     1      33.206 -13.410 -22.592  0.00  0.00    +0.103 C 
ATOM     32  H   UNL     1      30.937 -12.625 -25.690  0.00  0.00    +0.144 HD
ATOM     33  H   UNL     1      31.371 -14.050 -26.521  0.00  0.00    +0.144 HD
ENDBRANCH  24  27
ENDBRANCH   3  24
TORSDOF 5
ENDMDL
MODEL 6
REMARK VINA RESULT:     -11.8      3.979      5.306
REMARK  Name = 17748441
REMARK  5 active torsions:
REMARK  status: ('A' for Active; 'I' for Inactive)
REMARK    1  A    between atoms: C_2  and  N_10
REMARK    2  A    between atoms: C_3  and  O_24
REMARK    3  A    between atoms: C_12  and  C_16
REMARK    4  A    between atoms: C_16  and  C_18
REMARK    5  A    between atoms: O_24  and  C_27
REMARK                            x       y       z     vdW  Elec       q    Type
REMARK                         _______ _______ _______ _____ _____    ______ ____
ROOT
ATOM      1  F   UNL     1      34.215 -19.746 -23.351  0.00  0.00    -0.201 F 
ATOM      2  C   UNL     1      34.269 -16.233 -22.412  0.00  0.00    +0.054 C 
ATOM      3  C   UNL     1      34.630 -18.740 -21.243  0.00  0.00    +0.173 C 
ATOM      4  C   UNL     1      34.149 -17.387 -23.186  0.00  0.00    +0.047 C 
ATOM      5  C   UNL     1      34.569 -16.333 -21.054  0.00  0.00    +0.018 C 
ATOM      6  C   UNL     1      34.330 -18.641 -22.601  0.00  0.00    +0.176 C 
ATOM      7  C   UNL     1      34.748 -17.586 -20.469  0.00  0.00    +0.041 C 
ENDROOT
BRANCH   2  10
ATOM      8  O   UNL     1      32.224 -11.197 -22.196  0.00  0.00    -0.274 OA
ATOM      9  O   UNL     1      32.818 -13.807 -21.399  0.00  0.00    -0.252 OA
ATOM     10  N   UNL     1      34.086 -14.961 -23.005  0.00  0.00    -0.268 N 
ATOM     11  N   UNL     1      33.448 -12.785 -23.387  0.00  0.00    -0.239 N 
ATOM     12  C   UNL     1      32.863 -11.531 -23.189  0.00  0.00    +0.234 C 
ATOM     13  C   UNL     1      33.396 -13.863 -22.481  0.00  0.00    +0.310 C 
ATOM     14  H   UNL     1      34.493 -14.835 -23.893  0.00  0.00    +0.156 HD
ATOM     15  H   UNL     1      33.936 -12.927 -24.231  0.00  0.00    +0.159 HD
BRANCH  12  16
ATOM     16  C   UNL     1      33.117 -10.613 -24.371  0.00  0.00    +0.112 C 
BRANCH  16  18
ATOM     17  F   UNL     1      33.173  -5.153 -22.980  0.00  0.00    -0.204 F 
ATOM     18  C   UNL     1      33.132  -9.154 -23.999  0.00  0.00    -0.013 C 
ATOM     19  C   UNL     1      34.241  -8.611 -23.353  0.00  0.00    -0.001 C 
ATOM     20  C   UNL     1      32.036  -8.346 -24.301  0.00  0.00    -0.001 C 
ATOM     21  C   UNL     1      34.256  -7.259 -23.009  0.00  0.00    +0.029 C 
ATOM     22  C   UNL     1      32.049  -6.995 -23.956  0.00  0.00    +0.029 C 
ATOM     23  C   UNL     1      33.159  -6.450 -23.310  0.00  0.00    +0.140 C 
ENDBRANCH  16  18
ENDBRANCH  12  16
ENDBRANCH   2  10
BRANCH   3  24
ATOM     24  O   UNL     1      34.804 -19.963 -20.672  0.00  0.00    -0.451 OA
BRANCH  24  27
ATOM     25  N   UNL     1      31.804 -21.356 -18.116  0.00  0.00    -0.229 NA
ATOM     26  N   UNL     1      33.441 -22.568 -16.879  0.00  0.00    -0.343 N 
ATOM     27  C   UNL     1      33.810 -20.425 -19.825  0.00  0.00    +0.150 C 
ATOM     28  C   UNL     1      34.130 -21.272 -18.770  0.00  0.00    +0.071 C 
ATOM     29  C   UNL     1      32.489 -20.043 -20.026  0.00  0.00    +0.058 C 
ATOM     30  C   UNL     1      33.099 -21.705 -17.951  0.00  0.00    +0.128 C 
ATOM     31  C   UNL     1      31.531 -20.532 -19.152  0.00  0.00    +0.103 C 
ATOM     32  H   UNL     1      32.741 -22.900 -16.273  0.00  0.00    +0.144 HD
ATOM     33  H   UNL     1      34.379 -22.834 -16.742  0.00  0.00    +0.144 HD
ENDBRANCH  24  27
ENDBRANCH   3  24
TORSDOF 5
ENDMDL
MODEL 7
REMARK VINA RESULT:     -11.6      4.266      6.663
REMARK  Name = 17748441
REMARK  5 active torsions:
REMARK  status: ('A' for Active; 'I' for Inactive)
REMARK    1  A    between atoms: C_2  and  N_10
REMARK    2  A    between atoms: C_3  and  O_24
REMARK    3  A    between atoms: C_12  and  C_16
REMARK    4  A    between atoms: C_16  and  C_18
REMARK    5  A    between atoms: O_24  and  C_27
REMARK                            x       y       z     vdW  Elec       q    Type
REMARK                         _______ _______ _______ _____ _____    ______ ____
ROOT
ATOM      1  F   UNL     1      34.172 -17.075 -24.217  0.00  0.00    -0.201 F 
ATOM      2  C   UNL     1      33.199 -14.459 -21.886  0.00  0.00    +0.054 C 
ATOM      3  C   UNL     1      34.457 -16.948 -21.865  0.00  0.00    +0.173 C 
ATOM      4  C   UNL     1      33.375 -15.162 -23.078  0.00  0.00    +0.047 C 
ATOM      5  C   UNL     1      33.652 -15.002 -20.683  0.00  0.00    +0.018 C 
ATOM      6  C   UNL     1      34.005 -16.406 -23.067  0.00  0.00    +0.176 C 
ATOM      7  C   UNL     1      34.281 -16.247 -20.673  0.00  0.00    +0.041 C 
ENDROOT
BRANCH   2  10
ATOM      8  O   UNL     1      30.056 -10.761 -19.427  0.00  0.00    -0.274 OA
ATOM      9  O   UNL     1      31.470 -13.139 -19.815  0.00  0.00    -0.252 OA
ATOM     10  N   UNL     1      32.560 -13.197 -21.895  0.00  0.00    -0.268 N 
ATOM     11  N   UNL     1      31.317 -11.357 -21.297  0.00  0.00    -0.239 N 
ATOM     12  C   UNL     1      30.499 -10.509 -20.545  0.00  0.00    +0.234 C 
ATOM     13  C   UNL     1      31.762 -12.632 -20.896  0.00  0.00    +0.310 C 
ATOM     14  H   UNL     1      32.694 -12.651 -22.705  0.00  0.00    +0.156 HD
ATOM     15  H   UNL     1      31.605 -11.036 -22.183  0.00  0.00    +0.159 HD
BRANCH  12  16
ATOM     16  C   UNL     1      30.216  -9.217 -21.286  0.00  0.00    +0.112 C 
BRANCH  16  18
ATOM     17  F   UNL     1      34.885  -6.453 -22.807  0.00  0.00    -0.204 F 
ATOM     18  C   UNL     1      31.463  -8.477 -21.693  0.00  0.00    -0.013 C 
ATOM     19  C   UNL     1      32.164  -8.868 -22.833  0.00  0.00    -0.001 C 
ATOM     20  C   UNL     1      31.919  -7.403 -20.928  0.00  0.00    -0.001 C 
ATOM     21  C   UNL     1      33.320  -8.184 -23.210  0.00  0.00    +0.029 C 
ATOM     22  C   UNL     1      33.075  -6.720 -21.304  0.00  0.00    +0.029 C 
ATOM     23  C   UNL     1      33.775  -7.109 -22.446  0.00  0.00    +0.140 C 
ENDBRANCH  16  18
ENDBRANCH  12  16
ENDBRANCH   2  10
BRANCH   3  24
ATOM     24  O   UNL     1      35.070 -18.164 -21.854  0.00  0.00    -0.451 OA
BRANCH  24  27
ATOM     25  N   UNL     1      33.927 -20.891 -18.899  0.00  0.00    -0.229 NA
ATOM     26  N   UNL     1      31.647 -20.584 -19.519  0.00  0.00    -0.343 N 
ATOM     27  C   UNL     1      34.691 -19.067 -20.875  0.00  0.00    +0.150 C 
ATOM     28  C   UNL     1      33.347 -19.373 -20.689  0.00  0.00    +0.071 C 
ATOM     29  C   UNL     1      35.652 -19.673 -20.075  0.00  0.00    +0.058 C 
ATOM     30  C   UNL     1      33.021 -20.283 -19.696  0.00  0.00    +0.128 C 
ATOM     31  C   UNL     1      35.223 -20.569 -19.109  0.00  0.00    +0.103 C 
ATOM     32  H   UNL     1      31.369 -21.225 -18.826  0.00  0.00    +0.144 HD
ATOM     33  H   UNL     1      30.971 -20.151 -20.090  0.00  0.00    +0.144 HD
ENDBRANCH  24  27
ENDBRANCH   3  24
TORSDOF 5
ENDMDL
MODEL 8
REMARK VINA RESULT:     -11.6      4.292     11.298
REMARK  Name = 17748441
REMARK  5 active torsions:
REMARK  status: ('A' for Active; 'I' for Inactive)
REMARK    1  A    between atoms: C_2  and  N_10
REMARK    2  A    between atoms: C_3  and  O_24
REMARK    3  A    between atoms: C_12  and  C_16
REMARK    4  A    between atoms: C_16  and  C_18
REMARK    5  A    between atoms: O_24  and  C_27
REMARK                            x       y       z     vdW  Elec       q    Type
REMARK                         _______ _______ _______ _____ _____    ______ ____
ROOT
ATOM      1  F   UNL     1      31.838 -11.909 -26.461  0.00  0.00    -0.201 F 
ATOM      2  C   UNL     1      33.131 -13.785 -23.626  0.00  0.00    +0.054 C 
ATOM      3  C   UNL     1      32.726 -11.137 -24.401  0.00  0.00    +0.173 C 
ATOM      4  C   UNL     1      32.576 -13.501 -24.873  0.00  0.00    +0.047 C 
ATOM      5  C   UNL     1      33.484 -12.745 -22.766  0.00  0.00    +0.018 C 
ATOM      6  C   UNL     1      32.373 -12.176 -25.261  0.00  0.00    +0.176 C 
ATOM      7  C   UNL     1      33.282 -11.420 -23.154  0.00  0.00    +0.041 C 
ENDROOT
BRANCH   2  10
ATOM      8  O   UNL     1      34.853 -17.391 -19.934  0.00  0.00    -0.274 OA
ATOM      9  O   UNL     1      34.279 -14.914 -21.091  0.00  0.00    -0.252 OA
ATOM     10  N   UNL     1      33.337 -15.128 -23.232  0.00  0.00    -0.268 N 
ATOM     11  N   UNL     1      33.912 -17.005 -22.033  0.00  0.00    -0.239 N 
ATOM     12  C   UNL     1      34.393 -17.807 -20.994  0.00  0.00    +0.234 C 
ATOM     13  C   UNL     1      33.879 -15.596 -22.031  0.00  0.00    +0.310 C 
ATOM     14  H   UNL     1      33.066 -15.816 -23.883  0.00  0.00    +0.156 HD
ATOM     15  H   UNL     1      33.568 -17.463 -22.835  0.00  0.00    +0.159 HD
BRANCH  12  16
ATOM     16  C   UNL     1      34.277 -19.280 -21.337  0.00  0.00    +0.112 C 
BRANCH  16  18
ATOM     17  F   UNL     1      32.656 -22.467 -16.983  0.00  0.00    -0.204 F 
ATOM     18  C   UNL     1      33.844 -20.131 -20.173  0.00  0.00    -0.013 C 
ATOM     19  C   UNL     1      34.787 -20.871 -19.461  0.00  0.00    -0.001 C 
ATOM     20  C   UNL     1      32.499 -20.181 -19.807  0.00  0.00    -0.001 C 
ATOM     21  C   UNL     1      34.386 -21.660 -18.383  0.00  0.00    +0.029 C 
ATOM     22  C   UNL     1      32.097 -20.970 -18.730  0.00  0.00    +0.029 C 
ATOM     23  C   UNL     1      33.041 -21.709 -18.017  0.00  0.00    +0.140 C 
ENDBRANCH  16  18
ENDBRANCH  12  16
ENDBRANCH   2  10
BRANCH   3  24
ATOM     24  O   UNL     1      32.531  -9.844 -24.780  0.00  0.00    -0.451 OA
BRANCH  24  27
ATOM     25  N   UNL     1      33.251  -6.859 -21.944  0.00  0.00    -0.229 NA
ATOM     26  N   UNL     1      31.044  -7.154 -21.095  0.00  0.00    -0.343 N 
ATOM     27  C   UNL     1      32.769  -8.854 -23.841  0.00  0.00    +0.150 C 
ATOM     28  C   UNL     1      31.777  -8.500 -22.933  0.00  0.00    +0.071 C 
ATOM     29  C   UNL     1      34.001  -8.213 -23.800  0.00  0.00    +0.058 C 
ATOM     30  C   UNL     1      32.066  -7.505 -22.013  0.00  0.00    +0.128 C 
ATOM     31  C   UNL     1      34.191  -7.231 -22.841  0.00  0.00    +0.103 C 
ATOM     32  H   UNL     1      31.206  -6.453 -20.423  0.00  0.00    +0.144 HD
ATOM     33  H   UNL     1      30.174  -7.613 -21.129  0.00  0.00    +0.144 HD
ENDBRANCH  24  27
ENDBRANCH   3  24
TORSDOF 5
ENDMDL
MODEL 9
REMARK VINA RESULT:     -11.6      2.694      9.572
REMARK  Name = 17748441
REMARK  5 active torsions:
REMARK  status: ('A' for Active; 'I' for Inactive)
REMARK    1  A    between atoms: C_2  and  N_10
REMARK    2  A    between atoms: C_3  and  O_24
REMARK    3  A    between atoms: C_12  and  C_16
REMARK    4  A    between atoms: C_16  and  C_18
REMARK    5  A    between atoms: O_24  and  C_27
REMARK                            x       y       z     vdW  Elec       q    Type
REMARK                         _______ _______ _______ _____ _____    ______ ____
ROOT
ATOM      1  F   UNL     1      37.009 -18.262 -21.215  0.00  0.00    -0.201 F 
ATOM      2  C   UNL     1      34.328 -20.197 -19.699  0.00  0.00    +0.054 C 
ATOM      3  C   UNL     1      34.724 -18.440 -21.829  0.00  0.00    +0.173 C 
ATOM      4  C   UNL     1      35.593 -19.656 -19.931  0.00  0.00    +0.047 C 
ATOM      5  C   UNL     1      33.262 -19.859 -20.532  0.00  0.00    +0.018 C 
ATOM      6  C   UNL     1      35.790 -18.778 -20.996  0.00  0.00    +0.176 C 
ATOM      7  C   UNL     1      33.460 -18.980 -21.597  0.00  0.00    +0.041 C 
ENDROOT
BRANCH   2  10
ATOM      8  O   UNL     1      35.977 -22.278 -14.951  0.00  0.00    -0.274 OA
ATOM      9  O   UNL     1      35.989 -20.685 -17.245  0.00  0.00    -0.252 OA
ATOM     10  N   UNL     1      34.127 -21.088 -18.619  0.00  0.00    -0.268 N 
ATOM     11  N   UNL     1      34.384 -22.256 -16.654  0.00  0.00    -0.239 N 
ATOM     12  C   UNL     1      34.933 -22.694 -15.445  0.00  0.00    +0.234 C 
ATOM     13  C   UNL     1      34.940 -21.272 -17.496  0.00  0.00    +0.310 C 
ATOM     14  H   UNL     1      33.316 -21.646 -18.664  0.00  0.00    +0.156 HD
ATOM     15  H   UNL     1      33.538 -22.671 -16.942  0.00  0.00    +0.159 HD
BRANCH  12  16
ATOM     16  C   UNL     1      34.069 -23.763 -14.804  0.00  0.00    +0.112 C 
BRANCH  16  18
ATOM     17  F   UNL     1      28.701 -22.188 -14.133  0.00  0.00    -0.204 F 
ATOM     18  C   UNL     1      32.635 -23.343 -14.625  0.00  0.00    -0.013 C 
ATOM     19  C   UNL     1      31.849 -23.051 -15.739  0.00  0.00    -0.001 C 
ATOM     20  C   UNL     1      32.091 -23.243 -13.344  0.00  0.00    -0.001 C 
ATOM     21  C   UNL     1      30.520 -22.661 -15.573  0.00  0.00    +0.029 C 
ATOM     22  C   UNL     1      30.763 -22.852 -13.177  0.00  0.00    +0.029 C 
ATOM     23  C   UNL     1      29.977 -22.562 -14.292  0.00  0.00    +0.140 C 
ENDBRANCH  16  18
ENDBRANCH  12  16
ENDBRANCH   2  10
BRANCH   3  24
ATOM     24  O   UNL     1      34.917 -17.581 -22.867  0.00  0.00    -0.451 OA
BRANCH  24  27
ATOM     25  N   UNL     1      32.605 -14.100 -22.960  0.00  0.00    -0.229 NA
ATOM     26  N   UNL     1      31.985 -14.589 -25.209  0.00  0.00    -0.343 N 
ATOM     27  C   UNL     1      34.151 -16.427 -22.899  0.00  0.00    +0.150 C 
ATOM     28  C   UNL     1      33.448 -16.087 -24.049  0.00  0.00    +0.071 C 
ATOM     29  C   UNL     1      34.081 -15.606 -21.780  0.00  0.00    +0.058 C 
ATOM     30  C   UNL     1      32.696 -14.923 -24.029  0.00  0.00    +0.128 C 
ATOM     31  C   UNL     1      33.301 -14.463 -21.861  0.00  0.00    +0.103 C 
ATOM     32  H   UNL     1      31.438 -13.772 -25.239  0.00  0.00    +0.144 HD
ATOM     33  H   UNL     1      32.039 -15.176 -25.998  0.00  0.00    +0.144 HD
ENDBRANCH  24  27
ENDBRANCH   3  24
TORSDOF 5
ENDMDL
