MODEL 1
REMARK VINA RESULT:     -11.9      0.000      0.000
REMARK  Name = 9810927
REMARK  6 active torsions:
REMARK  status: ('A' for Active; 'I' for Inactive)
REMARK    1  A    between atoms: N_1  and  C_13
REMARK    2  A    between atoms: C_11  and  O_24
REMARK    3  A    between atoms: C_12  and  O_26
REMARK    4  A    between atoms: C_14  and  C_18
REMARK    5  A    between atoms: C_19  and  C_20
REMARK    6  A    between atoms: N_28  and  C_32
REMARK                            x       y       z     vdW  Elec       q    Type
REMARK                         _______ _______ _______ _____ _____    ______ ____
ROOT
ATOM      1  N   UNL     1      35.350 -23.079 -15.241  0.00  0.00    -0.247 N 
ATOM      2  N   UNL     1      36.456 -21.487 -16.346  0.00  0.00    -0.242 NA
ATOM      3  N   UNL     1      33.354 -23.228 -16.619  0.00  0.00    -0.228 NA
ATOM      4  N   UNL     1      33.447 -21.663 -18.489  0.00  0.00    -0.228 NA
ATOM      5  C   UNL     1      34.556 -22.727 -16.298  0.00  0.00    +0.152 C 
ATOM      6  C   UNL     1      36.479 -22.305 -15.314  0.00  0.00    +0.223 C 
ATOM      7  C   UNL     1      35.261 -21.741 -16.970  0.00  0.00    +0.140 C 
ATOM      8  C   UNL     1      34.663 -21.204 -18.106  0.00  0.00    +0.150 C 
ATOM      9  C   UNL     1      32.876 -22.632 -17.733  0.00  0.00    +0.253 C 
ATOM     10  N   UNL     1      35.307 -20.200 -18.849  0.00  0.00    -0.295 N 
ATOM     11  H   UNL     1      36.184 -19.941 -18.486  0.00  0.00    +0.154 HD
ENDROOT
BRANCH  10  14
ATOM     12 CL   UNL     1      33.784 -17.223 -23.735  0.00  0.00    -0.082 Cl
ATOM     13  F   UNL     1      36.950 -18.219 -19.910  0.00  0.00    -0.203 F 
ATOM     14  C   UNL     1      34.946 -19.489 -20.014  0.00  0.00    +0.077 C 
ATOM     15  C   UNL     1      35.790 -18.502 -20.521  0.00  0.00    +0.154 C 
ATOM     16  C   UNL     1      33.742 -19.775 -20.656  0.00  0.00    +0.018 C 
ATOM     17  C   UNL     1      35.431 -17.801 -21.672  0.00  0.00    +0.042 C 
ATOM     18  C   UNL     1      33.382 -19.074 -21.807  0.00  0.00    +0.013 C 
ATOM     19  C   UNL     1      34.226 -18.088 -22.315  0.00  0.00    +0.060 C 
ENDBRANCH  10  14
BRANCH   1  23
ATOM     20  O   UNL     1      33.636 -24.319 -14.152  0.00  0.00    -0.326 OA
ATOM     21  C   UNL     1      35.516 -23.693 -12.819  0.00  0.00    +0.187 C 
ATOM     22  C   UNL     1      34.236 -23.175 -12.191  0.00  0.00    +0.178 C 
ATOM     23  C   UNL     1      35.058 -24.087 -14.219  0.00  0.00    +0.225 C 
ATOM     24  C   UNL     1      33.183 -24.092 -12.797  0.00  0.00    +0.223 C 
BRANCH  24  28
ATOM     25  O   UNL     1      31.143 -23.678 -14.077  0.00  0.00    -0.421 OA
ATOM     26  N   UNL     1      31.032 -23.022 -11.942  0.00  0.00    -0.109 NA
ATOM     27  N   UNL     1      29.821 -22.729 -12.542  0.00  0.00    -0.112 NA
ATOM     28  C   UNL     1      31.763 -23.571 -12.875  0.00  0.00    +0.255 A 
ATOM     29  C   UNL     1      29.932 -23.129 -13.787  0.00  0.00    +0.225 A 
BRANCH  29  30
ATOM     30  C   UNL     1      28.953 -23.070 -14.880  0.00  0.00    +0.070 C 
ATOM     31  C   UNL     1      28.329 -24.476 -15.208  0.00  0.00    +0.009 C 
ATOM     32  C   UNL     1      29.575 -22.534 -16.221  0.00  0.00    +0.009 C 
ATOM     33  C   UNL     1      27.701 -22.140 -14.635  0.00  0.00    +0.009 C 
ENDBRANCH  29  30
ENDBRANCH  24  28
BRANCH  21  34
ATOM     34  O   UNL     1      35.958 -24.876 -12.155  0.00  0.00    -0.378 OA
ATOM     35  H   UNL     1      36.919 -24.965 -12.260  0.00  0.00    +0.211 HD
ENDBRANCH  21  34
BRANCH  22  36
ATOM     36  O   UNL     1      34.257 -23.249 -10.779  0.00  0.00    -0.379 OA
ATOM     37  H   UNL     1      33.366 -23.080 -10.433  0.00  0.00    +0.211 HD
ENDBRANCH  22  36
ENDBRANCH   1  23
TORSDOF 6
ENDMDL
MODEL 2
REMARK VINA RESULT:     -11.2     11.076     15.130
REMARK  Name = 9810927
REMARK  6 active torsions:
REMARK  status: ('A' for Active; 'I' for Inactive)
REMARK    1  A    between atoms: N_1  and  C_13
REMARK    2  A    between atoms: C_11  and  O_24
REMARK    3  A    between atoms: C_12  and  O_26
REMARK    4  A    between atoms: C_14  and  C_18
REMARK    5  A    between atoms: C_19  and  C_20
REMARK    6  A    between atoms: N_28  and  C_32
REMARK                            x       y       z     vdW  Elec       q    Type
REMARK                         _______ _______ _______ _____ _____    ______ ____
ROOT
ATOM      1  N   UNL     1      31.344  -9.846 -21.203  0.00  0.00    -0.247 N 
ATOM      2  N   UNL     1      32.466 -10.872 -22.835  0.00  0.00    -0.242 NA
ATOM      3  N   UNL     1      30.895 -11.743 -19.753  0.00  0.00    -0.228 NA
ATOM      4  N   UNL     1      31.819 -13.805 -20.676  0.00  0.00    -0.228 NA
ATOM      5  C   UNL     1      31.403 -11.166 -20.852  0.00  0.00    +0.152 C 
ATOM      6  C   UNL     1      31.996  -9.721 -22.402  0.00  0.00    +0.223 C 
ATOM      7  C   UNL     1      32.103 -11.784 -21.876  0.00  0.00    +0.140 C 
ATOM      8  C   UNL     1      32.306 -13.155 -21.761  0.00  0.00    +0.150 C 
ATOM      9  C   UNL     1      31.153 -13.069 -19.753  0.00  0.00    +0.253 C 
ATOM     10  N   UNL     1      33.007 -13.864 -22.753  0.00  0.00    -0.295 N 
ATOM     11  H   UNL     1      33.318 -13.297 -23.496  0.00  0.00    +0.154 HD
ENDROOT
BRANCH  10  14
ATOM     12 CL   UNL     1      34.464 -19.571 -23.343  0.00  0.00    -0.082 Cl
ATOM     13  F   UNL     1      32.196 -15.345 -24.965  0.00  0.00    -0.203 F 
ATOM     14  C   UNL     1      33.353 -15.224 -22.896  0.00  0.00    +0.077 C 
ATOM     15  C   UNL     1      32.932 -15.939 -24.016  0.00  0.00    +0.154 C 
ATOM     16  C   UNL     1      34.118 -15.852 -21.913  0.00  0.00    +0.018 C 
ATOM     17  C   UNL     1      33.275 -17.284 -24.154  0.00  0.00    +0.042 C 
ATOM     18  C   UNL     1      34.461 -17.196 -22.051  0.00  0.00    +0.013 C 
ATOM     19  C   UNL     1      34.041 -17.912 -23.171  0.00  0.00    +0.060 C 
ENDBRANCH  10  14
BRANCH   1  23
ATOM     20  O   UNL     1      30.436  -7.650 -21.325  0.00  0.00    -0.326 OA
ATOM     21  C   UNL     1      31.554  -8.234 -19.298  0.00  0.00    +0.187 C 
ATOM     22  C   UNL     1      32.181  -6.990 -19.899  0.00  0.00    +0.178 C 
ATOM     23  C   UNL     1      30.706  -8.763 -20.449  0.00  0.00    +0.225 C 
ATOM     24  C   UNL     1      31.064  -6.462 -20.789  0.00  0.00    +0.223 C 
BRANCH  24  28
ATOM     25  O   UNL     1      32.140  -6.196 -22.967  0.00  0.00    -0.421 OA
ATOM     26  N   UNL     1      31.241  -4.316 -22.155  0.00  0.00    -0.109 NA
ATOM     27  N   UNL     1      31.811  -4.022 -23.381  0.00  0.00    -0.112 NA
ATOM     28  C   UNL     1      31.459  -5.590 -21.962  0.00  0.00    +0.255 A 
ATOM     29  C   UNL     1      32.323  -5.149 -23.816  0.00  0.00    +0.225 A 
BRANCH  29  30
ATOM     30  C   UNL     1      33.046  -5.427 -25.065  0.00  0.00    +0.070 C 
ATOM     31  C   UNL     1      32.129  -5.292 -26.335  0.00  0.00    +0.009 C 
ATOM     32  C   UNL     1      33.651  -6.878 -25.103  0.00  0.00    +0.009 C 
ATOM     33  C   UNL     1      34.275  -4.487 -25.374  0.00  0.00    +0.009 C 
ENDBRANCH  29  30
ENDBRANCH  24  28
BRANCH  21  34
ATOM     34  O   UNL     1      30.673  -7.886 -18.230  0.00  0.00    -0.378 OA
ATOM     35  H   UNL     1      29.808  -7.637 -18.594  0.00  0.00    +0.211 HD
ENDBRANCH  21  34
BRANCH  22  36
ATOM     36  O   UNL     1      32.567  -6.050 -18.917  0.00  0.00    -0.379 OA
ATOM     37  H   UNL     1      32.927  -6.517 -18.146  0.00  0.00    +0.211 HD
ENDBRANCH  22  36
ENDBRANCH   1  23
TORSDOF 6
ENDMDL
MODEL 3
REMARK VINA RESULT:     -10.7      2.341      3.162
REMARK  Name = 9810927
REMARK  6 active torsions:
REMARK  status: ('A' for Active; 'I' for Inactive)
REMARK    1  A    between atoms: N_1  and  C_13
REMARK    2  A    between atoms: C_11  and  O_24
REMARK    3  A    between atoms: C_12  and  O_26
REMARK    4  A    between atoms: C_14  and  C_18
REMARK    5  A    between atoms: C_19  and  C_20
REMARK    6  A    between atoms: N_28  and  C_32
REMARK                            x       y       z     vdW  Elec       q    Type
REMARK                         _______ _______ _______ _____ _____    ______ ____
ROOT
ATOM      1  N   UNL     1      34.876 -21.689 -17.887  0.00  0.00    -0.247 N 
ATOM      2  N   UNL     1      35.990 -20.052 -18.916  0.00  0.00    -0.242 NA
ATOM      3  N   UNL     1      32.684 -21.392 -18.893  0.00  0.00    -0.228 NA
ATOM      4  N   UNL     1      32.680 -19.544 -20.487  0.00  0.00    -0.228 NA
ATOM      5  C   UNL     1      33.977 -21.080 -18.719  0.00  0.00    +0.152 C 
ATOM      6  C   UNL     1      36.070 -21.034 -18.042  0.00  0.00    +0.223 C 
ATOM      7  C   UNL     1      34.688 -20.070 -19.347  0.00  0.00    +0.140 C 
ATOM      8  C   UNL     1      33.991 -19.286 -20.261  0.00  0.00    +0.150 C 
ATOM      9  C   UNL     1      32.116 -20.566 -19.798  0.00  0.00    +0.253 C 
ATOM     10  N   UNL     1      34.634 -18.239 -20.946  0.00  0.00    -0.295 N 
ATOM     11  H   UNL     1      35.584 -18.138 -20.710  0.00  0.00    +0.154 HD
ENDROOT
BRANCH  10  14
ATOM     12 CL   UNL     1      32.764 -14.311 -24.961  0.00  0.00    -0.082 Cl
ATOM     13  F   UNL     1      33.891 -19.029 -23.509  0.00  0.00    -0.203 F 
ATOM     14  C   UNL     1      34.187 -17.305 -21.904  0.00  0.00    +0.077 C 
ATOM     15  C   UNL     1      33.822 -17.732 -23.180  0.00  0.00    +0.154 C 
ATOM     16  C   UNL     1      34.113 -15.952 -21.573  0.00  0.00    +0.018 C 
ATOM     17  C   UNL     1      33.382 -16.806 -24.126  0.00  0.00    +0.042 C 
ATOM     18  C   UNL     1      33.674 -15.026 -22.518  0.00  0.00    +0.013 C 
ATOM     19  C   UNL     1      33.307 -15.453 -23.794  0.00  0.00    +0.060 C 
ENDBRANCH  10  14
BRANCH   1  23
ATOM     20  O   UNL     1      33.236 -23.214 -17.083  0.00  0.00    -0.326 OA
ATOM     21  C   UNL     1      34.915 -22.530 -15.529  0.00  0.00    +0.187 C 
ATOM     22  C   UNL     1      33.536 -22.222 -14.976  0.00  0.00    +0.178 C 
ATOM     23  C   UNL     1      34.622 -22.823 -16.996  0.00  0.00    +0.225 C 
ATOM     24  C   UNL     1      32.650 -23.180 -15.761  0.00  0.00    +0.223 C 
BRANCH  24  28
ATOM     25  O   UNL     1      30.293 -23.596 -15.274  0.00  0.00    -0.421 OA
ATOM     26  N   UNL     1      30.655 -21.833 -16.601  0.00  0.00    -0.109 NA
ATOM     27  N   UNL     1      29.290 -21.951 -16.411  0.00  0.00    -0.112 NA
ATOM     28  C   UNL     1      31.191 -22.811 -15.921  0.00  0.00    +0.255 A 
ATOM     29  C   UNL     1      29.126 -22.993 -15.631  0.00  0.00    +0.225 A 
BRANCH  29  30
ATOM     30  C   UNL     1      27.888 -23.580 -15.101  0.00  0.00    +0.070 C 
ATOM     31  C   UNL     1      27.102 -24.408 -16.183  0.00  0.00    +0.009 C 
ATOM     32  C   UNL     1      26.889 -22.494 -14.558  0.00  0.00    +0.009 C 
ATOM     33  C   UNL     1      28.061 -24.584 -13.896  0.00  0.00    +0.009 C 
ENDBRANCH  29  30
ENDBRANCH  24  28
BRANCH  21  34
ATOM     34  O   UNL     1      35.437 -23.720 -14.941  0.00  0.00    -0.378 OA
ATOM     35  H   UNL     1      35.681 -23.544 -14.018  0.00  0.00    +0.211 HD
ENDBRANCH  21  34
BRANCH  22  36
ATOM     36  O   UNL     1      33.450 -22.440 -13.582  0.00  0.00    -0.379 OA
ATOM     37  H   UNL     1      34.208 -22.972 -13.291  0.00  0.00    +0.211 HD
ENDBRANCH  22  36
ENDBRANCH   1  23
TORSDOF 6
ENDMDL
MODEL 4
REMARK VINA RESULT:     -10.7      5.745     10.171
REMARK  Name = 9810927
REMARK  6 active torsions:
REMARK  status: ('A' for Active; 'I' for Inactive)
REMARK    1  A    between atoms: N_1  and  C_13
REMARK    2  A    between atoms: C_11  and  O_24
REMARK    3  A    between atoms: C_12  and  O_26
REMARK    4  A    between atoms: C_14  and  C_18
REMARK    5  A    between atoms: C_19  and  C_20
REMARK    6  A    between atoms: N_28  and  C_32
REMARK                            x       y       z     vdW  Elec       q    Type
REMARK                         _______ _______ _______ _____ _____    ______ ____
ROOT
ATOM      1  N   UNL     1      33.490 -19.892 -20.521  0.00  0.00    -0.247 N 
ATOM      2  N   UNL     1      31.516 -20.317 -19.572  0.00  0.00    -0.242 NA
ATOM      3  N   UNL     1      34.956 -21.040 -18.960  0.00  0.00    -0.228 NA
ATOM      4  N   UNL     1      33.687 -22.087 -17.157  0.00  0.00    -0.228 NA
ATOM      5  C   UNL     1      33.756 -20.638 -19.406  0.00  0.00    +0.152 C 
ATOM      6  C   UNL     1      32.131 -19.726 -20.576  0.00  0.00    +0.223 C 
ATOM      7  C   UNL     1      32.520 -20.891 -18.834  0.00  0.00    +0.140 C 
ATOM      8  C   UNL     1      32.511 -21.647 -17.666  0.00  0.00    +0.150 C 
ATOM      9  C   UNL     1      34.820 -21.761 -17.825  0.00  0.00    +0.253 C 
ATOM     10  N   UNL     1      31.301 -21.952 -17.018  0.00  0.00    -0.295 N 
ATOM     11  H   UNL     1      30.507 -21.586 -17.471  0.00  0.00    +0.154 HD
ENDROOT
BRANCH  10  14
ATOM     12 CL   UNL     1      30.039 -25.009 -12.107  0.00  0.00    -0.082 Cl
ATOM     13  F   UNL     1      28.672 -22.353 -16.196  0.00  0.00    -0.203 F 
ATOM     14  C   UNL     1      30.998 -22.681 -15.848  0.00  0.00    +0.077 C 
ATOM     15  C   UNL     1      29.671 -22.864 -15.462  0.00  0.00    +0.154 C 
ATOM     16  C   UNL     1      32.029 -23.216 -15.077  0.00  0.00    +0.018 C 
ATOM     17  C   UNL     1      29.374 -23.584 -14.306  0.00  0.00    +0.042 C 
ATOM     18  C   UNL     1      31.733 -23.935 -13.920  0.00  0.00    +0.013 C 
ATOM     19  C   UNL     1      30.406 -24.120 -13.534  0.00  0.00    +0.060 C 
ENDBRANCH  10  14
BRANCH   1  23
ATOM     20  O   UNL     1      34.747 -17.982 -21.180  0.00  0.00    -0.326 OA
ATOM     21  C   UNL     1      33.994 -19.422 -22.928  0.00  0.00    +0.187 C 
ATOM     22  C   UNL     1      33.499 -18.009 -23.168  0.00  0.00    +0.178 C 
ATOM     23  C   UNL     1      34.464 -19.364 -21.479  0.00  0.00    +0.225 C 
ATOM     24  C   UNL     1      34.481 -17.179 -22.352  0.00  0.00    +0.223 C 
BRANCH  24  28
ATOM     25  O   UNL     1      33.482 -14.997 -22.813  0.00  0.00    -0.421 OA
ATOM     26  N   UNL     1      34.060 -15.305 -20.674  0.00  0.00    -0.109 NA
ATOM     27  N   UNL     1      33.513 -14.040 -20.791  0.00  0.00    -0.112 NA
ATOM     28  C   UNL     1      34.018 -15.818 -21.875  0.00  0.00    +0.255 A 
ATOM     29  C   UNL     1      33.191 -13.904 -22.055  0.00  0.00    +0.225 A 
BRANCH  29  30
ATOM     30  C   UNL     1      32.572 -12.766 -22.746  0.00  0.00    +0.070 C 
ATOM     31  C   UNL     1      31.392 -12.129 -21.923  0.00  0.00    +0.009 C 
ATOM     32  C   UNL     1      31.977 -13.159 -24.148  0.00  0.00    +0.009 C 
ATOM     33  C   UNL     1      33.525 -11.547 -23.059  0.00  0.00    +0.009 C 
ENDBRANCH  29  30
ENDBRANCH  24  28
BRANCH  21  34
ATOM     34  O   UNL     1      35.130 -19.702 -23.746  0.00  0.00    -0.378 OA
ATOM     35  H   UNL     1      35.280 -20.660 -23.774  0.00  0.00    +0.211 HD
ENDBRANCH  21  34
BRANCH  22  36
ATOM     36  O   UNL     1      33.512 -17.655 -24.536  0.00  0.00    -0.379 OA
ATOM     37  H   UNL     1      33.452 -18.458 -25.079  0.00  0.00    +0.211 HD
ENDBRANCH  22  36
ENDBRANCH   1  23
TORSDOF 6
ENDMDL
MODEL 5
REMARK VINA RESULT:     -10.3     11.926     16.576
REMARK  Name = 9810927
REMARK  6 active torsions:
REMARK  status: ('A' for Active; 'I' for Inactive)
REMARK    1  A    between atoms: N_1  and  C_13
REMARK    2  A    between atoms: C_11  and  O_24
REMARK    3  A    between atoms: C_12  and  O_26
REMARK    4  A    between atoms: C_14  and  C_18
REMARK    5  A    between atoms: C_19  and  C_20
REMARK    6  A    between atoms: N_28  and  C_32
REMARK                            x       y       z     vdW  Elec       q    Type
REMARK                         _______ _______ _______ _____ _____    ______ ____
ROOT
ATOM      1  N   UNL     1      32.343  -9.340 -23.135  0.00  0.00    -0.247 N 
ATOM      2  N   UNL     1      33.648 -10.925 -24.008  0.00  0.00    -0.242 NA
ATOM      3  N   UNL     1      31.276 -10.613 -21.362  0.00  0.00    -0.228 NA
ATOM      4  N   UNL     1      32.065 -12.922 -21.328  0.00  0.00    -0.228 NA
ATOM      5  C   UNL     1      32.113 -10.470 -22.400  0.00  0.00    +0.152 C 
ATOM      6  C   UNL     1      33.271  -9.665 -24.089  0.00  0.00    +0.223 C 
ATOM      7  C   UNL     1      32.933 -11.439 -22.957  0.00  0.00    +0.140 C 
ATOM      8  C   UNL     1      32.889 -12.705 -22.381  0.00  0.00    +0.150 C 
ATOM      9  C   UNL     1      31.321 -11.877 -20.890  0.00  0.00    +0.253 C 
ATOM     10  N   UNL     1      33.687 -13.749 -22.881  0.00  0.00    -0.295 N 
ATOM     11  H   UNL     1      34.249 -13.484 -23.646  0.00  0.00    +0.154 HD
ENDROOT
BRANCH  10  14
ATOM     12 CL   UNL     1      34.345 -19.414 -21.296  0.00  0.00    -0.082 Cl
ATOM     13  F   UNL     1      33.611 -15.798 -24.763  0.00  0.00    -0.203 F 
ATOM     14  C   UNL     1      33.844 -15.100 -22.505  0.00  0.00    +0.077 C 
ATOM     15  C   UNL     1      33.801 -16.104 -23.472  0.00  0.00    +0.154 C 
ATOM     16  C   UNL     1      34.042 -15.429 -21.165  0.00  0.00    +0.018 C 
ATOM     17  C   UNL     1      33.956 -17.438 -23.098  0.00  0.00    +0.042 C 
ATOM     18  C   UNL     1      34.196 -16.763 -20.790  0.00  0.00    +0.013 C 
ATOM     19  C   UNL     1      34.154 -17.768 -21.756  0.00  0.00    +0.060 C 
ENDBRANCH  10  14
BRANCH   1  23
ATOM     20  O   UNL     1      31.107  -7.596 -24.182  0.00  0.00    -0.326 OA
ATOM     21  C   UNL     1      32.697  -6.937 -22.527  0.00  0.00    +0.187 C 
ATOM     22  C   UNL     1      32.990  -6.235 -23.840  0.00  0.00    +0.178 C 
ATOM     23  C   UNL     1      31.719  -8.027 -22.949  0.00  0.00    +0.225 C 
ATOM     24  C   UNL     1      31.646  -6.306 -24.552  0.00  0.00    +0.223 C 
BRANCH  24  28
ATOM     25  O   UNL     1      32.727  -5.638 -26.639  0.00  0.00    -0.421 OA
ATOM     26  N   UNL     1      30.759  -6.665 -26.917  0.00  0.00    -0.109 NA
ATOM     27  N   UNL     1      31.254  -6.345 -28.168  0.00  0.00    -0.112 NA
ATOM     28  C   UNL     1      31.651  -6.234 -26.065  0.00  0.00    +0.255 A 
ATOM     29  C   UNL     1      32.403  -5.747 -27.956  0.00  0.00    +0.225 A 
BRANCH  29  30
ATOM     30  C   UNL     1      33.363  -5.198 -28.923  0.00  0.00    +0.070 C 
ATOM     31  C   UNL     1      32.676  -4.280 -30.000  0.00  0.00    +0.009 C 
ATOM     32  C   UNL     1      34.132  -6.318 -29.714  0.00  0.00    +0.009 C 
ATOM     33  C   UNL     1      34.508  -4.294 -28.320  0.00  0.00    +0.009 C 
ENDBRANCH  29  30
ENDBRANCH  24  28
BRANCH  21  34
ATOM     34  O   UNL     1      32.016  -6.060 -21.632  0.00  0.00    -0.378 OA
ATOM     35  H   UNL     1      31.101  -6.364 -21.516  0.00  0.00    +0.211 HD
ENDBRANCH  21  34
BRANCH  22  36
ATOM     36  O   UNL     1      33.425  -4.903 -23.658  0.00  0.00    -0.379 OA
ATOM     37  H   UNL     1      34.358  -4.829 -23.916  0.00  0.00    +0.211 HD
ENDBRANCH  22  36
ENDBRANCH   1  23
TORSDOF 6
ENDMDL
MODEL 6
REMARK VINA RESULT:     -10.3     12.036     15.882
REMARK  Name = 9810927
REMARK  6 active torsions:
REMARK  status: ('A' for Active; 'I' for Inactive)
REMARK    1  A    between atoms: N_1  and  C_13
REMARK    2  A    between atoms: C_11  and  O_24
REMARK    3  A    between atoms: C_12  and  O_26
REMARK    4  A    between atoms: C_14  and  C_18
REMARK    5  A    between atoms: C_19  and  C_20
REMARK    6  A    between atoms: N_28  and  C_32
REMARK                            x       y       z     vdW  Elec       q    Type
REMARK                         _______ _______ _______ _____ _____    ______ ____
ROOT
ATOM      1  N   UNL     1      31.238  -9.235 -21.259  0.00  0.00    -0.247 N 
ATOM      2  N   UNL     1      32.527 -10.264 -22.762  0.00  0.00    -0.242 NA
ATOM      3  N   UNL     1      30.585 -11.141 -19.900  0.00  0.00    -0.228 NA
ATOM      4  N   UNL     1      31.576 -13.209 -20.736  0.00  0.00    -0.228 NA
ATOM      5  C   UNL     1      31.231 -10.561 -20.923  0.00  0.00    +0.152 C 
ATOM      6  C   UNL     1      32.029  -9.109 -22.371  0.00  0.00    +0.223 C 
ATOM      7  C   UNL     1      32.036 -11.179 -21.866  0.00  0.00    +0.140 C 
ATOM      8  C   UNL     1      32.200 -12.556 -21.747  0.00  0.00    +0.150 C 
ATOM      9  C   UNL     1      30.818 -12.471 -19.888  0.00  0.00    +0.253 C 
ATOM     10  N   UNL     1      33.000 -13.266 -22.659  0.00  0.00    -0.295 N 
ATOM     11  H   UNL     1      33.408 -12.697 -23.352  0.00  0.00    +0.154 HD
ENDROOT
BRANCH  10  14
ATOM     12 CL   UNL     1      34.410 -18.993 -23.171  0.00  0.00    -0.082 Cl
ATOM     13  F   UNL     1      34.119 -14.678 -20.537  0.00  0.00    -0.203 F 
ATOM     14  C   UNL     1      33.337 -14.631 -22.779  0.00  0.00    +0.077 C 
ATOM     15  C   UNL     1      33.896 -15.311 -21.698  0.00  0.00    +0.154 C 
ATOM     16  C   UNL     1      33.110 -15.298 -23.982  0.00  0.00    +0.018 C 
ATOM     17  C   UNL     1      34.228 -16.660 -21.819  0.00  0.00    +0.042 C 
ATOM     18  C   UNL     1      33.442 -16.647 -24.104  0.00  0.00    +0.013 C 
ATOM     19  C   UNL     1      34.000 -17.329 -23.022  0.00  0.00    +0.060 C 
ENDBRANCH  10  14
BRANCH   1  23
ATOM     20  O   UNL     1      30.105  -7.161 -21.528  0.00  0.00    -0.326 OA
ATOM     21  C   UNL     1      31.385  -7.429 -19.531  0.00  0.00    +0.187 C 
ATOM     22  C   UNL     1      31.848  -6.197 -20.285  0.00  0.00    +0.178 C 
ATOM     23  C   UNL     1      30.535  -8.150 -20.571  0.00  0.00    +0.225 C 
ATOM     24  C   UNL     1      30.637  -5.870 -21.148  0.00  0.00    +0.223 C 
BRANCH  24  28
ATOM     25  O   UNL     1      29.835  -4.345 -22.880  0.00  0.00    -0.421 OA
ATOM     26  N   UNL     1      31.952  -5.011 -23.157  0.00  0.00    -0.109 NA
ATOM     27  N   UNL     1      31.633  -4.161 -24.199  0.00  0.00    -0.112 NA
ATOM     28  C   UNL     1      30.876  -5.085 -22.420  0.00  0.00    +0.255 A 
ATOM     29  C   UNL     1      30.388  -3.797 -23.996  0.00  0.00    +0.225 A 
BRANCH  29  30
ATOM     30  C   UNL     1      29.535  -2.900 -24.787  0.00  0.00    +0.070 C 
ATOM     31  C   UNL     1      30.331  -2.152 -25.918  0.00  0.00    +0.009 C 
ATOM     32  C   UNL     1      28.852  -1.787 -23.911  0.00  0.00    +0.009 C 
ATOM     33  C   UNL     1      28.333  -3.585 -25.548  0.00  0.00    +0.009 C 
ENDBRANCH  29  30
ENDBRANCH  24  28
BRANCH  21  34
ATOM     34  O   UNL     1      30.533  -7.063 -18.447  0.00  0.00    -0.378 OA
ATOM     35  H   UNL     1      30.054  -7.847 -18.134  0.00  0.00    +0.211 HD
ENDBRANCH  21  34
BRANCH  22  36
ATOM     36  O   UNL     1      32.190  -5.130 -19.423  0.00  0.00    -0.379 OA
ATOM     37  H   UNL     1      31.460  -4.969 -18.803  0.00  0.00    +0.211 HD
ENDBRANCH  22  36
ENDBRANCH   1  23
TORSDOF 6
ENDMDL
MODEL 7
REMARK VINA RESULT:     -10.0      1.571      2.608
REMARK  Name = 9810927
REMARK  6 active torsions:
REMARK  status: ('A' for Active; 'I' for Inactive)
REMARK    1  A    between atoms: N_1  and  C_13
REMARK    2  A    between atoms: C_11  and  O_24
REMARK    3  A    between atoms: C_12  and  O_26
REMARK    4  A    between atoms: C_14  and  C_18
REMARK    5  A    between atoms: C_19  and  C_20
REMARK    6  A    between atoms: N_28  and  C_32
REMARK                            x       y       z     vdW  Elec       q    Type
REMARK                         _______ _______ _______ _____ _____    ______ ____
ROOT
ATOM      1  N   UNL     1      33.912 -22.390 -17.313  0.00  0.00    -0.247 N 
ATOM      2  N   UNL     1      32.441 -21.397 -18.664  0.00  0.00    -0.242 NA
ATOM      3  N   UNL     1      35.950 -21.281 -18.035  0.00  0.00    -0.228 NA
ATOM      4  N   UNL     1      35.503 -19.669 -19.812  0.00  0.00    -0.228 NA
ATOM      5  C   UNL     1      34.629 -21.511 -18.077  0.00  0.00    +0.152 C 
ATOM      6  C   UNL     1      32.603 -22.284 -17.704  0.00  0.00    +0.223 C 
ATOM      7  C   UNL     1      33.699 -20.906 -18.906  0.00  0.00    +0.140 C 
ATOM      8  C   UNL     1      34.178 -19.953 -19.799  0.00  0.00    +0.150 C 
ATOM      9  C   UNL     1      36.295 -20.342 -18.942  0.00  0.00    +0.253 C 
ATOM     10  N   UNL     1      33.304 -19.288 -20.677  0.00  0.00    -0.295 N 
ATOM     11  H   UNL     1      32.364 -19.566 -20.584  0.00  0.00    +0.154 HD
ENDROOT
BRANCH  10  14
ATOM     12 CL   UNL     1      34.147 -15.150 -24.826  0.00  0.00    -0.082 Cl
ATOM     13  F   UNL     1      34.278 -16.763 -20.028  0.00  0.00    -0.203 F 
ATOM     14  C   UNL     1      33.506 -18.300 -21.664  0.00  0.00    +0.077 C 
ATOM     15  C   UNL     1      33.995 -17.044 -21.308  0.00  0.00    +0.154 C 
ATOM     16  C   UNL     1      33.214 -18.583 -22.998  0.00  0.00    +0.018 C 
ATOM     17  C   UNL     1      34.194 -16.070 -22.285  0.00  0.00    +0.042 C 
ATOM     18  C   UNL     1      33.412 -17.608 -23.976  0.00  0.00    +0.013 C 
ATOM     19  C   UNL     1      33.902 -16.352 -23.621  0.00  0.00    +0.060 C 
ENDBRANCH  10  14
BRANCH   1  23
ATOM     20  O   UNL     1      33.342 -23.944 -15.604  0.00  0.00    -0.326 OA
ATOM     21  C   UNL     1      35.247 -22.563 -15.201  0.00  0.00    +0.187 C 
ATOM     22  C   UNL     1      34.238 -22.399 -14.080  0.00  0.00    +0.178 C 
ATOM     23  C   UNL     1      34.433 -23.280 -16.272  0.00  0.00    +0.225 C 
ATOM     24  C   UNL     1      33.426 -23.683 -14.184  0.00  0.00    +0.223 C 
BRANCH  24  28
ATOM     25  O   UNL     1      31.012 -23.728 -14.555  0.00  0.00    -0.421 OA
ATOM     26  N   UNL     1      31.604 -23.589 -12.403  0.00  0.00    -0.109 NA
ATOM     27  N   UNL     1      30.222 -23.604 -12.466  0.00  0.00    -0.112 NA
ATOM     28  C   UNL     1      32.013 -23.663 -13.641  0.00  0.00    +0.255 A 
ATOM     29  C   UNL     1      29.923 -23.686 -13.741  0.00  0.00    +0.225 A 
BRANCH  29  30
ATOM     30  C   UNL     1      28.607 -23.740 -14.391  0.00  0.00    +0.070 C 
ATOM     31  C   UNL     1      27.827 -22.378 -14.288  0.00  0.00    +0.009 C 
ATOM     32  C   UNL     1      27.670 -24.839 -13.768  0.00  0.00    +0.009 C 
ATOM     33  C   UNL     1      28.613 -24.067 -15.935  0.00  0.00    +0.009 C 
ENDBRANCH  29  30
ENDBRANCH  24  28
BRANCH  21  34
ATOM     34  O   UNL     1      36.305 -23.432 -14.800  0.00  0.00    -0.378 OA
ATOM     35  H   UNL     1      36.243 -23.597 -13.846  0.00  0.00    +0.211 HD
ENDBRANCH  21  34
BRANCH  22  36
ATOM     36  O   UNL     1      34.852 -22.258 -12.815  0.00  0.00    -0.379 OA
ATOM     37  H   UNL     1      34.199 -22.435 -12.117  0.00  0.00    +0.211 HD
ENDBRANCH  22  36
ENDBRANCH   1  23
TORSDOF 6
ENDMDL
MODEL 8
REMARK VINA RESULT:      -9.5     11.352     15.827
REMARK  Name = 9810927
REMARK  6 active torsions:
REMARK  status: ('A' for Active; 'I' for Inactive)
REMARK    1  A    between atoms: N_1  and  C_13
REMARK    2  A    between atoms: C_11  and  O_24
REMARK    3  A    between atoms: C_12  and  O_26
REMARK    4  A    between atoms: C_14  and  C_18
REMARK    5  A    between atoms: C_19  and  C_20
REMARK    6  A    between atoms: N_28  and  C_32
REMARK                            x       y       z     vdW  Elec       q    Type
REMARK                         _______ _______ _______ _____ _____    ______ ____
ROOT
ATOM      1  N   UNL     1      31.901  -9.811 -22.580  0.00  0.00    -0.247 N 
ATOM      2  N   UNL     1      33.383 -11.230 -23.456  0.00  0.00    -0.242 NA
ATOM      3  N   UNL     1      30.880 -11.256 -20.914  0.00  0.00    -0.228 NA
ATOM      4  N   UNL     1      31.875 -13.484 -20.941  0.00  0.00    -0.228 NA
ATOM      5  C   UNL     1      31.744 -10.990 -21.905  0.00  0.00    +0.152 C 
ATOM      6  C   UNL     1      32.896 -10.007 -23.502  0.00  0.00    +0.223 C 
ATOM      7  C   UNL     1      32.673 -11.855 -22.463  0.00  0.00    +0.140 C 
ATOM      8  C   UNL     1      32.721 -13.145 -21.944  0.00  0.00    +0.150 C 
ATOM      9  C   UNL     1      31.019 -12.532 -20.495  0.00  0.00    +0.253 C 
ATOM     10  N   UNL     1      33.633 -14.088 -22.449  0.00  0.00    -0.295 N 
ATOM     11  H   UNL     1      34.201 -13.739 -23.174  0.00  0.00    +0.154 HD
ENDROOT
BRANCH  10  14
ATOM     12 CL   UNL     1      34.741 -19.744 -21.092  0.00  0.00    -0.082 Cl
ATOM     13  F   UNL     1      34.039 -14.894 -19.816  0.00  0.00    -0.203 F 
ATOM     14  C   UNL     1      33.897 -15.436 -22.123  0.00  0.00    +0.077 C 
ATOM     15  C   UNL     1      34.096 -15.808 -20.795  0.00  0.00    +0.154 C 
ATOM     16  C   UNL     1      33.959 -16.394 -23.134  0.00  0.00    +0.018 C 
ATOM     17  C   UNL     1      34.357 -17.140 -20.476  0.00  0.00    +0.042 C 
ATOM     18  C   UNL     1      34.221 -17.727 -22.816  0.00  0.00    +0.013 C 
ATOM     19  C   UNL     1      34.419 -18.100 -21.487  0.00  0.00    +0.060 C 
ENDBRANCH  10  14
BRANCH   1  23
ATOM     20  O   UNL     1      31.341  -7.686 -23.492  0.00  0.00    -0.326 OA
ATOM     21  C   UNL     1      31.571  -7.805 -21.119  0.00  0.00    +0.187 C 
ATOM     22  C   UNL     1      32.504  -6.748 -21.680  0.00  0.00    +0.178 C 
ATOM     23  C   UNL     1      31.152  -8.570 -22.369  0.00  0.00    +0.225 C 
ATOM     24  C   UNL     1      31.853  -6.420 -23.017  0.00  0.00    +0.223 C 
BRANCH  24  28
ATOM     25  O   UNL     1      32.252  -5.898 -25.370  0.00  0.00    -0.421 OA
ATOM     26  N   UNL     1      33.928  -5.316 -24.008  0.00  0.00    -0.109 NA
ATOM     27  N   UNL     1      34.285  -4.967 -25.298  0.00  0.00    -0.112 NA
ATOM     28  C   UNL     1      32.740  -5.852 -24.105  0.00  0.00    +0.255 A 
ATOM     29  C   UNL     1      33.278  -5.326 -26.058  0.00  0.00    +0.225 A 
BRANCH  29  30
ATOM     30  C   UNL     1      33.109  -5.194 -27.511  0.00  0.00    +0.070 C 
ATOM     31  C   UNL     1      31.769  -5.839 -28.024  0.00  0.00    +0.009 C 
ATOM     32  C   UNL     1      34.272  -5.879 -28.319  0.00  0.00    +0.009 C 
ATOM     33  C   UNL     1      33.066  -3.719 -28.070  0.00  0.00    +0.009 C 
ENDBRANCH  29  30
ENDBRANCH  24  28
BRANCH  21  34
ATOM     34  O   UNL     1      30.404  -7.200 -20.564  0.00  0.00    -0.378 OA
ATOM     35  H   UNL     1      30.125  -6.460 -21.127  0.00  0.00    +0.211 HD
ENDBRANCH  21  34
BRANCH  22  36
ATOM     36  O   UNL     1      32.603  -5.613 -20.844  0.00  0.00    -0.379 OA
ATOM     37  H   UNL     1      33.523  -5.505 -20.553  0.00  0.00    +0.211 HD
ENDBRANCH  22  36
ENDBRANCH   1  23
TORSDOF 6
ENDMDL
MODEL 9
REMARK VINA RESULT:      -9.5      1.821      2.896
REMARK  Name = 9810927
REMARK  6 active torsions:
REMARK  status: ('A' for Active; 'I' for Inactive)
REMARK    1  A    between atoms: N_1  and  C_13
REMARK    2  A    between atoms: C_11  and  O_24
REMARK    3  A    between atoms: C_12  and  O_26
REMARK    4  A    between atoms: C_14  and  C_18
REMARK    5  A    between atoms: C_19  and  C_20
REMARK    6  A    between atoms: N_28  and  C_32
REMARK                            x       y       z     vdW  Elec       q    Type
REMARK                         _______ _______ _______ _____ _____    ______ ____
ROOT
ATOM      1  N   UNL     1      33.785 -22.284 -17.506  0.00  0.00    -0.247 N 
ATOM      2  N   UNL     1      32.367 -21.202 -18.846  0.00  0.00    -0.242 NA
ATOM      3  N   UNL     1      35.870 -21.227 -18.168  0.00  0.00    -0.228 NA
ATOM      4  N   UNL     1      35.503 -19.548 -19.901  0.00  0.00    -0.228 NA
ATOM      5  C   UNL     1      34.542 -21.409 -18.234  0.00  0.00    +0.152 C 
ATOM      6  C   UNL     1      32.486 -22.122 -17.911  0.00  0.00    +0.223 C 
ATOM      7  C   UNL     1      33.644 -20.748 -19.057  0.00  0.00    +0.140 C 
ATOM      8  C   UNL     1      34.169 -19.785 -19.914  0.00  0.00    +0.150 C 
ATOM      9  C   UNL     1      36.259 -20.274 -19.042  0.00  0.00    +0.253 C 
ATOM     10  N   UNL     1      33.331 -19.065 -20.783  0.00  0.00    -0.295 N 
ATOM     11  H   UNL     1      32.380 -19.313 -20.711  0.00  0.00    +0.154 HD
ENDROOT
BRANCH  10  14
ATOM     12 CL   UNL     1      34.380 -14.827 -24.781  0.00  0.00    -0.082 Cl
ATOM     13  F   UNL     1      33.108 -19.561 -23.513  0.00  0.00    -0.203 F 
ATOM     14  C   UNL     1      33.580 -18.056 -21.738  0.00  0.00    +0.077 C 
ATOM     15  C   UNL     1      33.460 -18.336 -23.098  0.00  0.00    +0.154 C 
ATOM     16  C   UNL     1      33.948 -16.779 -21.317  0.00  0.00    +0.018 C 
ATOM     17  C   UNL     1      33.708 -17.337 -24.040  0.00  0.00    +0.042 C 
ATOM     18  C   UNL     1      34.196 -15.780 -22.258  0.00  0.00    +0.013 C 
ATOM     19  C   UNL     1      34.075 -16.059 -23.619  0.00  0.00    +0.060 C 
ENDBRANCH  10  14
BRANCH   1  23
ATOM     20  O   UNL     1      33.137 -23.847 -15.833  0.00  0.00    -0.326 OA
ATOM     21  C   UNL     1      35.107 -22.571 -15.399  0.00  0.00    +0.187 C 
ATOM     22  C   UNL     1      34.106 -22.383 -14.275  0.00  0.00    +0.178 C 
ATOM     23  C   UNL     1      34.261 -23.222 -16.486  0.00  0.00    +0.225 C 
ATOM     24  C   UNL     1      33.233 -23.623 -14.407  0.00  0.00    +0.223 C 
BRANCH  24  28
ATOM     25  O   UNL     1      30.822 -23.499 -14.780  0.00  0.00    -0.421 OA
ATOM     26  N   UNL     1      31.414 -23.515 -12.623  0.00  0.00    -0.109 NA
ATOM     27  N   UNL     1      30.034 -23.441 -12.687  0.00  0.00    -0.112 NA
ATOM     28  C   UNL     1      31.822 -23.546 -13.864  0.00  0.00    +0.255 A 
ATOM     29  C   UNL     1      29.734 -23.434 -13.964  0.00  0.00    +0.225 A 
BRANCH  29  30
ATOM     30  C   UNL     1      28.420 -23.372 -14.616  0.00  0.00    +0.070 C 
ATOM     31  C   UNL     1      27.618 -22.073 -14.234  0.00  0.00    +0.009 C 
ATOM     32  C   UNL     1      27.500 -24.591 -14.240  0.00  0.00    +0.009 C 
ATOM     33  C   UNL     1      28.431 -23.368 -16.194  0.00  0.00    +0.009 C 
ENDBRANCH  29  30
ENDBRANCH  24  28
BRANCH  21  34
ATOM     34  O   UNL     1      36.121 -23.500 -15.018  0.00  0.00    -0.378 OA
ATOM     35  H   UNL     1      36.989 -23.069 -15.069  0.00  0.00    +0.211 HD
ENDBRANCH  21  34
BRANCH  22  36
ATOM     36  O   UNL     1      34.725 -22.302 -13.006  0.00  0.00    -0.379 OA
ATOM     37  H   UNL     1      34.520 -23.101 -12.494  0.00  0.00    +0.211 HD
ENDBRANCH  22  36
ENDBRANCH   1  23
TORSDOF 6
ENDMDL
