MODEL 1
REMARK VINA RESULT:     -12.4      0.000      0.000
REMARK  Name = 60149
REMARK  5 active torsions:
REMARK  status: ('A' for Active; 'I' for Inactive)
REMARK    1  A    between atoms: N_2  and  C_12
REMARK    2  A    between atoms: C_3  and  C_19
REMARK    3  A    between atoms: N_18  and  C_25
REMARK    4  A    between atoms: C_25  and  C_26
REMARK    5  A    between atoms: C_26  and  N_28
REMARK                            x       y       z     vdW  Elec       q    Type
REMARK                         _______ _______ _______ _____ _____    ______ ____
ROOT
ATOM      1 CL   UNL     1      28.099 -22.436 -15.485  0.00  0.00    -0.082 Cl
ATOM      2  N   UNL     1      33.793 -23.560 -14.808  0.00  0.00    -0.265 N 
ATOM      3  C   UNL     1      33.258 -22.575 -16.717  0.00  0.00    -0.006 C 
ATOM      4  C   UNL     1      32.064 -22.763 -15.972  0.00  0.00    +0.012 C 
ATOM      5  C   UNL     1      34.303 -23.073 -15.980  0.00  0.00    +0.065 C 
ATOM      6  C   UNL     1      32.428 -23.384 -14.775  0.00  0.00    +0.055 C 
ATOM      7  C   UNL     1      30.705 -22.465 -16.197  0.00  0.00    +0.012 C 
ATOM      8  C   UNL     1      31.495 -23.722 -13.787  0.00  0.00    +0.016 C 
ATOM      9  C   UNL     1      29.763 -22.799 -15.218  0.00  0.00    +0.058 C 
ATOM     10  C   UNL     1      30.154 -23.418 -14.032  0.00  0.00    +0.013 C 
ENDROOT
BRANCH   2  12
ATOM     11  F   UNL     1      36.837 -25.870 -10.836  0.00  0.00    -0.204 F 
ATOM     12  C   UNL     1      34.565 -24.146 -13.801  0.00  0.00    +0.056 C 
ATOM     13  C   UNL     1      34.586 -23.574 -12.537  0.00  0.00    +0.017 C 
ATOM     14  C   UNL     1      35.297 -25.290 -14.081  0.00  0.00    +0.017 C 
ATOM     15  C   UNL     1      35.357 -24.158 -11.532  0.00  0.00    +0.031 C 
ATOM     16  C   UNL     1      36.069 -25.874 -13.076  0.00  0.00    +0.031 C 
ATOM     17  C   UNL     1      36.098 -25.309 -11.801  0.00  0.00    +0.140 C 
ENDBRANCH   2  12
BRANCH   3  19
ATOM     18  N   UNL     1      33.649 -19.643 -19.888  0.00  0.00    +0.388 N 
ATOM     19  C   UNL     1      33.369 -21.940 -18.085  0.00  0.00    +0.019 C 
ATOM     20  C   UNL     1      32.204 -20.985 -18.393  0.00  0.00    -0.018 C 
ATOM     21  C   UNL     1      34.707 -21.213 -18.296  0.00  0.00    -0.018 C 
ATOM     22  C   UNL     1      32.362 -20.344 -19.774  0.00  0.00    -0.077 C 
ATOM     23  C   UNL     1      34.774 -20.562 -19.680  0.00  0.00    -0.077 C 
ATOM     24  H   UNL     1      33.685 -18.930 -19.159  0.00  0.00    -0.080 HD
BRANCH  18  25
ATOM     25  C   UNL     1      33.759 -18.987 -21.192  0.00  0.00    -0.055 C 
BRANCH  25  26
ATOM     26  C   UNL     1      34.592 -17.719 -21.076  0.00  0.00    +0.077 C 
BRANCH  26  28
ATOM     27  O   UNL     1      33.833 -14.841 -20.661  0.00  0.00    -0.252 OA
ATOM     28  N   UNL     1      34.172 -16.731 -22.033  0.00  0.00    -0.243 N 
ATOM     29  N   UNL     1      33.519 -14.785 -22.980  0.00  0.00    -0.266 N 
ATOM     30  C   UNL     1      34.126 -17.000 -23.459  0.00  0.00    +0.085 C 
ATOM     31  C   UNL     1      33.574 -15.722 -24.073  0.00  0.00    +0.082 C 
ATOM     32  C   UNL     1      33.841 -15.390 -21.756  0.00  0.00    +0.311 C 
ATOM     33  H   UNL     1      33.282 -13.834 -23.081  0.00  0.00    +0.157 HD
ENDBRANCH  26  28
ENDBRANCH  25  26
ENDBRANCH  18  25
ENDBRANCH   3  19
TORSDOF 5
ENDMDL
MODEL 2
REMARK VINA RESULT:     -11.3      2.924      4.398
REMARK  Name = 60149
REMARK  5 active torsions:
REMARK  status: ('A' for Active; 'I' for Inactive)
REMARK    1  A    between atoms: N_2  and  C_12
REMARK    2  A    between atoms: C_3  and  C_19
REMARK    3  A    between atoms: N_18  and  C_25
REMARK    4  A    between atoms: C_25  and  C_26
REMARK    5  A    between atoms: C_26  and  N_28
REMARK                            x       y       z     vdW  Elec       q    Type
REMARK                         _______ _______ _______ _____ _____    ______ ____
ROOT
ATOM      1 CL   UNL     1      37.711 -22.886 -14.590  0.00  0.00    -0.082 Cl
ATOM      2  N   UNL     1      32.046 -22.866 -16.020  0.00  0.00    -0.265 N 
ATOM      3  C   UNL     1      33.392 -21.966 -17.531  0.00  0.00    -0.006 C 
ATOM      4  C   UNL     1      34.188 -22.404 -16.440  0.00  0.00    +0.012 C 
ATOM      5  C   UNL     1      32.082 -22.262 -17.248  0.00  0.00    +0.065 C 
ATOM      6  C   UNL     1      33.319 -22.966 -15.503  0.00  0.00    +0.055 C 
ATOM      7  C   UNL     1      35.568 -22.377 -16.154  0.00  0.00    +0.012 C 
ATOM      8  C   UNL     1      33.762 -23.506 -14.290  0.00  0.00    +0.016 C 
ATOM      9  C   UNL     1      36.025 -22.913 -14.945  0.00  0.00    +0.058 C 
ATOM     10  C   UNL     1      35.134 -23.468 -14.029  0.00  0.00    +0.013 C 
ENDROOT
BRANCH   2  12
ATOM     11  F   UNL     1      27.430 -24.625 -13.575  0.00  0.00    -0.204 F 
ATOM     12  C   UNL     1      30.876 -23.312 -15.400  0.00  0.00    +0.056 C 
ATOM     13  C   UNL     1      30.954 -24.282 -14.411  0.00  0.00    +0.017 C 
ATOM     14  C   UNL     1      29.655 -22.777 -15.784  0.00  0.00    +0.017 C 
ATOM     15  C   UNL     1      29.786 -24.728 -13.793  0.00  0.00    +0.031 C 
ATOM     16  C   UNL     1      28.486 -23.224 -15.166  0.00  0.00    +0.031 C 
ATOM     17  C   UNL     1      28.551 -24.198 -14.170  0.00  0.00    +0.140 C 
ENDBRANCH   2  12
BRANCH   3  19
ATOM     18  N   UNL     1      34.742 -18.951 -20.339  0.00  0.00    +0.388 N 
ATOM     19  C   UNL     1      33.890 -21.291 -18.789  0.00  0.00    +0.019 C 
ATOM     20  C   UNL     1      32.893 -20.260 -19.344  0.00  0.00    -0.018 C 
ATOM     21  C   UNL     1      35.268 -20.636 -18.605  0.00  0.00    -0.018 C 
ATOM     22  C   UNL     1      33.440 -19.580 -20.601  0.00  0.00    -0.077 C 
ATOM     23  C   UNL     1      35.728 -19.940 -19.889  0.00  0.00    -0.077 C 
ATOM     24  H   UNL     1      34.617 -18.268 -19.592  0.00  0.00    -0.080 HD
BRANCH  18  25
ATOM     25  C   UNL     1      35.223 -18.257 -21.535  0.00  0.00    -0.055 C 
BRANCH  25  26
ATOM     26  C   UNL     1      34.050 -17.826 -22.403  0.00  0.00    +0.077 C 
BRANCH  26  28
ATOM     27  O   UNL     1      33.862 -15.985 -24.772  0.00  0.00    -0.252 OA
ATOM     28  N   UNL     1      33.935 -16.393 -22.449  0.00  0.00    -0.243 N 
ATOM     29  N   UNL     1      33.716 -14.268 -23.188  0.00  0.00    -0.266 N 
ATOM     30  C   UNL     1      33.810 -15.584 -21.249  0.00  0.00    +0.085 C 
ATOM     31  C   UNL     1      33.781 -14.150 -21.754  0.00  0.00    +0.082 C 
ATOM     32  C   UNL     1      33.842 -15.601 -23.609  0.00  0.00    +0.311 C 
ATOM     33  H   UNL     1      33.598 -13.504 -23.799  0.00  0.00    +0.157 HD
ENDBRANCH  26  28
ENDBRANCH  25  26
ENDBRANCH  18  25
ENDBRANCH   3  19
TORSDOF 5
ENDMDL
MODEL 3
REMARK VINA RESULT:     -10.7      7.634     14.150
REMARK  Name = 60149
REMARK  5 active torsions:
REMARK  status: ('A' for Active; 'I' for Inactive)
REMARK    1  A    between atoms: N_2  and  C_12
REMARK    2  A    between atoms: C_3  and  C_19
REMARK    3  A    between atoms: N_18  and  C_25
REMARK    4  A    between atoms: C_25  and  C_26
REMARK    5  A    between atoms: C_26  and  N_28
REMARK                            x       y       z     vdW  Elec       q    Type
REMARK                         _______ _______ _______ _____ _____    ______ ____
ROOT
ATOM      1 CL   UNL     1      30.005  -9.985 -17.924  0.00  0.00    -0.082 Cl
ATOM      2  N   UNL     1      32.623  -9.011 -23.055  0.00  0.00    -0.265 N 
ATOM      3  C   UNL     1      32.376 -11.147 -22.526  0.00  0.00    -0.006 C 
ATOM      4  C   UNL     1      31.828 -10.368 -21.472  0.00  0.00    +0.012 C 
ATOM      5  C   UNL     1      32.857 -10.290 -23.484  0.00  0.00    +0.065 C 
ATOM      6  C   UNL     1      31.995  -9.029 -21.830  0.00  0.00    +0.055 C 
ATOM      7  C   UNL     1      31.204 -10.670 -20.246  0.00  0.00    +0.012 C 
ATOM      8  C   UNL     1      31.567  -7.972 -21.018  0.00  0.00    +0.016 C 
ATOM      9  C   UNL     1      30.771  -9.623 -19.424  0.00  0.00    +0.058 C 
ATOM     10  C   UNL     1      30.951  -8.295 -19.806  0.00  0.00    +0.013 C 
ENDROOT
BRANCH   2  12
ATOM     11  F   UNL     1      34.016  -4.498 -25.896  0.00  0.00    -0.204 F 
ATOM     12  C   UNL     1      32.976  -7.867 -23.775  0.00  0.00    +0.056 C 
ATOM     13  C   UNL     1      34.002  -7.057 -23.310  0.00  0.00    +0.017 C 
ATOM     14  C   UNL     1      32.296  -7.560 -24.945  0.00  0.00    +0.017 C 
ATOM     15  C   UNL     1      34.354  -5.913 -24.028  0.00  0.00    +0.031 C 
ATOM     16  C   UNL     1      32.648  -6.417 -25.663  0.00  0.00    +0.031 C 
ATOM     17  C   UNL     1      33.677  -5.594 -25.206  0.00  0.00    +0.140 C 
ENDBRANCH   2  12
BRANCH   3  19
ATOM     18  N   UNL     1      33.780 -15.209 -23.102  0.00  0.00    +0.388 N 
ATOM     19  C   UNL     1      32.427 -12.657 -22.590  0.00  0.00    +0.019 C 
ATOM     20  C   UNL     1      32.688 -13.183 -24.011  0.00  0.00    -0.018 C 
ATOM     21  C   UNL     1      33.453 -13.258 -21.616  0.00  0.00    -0.018 C 
ATOM     22  C   UNL     1      32.758 -14.711 -24.033  0.00  0.00    -0.077 C 
ATOM     23  C   UNL     1      33.496 -14.784 -21.726  0.00  0.00    -0.077 C 
ATOM     24  H   UNL     1      34.677 -14.809 -23.377  0.00  0.00    -0.080 HD
BRANCH  18  25
ATOM     25  C   UNL     1      33.873 -16.668 -23.178  0.00  0.00    -0.055 C 
BRANCH  25  26
ATOM     26  C   UNL     1      35.117 -17.156 -22.451  0.00  0.00    +0.077 C 
BRANCH  26  28
ATOM     27  O   UNL     1      36.791 -18.353 -20.260  0.00  0.00    -0.252 OA
ATOM     28  N   UNL     1      34.796 -18.194 -21.510  0.00  0.00    -0.243 N 
ATOM     29  N   UNL     1      34.912 -19.672 -19.802  0.00  0.00    -0.266 N 
ATOM     30  C   UNL     1      33.478 -18.802 -21.443  0.00  0.00    +0.085 C 
ATOM     31  C   UNL     1      33.604 -19.874 -20.371  0.00  0.00    +0.082 C 
ATOM     32  C   UNL     1      35.640 -18.695 -20.499  0.00  0.00    +0.311 C 
ATOM     33  H   UNL     1      35.254 -20.161 -19.019  0.00  0.00    +0.157 HD
ENDBRANCH  26  28
ENDBRANCH  25  26
ENDBRANCH  18  25
ENDBRANCH   3  19
TORSDOF 5
ENDMDL
MODEL 4
REMARK VINA RESULT:     -10.6      9.949     13.988
REMARK  Name = 60149
REMARK  5 active torsions:
REMARK  status: ('A' for Active; 'I' for Inactive)
REMARK    1  A    between atoms: N_2  and  C_12
REMARK    2  A    between atoms: C_3  and  C_19
REMARK    3  A    between atoms: N_18  and  C_25
REMARK    4  A    between atoms: C_25  and  C_26
REMARK    5  A    between atoms: C_26  and  N_28
REMARK                            x       y       z     vdW  Elec       q    Type
REMARK                         _______ _______ _______ _____ _____    ______ ____
ROOT
ATOM      1 CL   UNL     1      29.948  -9.627 -18.719  0.00  0.00    -0.082 Cl
ATOM      2  N   UNL     1      32.797 -12.429 -22.982  0.00  0.00    -0.265 N 
ATOM      3  C   UNL     1      32.766 -10.223 -23.176  0.00  0.00    -0.006 C 
ATOM      4  C   UNL     1      32.055 -10.570 -21.996  0.00  0.00    +0.012 C 
ATOM      5  C   UNL     1      33.211 -11.382 -23.761  0.00  0.00    +0.065 C 
ATOM      6  C   UNL     1      32.089 -11.962 -21.897  0.00  0.00    +0.055 C 
ATOM      7  C   UNL     1      31.382  -9.835 -20.999  0.00  0.00    +0.012 C 
ATOM      8  C   UNL     1      31.483 -12.660 -20.845  0.00  0.00    +0.016 C 
ATOM      9  C   UNL     1      30.771 -10.520 -19.943  0.00  0.00    +0.058 C 
ATOM     10  C   UNL     1      30.822 -11.910 -19.869  0.00  0.00    +0.013 C 
ENDROOT
BRANCH   2  12
ATOM     11  F   UNL     1      33.868 -17.720 -24.095  0.00  0.00    -0.204 F 
ATOM     12  C   UNL     1      33.069 -13.771 -23.264  0.00  0.00    +0.056 C 
ATOM     13  C   UNL     1      33.911 -14.487 -22.427  0.00  0.00    +0.017 C 
ATOM     14  C   UNL     1      32.491 -14.364 -24.377  0.00  0.00    +0.017 C 
ATOM     15  C   UNL     1      34.183 -15.826 -22.709  0.00  0.00    +0.031 C 
ATOM     16  C   UNL     1      32.763 -15.703 -24.660  0.00  0.00    +0.031 C 
ATOM     17  C   UNL     1      33.608 -16.434 -23.825  0.00  0.00    +0.140 C 
ENDBRANCH   2  12
BRANCH   3  19
ATOM     18  N   UNL     1      32.572  -5.923 -23.696  0.00  0.00    +0.388 N 
ATOM     19  C   UNL     1      32.997  -8.825 -23.703  0.00  0.00    +0.019 C 
ATOM     20  C   UNL     1      31.714  -8.177 -24.249  0.00  0.00    -0.018 C 
ATOM     21  C   UNL     1      33.647  -7.898 -22.664  0.00  0.00    -0.018 C 
ATOM     22  C   UNL     1      31.981  -6.756 -24.752  0.00  0.00    -0.077 C 
ATOM     23  C   UNL     1      33.843  -6.487 -23.224  0.00  0.00    -0.077 C 
ATOM     24  H   UNL     1      31.923  -5.905 -22.909  0.00  0.00    -0.080 HD
BRANCH  18  25
ATOM     25  C   UNL     1      32.766  -4.554 -24.174  0.00  0.00    -0.055 C 
BRANCH  25  26
ATOM     26  C   UNL     1      31.433  -3.938 -24.571  0.00  0.00    +0.077 C 
BRANCH  26  28
ATOM     27  O   UNL     1      29.917  -5.292 -22.356  0.00  0.00    -0.252 OA
ATOM     28  N   UNL     1      30.763  -3.370 -23.433  0.00  0.00    -0.243 N 
ATOM     29  N   UNL     1      29.609  -3.134 -21.503  0.00  0.00    -0.266 N 
ATOM     30  C   UNL     1      30.797  -1.947 -23.141  0.00  0.00    +0.085 C 
ATOM     31  C   UNL     1      29.922  -1.787 -21.909  0.00  0.00    +0.082 C 
ATOM     32  C   UNL     1      30.079  -4.080 -22.428  0.00  0.00    +0.311 C 
ATOM     33  H   UNL     1      29.123  -3.362 -20.678  0.00  0.00    +0.157 HD
ENDBRANCH  26  28
ENDBRANCH  25  26
ENDBRANCH  18  25
ENDBRANCH   3  19
TORSDOF 5
ENDMDL
MODEL 5
REMARK VINA RESULT:     -10.5      8.445     15.090
REMARK  Name = 60149
REMARK  5 active torsions:
REMARK  status: ('A' for Active; 'I' for Inactive)
REMARK    1  A    between atoms: N_2  and  C_12
REMARK    2  A    between atoms: C_3  and  C_19
REMARK    3  A    between atoms: N_18  and  C_25
REMARK    4  A    between atoms: C_25  and  C_26
REMARK    5  A    between atoms: C_26  and  N_28
REMARK                            x       y       z     vdW  Elec       q    Type
REMARK                         _______ _______ _______ _____ _____    ______ ____
ROOT
ATOM      1 CL   UNL     1      30.101  -9.978 -19.047  0.00  0.00    -0.082 Cl
ATOM      2  N   UNL     1      32.670  -8.070 -23.935  0.00  0.00    -0.265 N 
ATOM      3  C   UNL     1      32.804 -10.255 -23.604  0.00  0.00    -0.006 C 
ATOM      4  C   UNL     1      32.085  -9.691 -22.517  0.00  0.00    +0.012 C 
ATOM      5  C   UNL     1      33.151  -9.239 -24.459  0.00  0.00    +0.065 C 
ATOM      6  C   UNL     1      32.014  -8.316 -22.749  0.00  0.00    +0.055 C 
ATOM      7  C   UNL     1      31.485 -10.214 -21.355  0.00  0.00    +0.012 C 
ATOM      8  C   UNL     1      31.370  -7.434 -21.873  0.00  0.00    +0.016 C 
ATOM      9  C   UNL     1      30.838  -9.345 -20.470  0.00  0.00    +0.058 C 
ATOM     10  C   UNL     1      30.783  -7.976 -20.727  0.00  0.00    +0.013 C 
ENDROOT
BRANCH   2  12
ATOM     11  F   UNL     1      33.302  -3.133 -26.303  0.00  0.00    -0.204 F 
ATOM     12  C   UNL     1      32.830  -6.818 -24.535  0.00  0.00    +0.056 C 
ATOM     13  C   UNL     1      31.884  -6.372 -25.446  0.00  0.00    +0.017 C 
ATOM     14  C   UNL     1      33.934  -6.042 -24.211  0.00  0.00    +0.017 C 
ATOM     15  C   UNL     1      32.044  -5.123 -26.047  0.00  0.00    +0.031 C 
ATOM     16  C   UNL     1      34.094  -4.793 -24.811  0.00  0.00    +0.031 C 
ATOM     17  C   UNL     1      33.149  -4.333 -25.728  0.00  0.00    +0.140 C 
ENDBRANCH   2  12
BRANCH   3  19
ATOM     18  N   UNL     1      32.422 -14.555 -24.015  0.00  0.00    +0.388 N 
ATOM     19  C   UNL     1      33.136 -11.718 -23.795  0.00  0.00    +0.019 C 
ATOM     20  C   UNL     1      32.768 -12.575 -22.572  0.00  0.00    -0.018 C 
ATOM     21  C   UNL     1      32.495 -12.313 -25.059  0.00  0.00    -0.018 C 
ATOM     22  C   UNL     1      33.094 -14.051 -22.810  0.00  0.00    -0.077 C 
ATOM     23  C   UNL     1      32.831 -13.799 -25.206  0.00  0.00    -0.077 C 
ATOM     24  H   UNL     1      31.418 -14.429 -23.891  0.00  0.00    -0.080 HD
BRANCH  18  25
ATOM     25  C   UNL     1      32.699 -15.981 -24.195  0.00  0.00    -0.055 C 
BRANCH  25  26
ATOM     26  C   UNL     1      34.111 -16.308 -23.733  0.00  0.00    +0.077 C 
BRANCH  26  28
ATOM     27  O   UNL     1      33.531 -19.247 -23.979  0.00  0.00    -0.252 OA
ATOM     28  N   UNL     1      34.103 -17.332 -22.724  0.00  0.00    -0.243 N 
ATOM     29  N   UNL     1      33.963 -19.333 -21.681  0.00  0.00    -0.266 N 
ATOM     30  C   UNL     1      34.481 -17.070 -21.346  0.00  0.00    +0.085 C 
ATOM     31  C   UNL     1      34.270 -18.395 -20.631  0.00  0.00    +0.082 C 
ATOM     32  C   UNL     1      33.829 -18.699 -22.925  0.00  0.00    +0.311 C 
ATOM     33  H   UNL     1      33.859 -20.303 -21.541  0.00  0.00    +0.157 HD
ENDBRANCH  26  28
ENDBRANCH  25  26
ENDBRANCH  18  25
ENDBRANCH   3  19
TORSDOF 5
ENDMDL
MODEL 6
REMARK VINA RESULT:     -10.3     10.359     13.982
REMARK  Name = 60149
REMARK  5 active torsions:
REMARK  status: ('A' for Active; 'I' for Inactive)
REMARK    1  A    between atoms: N_2  and  C_12
REMARK    2  A    between atoms: C_3  and  C_19
REMARK    3  A    between atoms: N_18  and  C_25
REMARK    4  A    between atoms: C_25  and  C_26
REMARK    5  A    between atoms: C_26  and  N_28
REMARK                            x       y       z     vdW  Elec       q    Type
REMARK                         _______ _______ _______ _____ _____    ______ ____
ROOT
ATOM      1 CL   UNL     1      29.812  -9.638 -18.292  0.00  0.00    -0.082 Cl
ATOM      2  N   UNL     1      32.626 -11.977 -22.847  0.00  0.00    -0.265 N 
ATOM      3  C   UNL     1      32.455  -9.770 -22.891  0.00  0.00    -0.006 C 
ATOM      4  C   UNL     1      31.820 -10.235 -21.709  0.00  0.00    +0.012 C 
ATOM      5  C   UNL     1      32.941 -10.858 -23.570  0.00  0.00    +0.065 C 
ATOM      6  C   UNL     1      31.941 -11.626 -21.705  0.00  0.00    +0.055 C 
ATOM      7  C   UNL     1      31.151  -9.609 -20.638  0.00  0.00    +0.012 C 
ATOM      8  C   UNL     1      31.426 -12.426 -20.679  0.00  0.00    +0.016 C 
ATOM      9  C   UNL     1      30.630 -10.397 -19.606  0.00  0.00    +0.058 C 
ATOM     10  C   UNL     1      30.766 -11.783 -19.628  0.00  0.00    +0.013 C 
ENDROOT
BRANCH   2  12
ATOM     11  F   UNL     1      33.957 -17.107 -24.357  0.00  0.00    -0.204 F 
ATOM     12  C   UNL     1      32.963 -13.278 -23.230  0.00  0.00    +0.056 C 
ATOM     13  C   UNL     1      32.428 -13.807 -24.395  0.00  0.00    +0.017 C 
ATOM     14  C   UNL     1      33.829 -14.019 -22.438  0.00  0.00    +0.017 C 
ATOM     15  C   UNL     1      32.764 -15.106 -24.777  0.00  0.00    +0.031 C 
ATOM     16  C   UNL     1      34.165 -15.318 -22.820  0.00  0.00    +0.031 C 
ATOM     17  C   UNL     1      33.633 -15.862 -23.990  0.00  0.00    +0.140 C 
ENDBRANCH   2  12
BRANCH   3  19
ATOM     18  N   UNL     1      33.525  -6.218 -25.137  0.00  0.00    +0.388 N 
ATOM     19  C   UNL     1      32.579  -8.329 -23.333  0.00  0.00    +0.019 C 
ATOM     20  C   UNL     1      34.033  -7.828 -23.328  0.00  0.00    -0.018 C 
ATOM     21  C   UNL     1      31.945  -8.073 -24.710  0.00  0.00    -0.018 C 
ATOM     22  C   UNL     1      34.122  -6.377 -23.803  0.00  0.00    -0.077 C 
ATOM     23  C   UNL     1      32.111  -6.612 -25.136  0.00  0.00    -0.077 C 
ATOM     24  H   UNL     1      34.024  -6.833 -25.779  0.00  0.00    -0.080 HD
BRANCH  18  25
ATOM     25  C   UNL     1      33.671  -4.837 -25.600  0.00  0.00    -0.055 C 
BRANCH  25  26
ATOM     26  C   UNL     1      33.252  -4.723 -27.058  0.00  0.00    +0.077 C 
BRANCH  26  28
ATOM     27  O   UNL     1      32.756  -6.379 -29.517  0.00  0.00    -0.252 OA
ATOM     28  N   UNL     1      34.187  -5.391 -27.922  0.00  0.00    -0.243 N 
ATOM     29  N   UNL     1      35.085  -6.585 -29.619  0.00  0.00    -0.266 N 
ATOM     30  C   UNL     1      35.625  -5.281 -27.745  0.00  0.00    +0.085 C 
ATOM     31  C   UNL     1      36.214  -6.181 -28.820  0.00  0.00    +0.082 C 
ATOM     32  C   UNL     1      33.872  -6.145 -29.069  0.00  0.00    +0.311 C 
ATOM     33  H   UNL     1      35.158  -7.107 -30.451  0.00  0.00    +0.157 HD
ENDBRANCH  26  28
ENDBRANCH  25  26
ENDBRANCH  18  25
ENDBRANCH   3  19
TORSDOF 5
ENDMDL
MODEL 7
REMARK VINA RESULT:     -10.2      7.616     14.093
REMARK  Name = 60149
REMARK  5 active torsions:
REMARK  status: ('A' for Active; 'I' for Inactive)
REMARK    1  A    between atoms: N_2  and  C_12
REMARK    2  A    between atoms: C_3  and  C_19
REMARK    3  A    between atoms: N_18  and  C_25
REMARK    4  A    between atoms: C_25  and  C_26
REMARK    5  A    between atoms: C_26  and  N_28
REMARK                            x       y       z     vdW  Elec       q    Type
REMARK                         _______ _______ _______ _____ _____    ______ ____
ROOT
ATOM      1 CL   UNL     1      35.787  -9.821 -26.263  0.00  0.00    -0.082 Cl
ATOM      2  N   UNL     1      31.899  -9.158 -21.952  0.00  0.00    -0.265 N 
ATOM      3  C   UNL     1      32.400 -11.259 -22.441  0.00  0.00    -0.006 C 
ATOM      4  C   UNL     1      33.149 -10.417 -23.305  0.00  0.00    +0.012 C 
ATOM      5  C   UNL     1      31.641 -10.461 -21.622  0.00  0.00    +0.065 C 
ATOM      6  C   UNL     1      32.817  -9.101 -22.977  0.00  0.00    +0.055 C 
ATOM      7  C   UNL     1      34.082 -10.645 -24.337  0.00  0.00    +0.012 C 
ATOM      8  C   UNL     1      33.373  -7.997 -23.633  0.00  0.00    +0.016 C 
ATOM      9  C   UNL     1      34.645  -9.550 -25.001  0.00  0.00    +0.058 C 
ATOM     10  C   UNL     1      34.295  -8.247 -24.653  0.00  0.00    +0.013 C 
ENDROOT
BRANCH   2  12
ATOM     11  F   UNL     1      29.563  -4.823 -19.478  0.00  0.00    -0.204 F 
ATOM     12  C   UNL     1      31.307  -8.058 -21.325  0.00  0.00    +0.056 C 
ATOM     13  C   UNL     1      30.431  -7.254 -22.040  0.00  0.00    +0.017 C 
ATOM     14  C   UNL     1      31.604  -7.790 -19.997  0.00  0.00    +0.017 C 
ATOM     15  C   UNL     1      29.841  -6.156 -21.414  0.00  0.00    +0.031 C 
ATOM     16  C   UNL     1      31.014  -6.691 -19.371  0.00  0.00    +0.031 C 
ATOM     17  C   UNL     1      30.131  -5.875 -20.079  0.00  0.00    +0.140 C 
ENDBRANCH   2  12
BRANCH   3  19
ATOM     18  N   UNL     1      33.692 -15.373 -22.897  0.00  0.00    +0.388 N 
ATOM     19  C   UNL     1      32.424 -12.771 -22.420  0.00  0.00    +0.019 C 
ATOM     20  C   UNL     1      32.553 -13.382 -23.825  0.00  0.00    -0.018 C 
ATOM     21  C   UNL     1      33.523 -13.334 -21.505  0.00  0.00    -0.018 C 
ATOM     22  C   UNL     1      32.599 -14.910 -23.763  0.00  0.00    -0.077 C 
ATOM     23  C   UNL     1      33.535 -14.865 -21.528  0.00  0.00    -0.077 C 
ATOM     24  H   UNL     1      34.567 -15.006 -23.270  0.00  0.00    -0.080 HD
BRANCH  18  25
ATOM     25  C   UNL     1      33.758 -16.835 -22.895  0.00  0.00    -0.055 C 
BRANCH  25  26
ATOM     26  C   UNL     1      35.027 -17.305 -22.199  0.00  0.00    +0.077 C 
BRANCH  26  28
ATOM     27  O   UNL     1      36.694 -18.358 -19.931  0.00  0.00    -0.252 OA
ATOM     28  N   UNL     1      34.747 -18.361 -21.264  0.00  0.00    -0.243 N 
ATOM     29  N   UNL     1      34.904 -19.816 -19.540  0.00  0.00    -0.266 N 
ATOM     30  C   UNL     1      33.478 -19.068 -21.246  0.00  0.00    +0.085 C 
ATOM     31  C   UNL     1      33.641 -20.121 -20.161  0.00  0.00    +0.082 C 
ATOM     32  C   UNL     1      35.583 -18.789 -20.215  0.00  0.00    +0.311 C 
ATOM     33  H   UNL     1      35.250 -20.273 -18.739  0.00  0.00    +0.157 HD
ENDBRANCH  26  28
ENDBRANCH  25  26
ENDBRANCH  18  25
ENDBRANCH   3  19
TORSDOF 5
ENDMDL
MODEL 8
REMARK VINA RESULT:      -9.8      8.824     15.139
REMARK  Name = 60149
REMARK  5 active torsions:
REMARK  status: ('A' for Active; 'I' for Inactive)
REMARK    1  A    between atoms: N_2  and  C_12
REMARK    2  A    between atoms: C_3  and  C_19
REMARK    3  A    between atoms: N_18  and  C_25
REMARK    4  A    between atoms: C_25  and  C_26
REMARK    5  A    between atoms: C_26  and  N_28
REMARK                            x       y       z     vdW  Elec       q    Type
REMARK                         _______ _______ _______ _____ _____    ______ ____
ROOT
ATOM      1 CL   UNL     1      35.406  -7.017 -27.419  0.00  0.00    -0.082 Cl
ATOM      2  N   UNL     1      32.328  -7.962 -22.544  0.00  0.00    -0.265 N 
ATOM      3  C   UNL     1      33.023  -9.793 -23.577  0.00  0.00    -0.006 C 
ATOM      4  C   UNL     1      33.472  -8.671 -24.323  0.00  0.00    +0.012 C 
ATOM      5  C   UNL     1      32.323  -9.330 -22.491  0.00  0.00    +0.065 C 
ATOM      6  C   UNL     1      33.023  -7.532 -23.652  0.00  0.00    +0.055 C 
ATOM      7  C   UNL     1      34.221  -8.511 -25.506  0.00  0.00    +0.012 C 
ATOM      8  C   UNL     1      33.286  -6.235 -24.107  0.00  0.00    +0.016 C 
ATOM      9  C   UNL     1      34.490  -7.220 -25.973  0.00  0.00    +0.058 C 
ATOM     10  C   UNL     1      34.029  -6.101 -25.283  0.00  0.00    +0.013 C 
ENDROOT
BRANCH   2  12
ATOM     11  F   UNL     1      29.899  -4.718 -18.808  0.00  0.00    -0.204 F 
ATOM     12  C   UNL     1      31.712  -7.139 -21.596  0.00  0.00    +0.056 C 
ATOM     13  C   UNL     1      32.239  -7.060 -20.316  0.00  0.00    +0.017 C 
ATOM     14  C   UNL     1      30.584  -6.415 -21.953  0.00  0.00    +0.017 C 
ATOM     15  C   UNL     1      31.623  -6.240 -19.369  0.00  0.00    +0.031 C 
ATOM     16  C   UNL     1      29.968  -5.594 -21.007  0.00  0.00    +0.031 C 
ATOM     17  C   UNL     1      30.489  -5.506 -19.715  0.00  0.00    +0.140 C 
ENDBRANCH   2  12
BRANCH   3  19
ATOM     18  N   UNL     1      32.431 -14.048 -24.163  0.00  0.00    +0.388 N 
ATOM     19  C   UNL     1      33.265 -11.247 -23.912  0.00  0.00    +0.019 C 
ATOM     20  C   UNL     1      33.103 -12.173 -22.696  0.00  0.00    -0.018 C 
ATOM     21  C   UNL     1      32.381 -11.746 -25.067  0.00  0.00    -0.018 C 
ATOM     22  C   UNL     1      33.332 -13.637 -23.078  0.00  0.00    -0.077 C 
ATOM     23  C   UNL     1      32.635 -13.226 -25.362  0.00  0.00    -0.077 C 
ATOM     24  H   UNL     1      31.472 -13.910 -23.846  0.00  0.00    -0.080 HD
BRANCH  18  25
ATOM     25  C   UNL     1      32.622 -15.465 -24.476  0.00  0.00    -0.055 C 
BRANCH  25  26
ATOM     26  C   UNL     1      34.023 -15.909 -24.082  0.00  0.00    +0.077 C 
BRANCH  26  28
ATOM     27  O   UNL     1      32.817 -18.658 -24.239  0.00  0.00    -0.252 OA
ATOM     28  N   UNL     1      33.979 -16.953 -23.094  0.00  0.00    -0.243 N 
ATOM     29  N   UNL     1      33.612 -18.926 -22.054  0.00  0.00    -0.266 N 
ATOM     30  C   UNL     1      34.634 -16.830 -21.804  0.00  0.00    +0.085 C 
ATOM     31  C   UNL     1      34.282 -18.114 -21.070  0.00  0.00    +0.082 C 
ATOM     32  C   UNL     1      33.398 -18.226 -23.251  0.00  0.00    +0.311 C 
ATOM     33  H   UNL     1      33.337 -19.860 -21.903  0.00  0.00    +0.157 HD
ENDBRANCH  26  28
ENDBRANCH  25  26
ENDBRANCH  18  25
ENDBRANCH   3  19
TORSDOF 5
ENDMDL
MODEL 9
REMARK VINA RESULT:      -9.8      8.870     12.954
REMARK  Name = 60149
REMARK  5 active torsions:
REMARK  status: ('A' for Active; 'I' for Inactive)
REMARK    1  A    between atoms: N_2  and  C_12
REMARK    2  A    between atoms: C_3  and  C_19
REMARK    3  A    between atoms: N_18  and  C_25
REMARK    4  A    between atoms: C_25  and  C_26
REMARK    5  A    between atoms: C_26  and  N_28
REMARK                            x       y       z     vdW  Elec       q    Type
REMARK                         _______ _______ _______ _____ _____    ______ ____
ROOT
ATOM      1 CL   UNL     1      30.093 -10.114 -18.976  0.00  0.00    -0.082 Cl
ATOM      2  N   UNL     1      33.086 -13.534 -22.648  0.00  0.00    -0.265 N 
ATOM      3  C   UNL     1      32.874 -11.428 -23.299  0.00  0.00    -0.006 C 
ATOM      4  C   UNL     1      32.213 -11.570 -22.050  0.00  0.00    +0.012 C 
ATOM      5  C   UNL     1      33.400 -12.648 -23.642  0.00  0.00    +0.065 C 
ATOM      6  C   UNL     1      32.361 -12.903 -21.662  0.00  0.00    +0.055 C 
ATOM      7  C   UNL     1      31.500 -10.693 -21.208  0.00  0.00    +0.012 C 
ATOM      8  C   UNL     1      31.830 -13.404 -20.468  0.00  0.00    +0.016 C 
ATOM      9  C   UNL     1      30.964 -11.181 -20.012  0.00  0.00    +0.058 C 
ATOM     10  C   UNL     1      31.127 -12.517 -19.649  0.00  0.00    +0.013 C 
ENDROOT
BRANCH   2  12
ATOM     11  F   UNL     1      34.561 -18.844 -22.661  0.00  0.00    -0.204 F 
ATOM     12  C   UNL     1      33.460 -14.881 -22.651  0.00  0.00    +0.056 C 
ATOM     13  C   UNL     1      33.290 -15.633 -23.804  0.00  0.00    +0.017 C 
ATOM     14  C   UNL     1      33.995 -15.443 -21.501  0.00  0.00    +0.017 C 
ATOM     15  C   UNL     1      33.662 -16.978 -23.807  0.00  0.00    +0.031 C 
ATOM     16  C   UNL     1      34.367 -16.787 -21.504  0.00  0.00    +0.031 C 
ATOM     17  C   UNL     1      34.202 -17.555 -22.657  0.00  0.00    +0.140 C 
ENDBRANCH   2  12
BRANCH   3  19
ATOM     18  N   UNL     1      33.445  -7.281 -24.427  0.00  0.00    +0.388 N 
ATOM     19  C   UNL     1      32.982 -10.161 -24.116  0.00  0.00    +0.019 C 
ATOM     20  C   UNL     1      31.933  -9.108 -23.723  0.00  0.00    -0.018 C 
ATOM     21  C   UNL     1      34.387  -9.539 -24.064  0.00  0.00    -0.018 C 
ATOM     22  C   UNL     1      32.088  -7.832 -24.553  0.00  0.00    -0.077 C 
ATOM     23  C   UNL     1      34.454  -8.246 -24.881  0.00  0.00    -0.077 C 
ATOM     24  H   UNL     1      33.615  -7.086 -23.441  0.00  0.00    -0.080 HD
BRANCH  18  25
ATOM     25  C   UNL     1      33.559  -6.030 -25.180  0.00  0.00    -0.055 C 
BRANCH  25  26
ATOM     26  C   UNL     1      33.516  -4.839 -24.234  0.00  0.00    +0.077 C 
BRANCH  26  28
ATOM     27  O   UNL     1      31.692  -3.409 -26.148  0.00  0.00    -0.252 OA
ATOM     28  N   UNL     1      32.169  -4.372 -24.047  0.00  0.00    -0.243 N 
ATOM     29  N   UNL     1      30.127  -3.470 -24.408  0.00  0.00    -0.266 N 
ATOM     30  C   UNL     1      31.423  -4.618 -22.825  0.00  0.00    +0.085 C 
ATOM     31  C   UNL     1      30.096  -3.906 -23.035  0.00  0.00    +0.082 C 
ATOM     32  C   UNL     1      31.373  -3.715 -25.005  0.00  0.00    +0.311 C 
ATOM     33  H   UNL     1      29.366  -3.050 -24.870  0.00  0.00    +0.157 HD
ENDBRANCH  26  28
ENDBRANCH  25  26
ENDBRANCH  18  25
ENDBRANCH   3  19
TORSDOF 5
ENDMDL
