MODEL 1
REMARK VINA RESULT:     -12.2      0.000      0.000
REMARK  Name = 216239
REMARK  6 active torsions:
REMARK  status: ('A' for Active; 'I' for Inactive)
REMARK    1  A    between atoms: C_1  and  N_9
REMARK    2  A    between atoms: C_2  and  O_24
REMARK    3  A    between atoms: N_8  and  C_14
REMARK    4  A    between atoms: C_15  and  C_23
REMARK    5  A    between atoms: O_24  and  C_26
REMARK    6  A    between atoms: C_28  and  C_33
REMARK                            x       y       z     vdW  Elec       q    Type
REMARK                         _______ _______ _______ _____ _____    ______ ____
ROOT
ATOM      1  C   UNL     1      33.086 -13.574 -22.781  0.00  0.00    +0.052 C 
ATOM      2  C   UNL     1      33.792 -16.239 -23.049  0.00  0.00    +0.145 C 
ATOM      3  C   UNL     1      33.759 -14.204 -21.748  0.00  0.00    +0.018 C 
ATOM      4  C   UNL     1      32.757 -14.248 -23.946  0.00  0.00    +0.018 C 
ATOM      5  C   UNL     1      34.115 -15.546 -21.883  0.00  0.00    +0.039 C 
ATOM      6  C   UNL     1      33.112 -15.590 -24.081  0.00  0.00    +0.039 C 
ENDROOT
BRANCH   1   9
ATOM      7  O   UNL     1      33.969 -11.181 -24.334  0.00  0.00    -0.252 OA
ATOM      8  N   UNL     1      32.565  -9.927 -22.940  0.00  0.00    -0.268 N 
ATOM      9  N   UNL     1      32.726 -12.213 -22.643  0.00  0.00    -0.268 N 
ATOM     10  C   UNL     1      33.172 -11.120 -23.405  0.00  0.00    +0.308 C 
ATOM     11  H   UNL     1      31.945 -10.031 -22.182  0.00  0.00    +0.156 HD
ATOM     12  H   UNL     1      32.084 -12.006 -21.927  0.00  0.00    +0.156 HD
BRANCH   8  14
ATOM     13 CL   UNL     1      33.293  -4.401 -24.904  0.00  0.00    -0.082 Cl
ATOM     14  C   UNL     1      32.730  -8.625 -23.411  0.00  0.00    +0.052 C 
ATOM     15  C   UNL     1      32.115  -6.859 -24.940  0.00  0.00    +0.083 C 
ATOM     16  C   UNL     1      31.951  -8.161 -24.470  0.00  0.00    +0.019 C 
ATOM     17  C   UNL     1      33.677  -7.786 -22.822  0.00  0.00    +0.016 C 
ATOM     18  C   UNL     1      33.062  -6.019 -24.351  0.00  0.00    +0.062 C 
ATOM     19  C   UNL     1      33.841  -6.483 -23.292  0.00  0.00    +0.013 C 
BRANCH  15  23
ATOM     20  F   UNL     1      30.444  -5.353 -25.753  0.00  0.00    -0.166 F 
ATOM     21  F   UNL     1      31.972  -5.978 -27.160  0.00  0.00    -0.166 F 
ATOM     22  F   UNL     1      30.432  -7.382 -26.536  0.00  0.00    -0.166 F 
ATOM     23  C   UNL     1      31.258  -6.399 -26.075  0.00  0.00    +0.419 C 
ENDBRANCH  15  23
ENDBRANCH   8  14
ENDBRANCH   1   9
BRANCH   2  24
ATOM     24  O   UNL     1      34.137 -17.549 -23.181  0.00  0.00    -0.453 OA
BRANCH  24  26
ATOM     25  N   UNL     1      35.135 -19.640 -19.730  0.00  0.00    -0.239 NA
ATOM     26  C   UNL     1      34.468 -18.245 -22.031  0.00  0.00    +0.149 C 
ATOM     27  C   UNL     1      33.497 -18.977 -21.382  0.00  0.00    +0.061 C 
ATOM     28  C   UNL     1      33.881 -19.657 -20.237  0.00  0.00    +0.137 C 
ATOM     29  C   UNL     1      35.764 -18.191 -21.561  0.00  0.00    +0.058 C 
ATOM     30  C   UNL     1      36.045 -18.906 -20.407  0.00  0.00    +0.102 C 
BRANCH  28  33
ATOM     31  O   UNL     1      31.698 -20.362 -19.749  0.00  0.00    -0.268 OA
ATOM     32  N   UNL     1      33.417 -21.321 -18.523  0.00  0.00    -0.298 N 
ATOM     33  C   UNL     1      32.914 -20.451 -19.498  0.00  0.00    +0.264 C 
ATOM     34  C   UNL     1      32.584 -22.191 -17.722  0.00  0.00    +0.111 C 
ATOM     35  H   UNL     1      34.390 -21.341 -18.374  0.00  0.00    +0.150 HD
ENDBRANCH  28  33
ENDBRANCH  24  26
ENDBRANCH   2  24
TORSDOF 6
ENDMDL
MODEL 2
REMARK VINA RESULT:     -11.8      6.005      9.989
REMARK  Name = 216239
REMARK  6 active torsions:
REMARK  status: ('A' for Active; 'I' for Inactive)
REMARK    1  A    between atoms: C_1  and  N_9
REMARK    2  A    between atoms: C_2  and  O_24
REMARK    3  A    between atoms: N_8  and  C_14
REMARK    4  A    between atoms: C_15  and  C_23
REMARK    5  A    between atoms: O_24  and  C_26
REMARK    6  A    between atoms: C_28  and  C_33
REMARK                            x       y       z     vdW  Elec       q    Type
REMARK                         _______ _______ _______ _____ _____    ______ ____
ROOT
ATOM      1  C   UNL     1      34.109 -21.635 -17.815  0.00  0.00    +0.052 C 
ATOM      2  C   UNL     1      33.307 -23.169 -15.652  0.00  0.00    +0.145 C 
ATOM      3  C   UNL     1      34.896 -21.665 -16.676  0.00  0.00    +0.018 C 
ATOM      4  C   UNL     1      32.930 -22.356 -17.896  0.00  0.00    +0.018 C 
ATOM      5  C   UNL     1      34.492 -22.437 -15.587  0.00  0.00    +0.039 C 
ATOM      6  C   UNL     1      32.525 -23.128 -16.807  0.00  0.00    +0.039 C 
ENDROOT
BRANCH   1   9
ATOM      7  O   UNL     1      32.551 -19.737 -19.514  0.00  0.00    -0.252 OA
ATOM      8  N   UNL     1      34.539 -19.382 -20.702  0.00  0.00    -0.268 N 
ATOM      9  N   UNL     1      34.519 -20.852 -18.919  0.00  0.00    -0.268 N 
ATOM     10  C   UNL     1      33.743 -19.969 -19.688  0.00  0.00    +0.308 C 
ATOM     11  H   UNL     1      35.482 -19.665 -20.721  0.00  0.00    +0.156 HD
ATOM     12  H   UNL     1      35.464 -20.934 -19.180  0.00  0.00    +0.156 HD
BRANCH   8  14
ATOM     13 CL   UNL     1      32.958 -15.498 -24.866  0.00  0.00    -0.082 Cl
ATOM     14  C   UNL     1      34.166 -18.458 -21.677  0.00  0.00    +0.052 C 
ATOM     15  C   UNL     1      33.707 -16.179 -22.335  0.00  0.00    +0.083 C 
ATOM     16  C   UNL     1      34.079 -17.103 -21.359  0.00  0.00    +0.019 C 
ATOM     17  C   UNL     1      33.879 -18.890 -22.973  0.00  0.00    +0.016 C 
ATOM     18  C   UNL     1      33.419 -16.611 -23.631  0.00  0.00    +0.062 C 
ATOM     19  C   UNL     1      33.506 -17.966 -23.949  0.00  0.00    +0.013 C 
BRANCH  15  23
ATOM     20  F   UNL     1      34.424 -13.929 -22.714  0.00  0.00    -0.166 F 
ATOM     21  F   UNL     1      32.373 -14.211 -22.066  0.00  0.00    -0.166 F 
ATOM     22  F   UNL     1      34.006 -14.516 -20.663  0.00  0.00    -0.166 F 
ATOM     23  C   UNL     1      33.628 -14.736 -21.955  0.00  0.00    +0.419 C 
ENDBRANCH  15  23
ENDBRANCH   8  14
ENDBRANCH   1   9
BRANCH   2  24
ATOM     24  O   UNL     1      32.912 -23.921 -14.589  0.00  0.00    -0.453 OA
BRANCH  24  26
ATOM     25  N   UNL     1      35.791 -24.944 -11.772  0.00  0.00    -0.239 NA
ATOM     26  C   UNL     1      33.871 -24.263 -13.651  0.00  0.00    +0.149 C 
ATOM     27  C   UNL     1      35.017 -24.909 -14.063  0.00  0.00    +0.061 C 
ATOM     28  C   UNL     1      35.947 -25.227 -13.086  0.00  0.00    +0.137 C 
ATOM     29  C   UNL     1      33.659 -23.949 -12.325  0.00  0.00    +0.058 C 
ATOM     30  C   UNL     1      34.649 -24.312 -11.426  0.00  0.00    +0.102 C 
BRANCH  28  33
ATOM     31  O   UNL     1      37.150 -27.016 -14.009  0.00  0.00    -0.268 OA
ATOM     32  N   UNL     1      38.379 -25.252 -13.140  0.00  0.00    -0.298 N 
ATOM     33  C   UNL     1      37.180 -25.908 -13.442  0.00  0.00    +0.264 C 
ATOM     34  C   UNL     1      39.685 -25.789 -13.453  0.00  0.00    +0.111 C 
ATOM     35  H   UNL     1      38.331 -24.377 -12.690  0.00  0.00    +0.150 HD
ENDBRANCH  28  33
ENDBRANCH  24  26
ENDBRANCH   2  24
TORSDOF 6
ENDMDL
MODEL 3
REMARK VINA RESULT:     -11.7      5.475      8.949
REMARK  Name = 216239
REMARK  6 active torsions:
REMARK  status: ('A' for Active; 'I' for Inactive)
REMARK    1  A    between atoms: C_1  and  N_9
REMARK    2  A    between atoms: C_2  and  O_24
REMARK    3  A    between atoms: N_8  and  C_14
REMARK    4  A    between atoms: C_15  and  C_23
REMARK    5  A    between atoms: O_24  and  C_26
REMARK    6  A    between atoms: C_28  and  C_33
REMARK                            x       y       z     vdW  Elec       q    Type
REMARK                         _______ _______ _______ _____ _____    ______ ____
ROOT
ATOM      1  C   UNL     1      34.503 -21.093 -18.451  0.00  0.00    +0.052 C 
ATOM      2  C   UNL     1      33.829 -22.854 -16.422  0.00  0.00    +0.145 C 
ATOM      3  C   UNL     1      33.301 -21.777 -18.519  0.00  0.00    +0.018 C 
ATOM      4  C   UNL     1      35.376 -21.270 -17.391  0.00  0.00    +0.018 C 
ATOM      5  C   UNL     1      32.962 -22.663 -17.497  0.00  0.00    +0.039 C 
ATOM      6  C   UNL     1      35.037 -22.158 -16.369  0.00  0.00    +0.039 C 
ENDROOT
BRANCH   1   9
ATOM      7  O   UNL     1      32.785 -19.239 -20.042  0.00  0.00    -0.252 OA
ATOM      8  N   UNL     1      34.742 -18.603 -21.161  0.00  0.00    -0.268 N 
ATOM      9  N   UNL     1      34.847 -20.194 -19.488  0.00  0.00    -0.268 N 
ATOM     10  C   UNL     1      33.995 -19.339 -20.208  0.00  0.00    +0.308 C 
ATOM     11  H   UNL     1      35.709 -18.789 -21.182  0.00  0.00    +0.156 HD
ATOM     12  H   UNL     1      35.798 -20.163 -19.736  0.00  0.00    +0.156 HD
BRANCH   8  14
ATOM     13 CL   UNL     1      32.833 -14.600 -25.068  0.00  0.00    -0.082 Cl
ATOM     14  C   UNL     1      34.291 -17.651 -22.075  0.00  0.00    +0.052 C 
ATOM     15  C   UNL     1      33.625 -15.385 -22.580  0.00  0.00    +0.083 C 
ATOM     16  C   UNL     1      34.075 -16.336 -21.665  0.00  0.00    +0.019 C 
ATOM     17  C   UNL     1      34.055 -18.017 -23.401  0.00  0.00    +0.016 C 
ATOM     18  C   UNL     1      33.389 -15.749 -23.906  0.00  0.00    +0.062 C 
ATOM     19  C   UNL     1      33.605 -17.065 -24.316  0.00  0.00    +0.013 C 
BRANCH  15  23
ATOM     20  F   UNL     1      33.799 -13.786 -20.810  0.00  0.00    -0.166 F 
ATOM     21  F   UNL     1      34.083 -13.051 -22.831  0.00  0.00    -0.166 F 
ATOM     22  F   UNL     1      32.096 -13.615 -22.151  0.00  0.00    -0.166 F 
ATOM     23  C   UNL     1      33.408 -13.986 -22.102  0.00  0.00    +0.419 C 
ENDBRANCH  15  23
ENDBRANCH   8  14
ENDBRANCH   1   9
BRANCH   2  24
ATOM     24  O   UNL     1      33.499 -23.720 -15.426  0.00  0.00    -0.453 OA
BRANCH  24  26
ATOM     25  N   UNL     1      30.026 -22.959 -13.274  0.00  0.00    -0.239 NA
ATOM     26  C   UNL     1      32.342 -23.465 -14.709  0.00  0.00    +0.149 C 
ATOM     27  C   UNL     1      31.200 -23.088 -15.383  0.00  0.00    +0.061 C 
ATOM     28  C   UNL     1      30.069 -22.847 -14.621  0.00  0.00    +0.137 C 
ATOM     29  C   UNL     1      32.357 -23.596 -13.337  0.00  0.00    +0.058 C 
ATOM     30  C   UNL     1      31.174 -23.331 -12.665  0.00  0.00    +0.102 C 
BRANCH  28  33
ATOM     31  O   UNL     1      28.815 -22.091 -16.452  0.00  0.00    -0.268 OA
ATOM     32  N   UNL     1      27.664 -22.500 -14.481  0.00  0.00    -0.298 N 
ATOM     33  C   UNL     1      28.827 -22.445 -15.259  0.00  0.00    +0.264 C 
ATOM     34  C   UNL     1      26.352 -22.155 -14.980  0.00  0.00    +0.111 C 
ATOM     35  H   UNL     1      27.745 -22.789 -13.543  0.00  0.00    +0.150 HD
ENDBRANCH  28  33
ENDBRANCH  24  26
ENDBRANCH   2  24
TORSDOF 6
ENDMDL
MODEL 4
REMARK VINA RESULT:     -11.5      1.326      1.636
REMARK  Name = 216239
REMARK  6 active torsions:
REMARK  status: ('A' for Active; 'I' for Inactive)
REMARK    1  A    between atoms: C_1  and  N_9
REMARK    2  A    between atoms: C_2  and  O_24
REMARK    3  A    between atoms: N_8  and  C_14
REMARK    4  A    between atoms: C_15  and  C_23
REMARK    5  A    between atoms: O_24  and  C_26
REMARK    6  A    between atoms: C_28  and  C_33
REMARK                            x       y       z     vdW  Elec       q    Type
REMARK                         _______ _______ _______ _____ _____    ______ ____
ROOT
ATOM      1  C   UNL     1      32.979 -13.644 -22.596  0.00  0.00    +0.052 C 
ATOM      2  C   UNL     1      33.816 -16.265 -22.918  0.00  0.00    +0.145 C 
ATOM      3  C   UNL     1      33.663 -14.268 -21.566  0.00  0.00    +0.018 C 
ATOM      4  C   UNL     1      32.704 -14.302 -23.783  0.00  0.00    +0.018 C 
ATOM      5  C   UNL     1      34.085 -15.588 -21.729  0.00  0.00    +0.039 C 
ATOM      6  C   UNL     1      33.125 -15.622 -23.945  0.00  0.00    +0.039 C 
ENDROOT
BRANCH   1   9
ATOM      7  O   UNL     1      33.854 -11.156 -23.997  0.00  0.00    -0.252 OA
ATOM      8  N   UNL     1      32.312 -10.018 -22.650  0.00  0.00    -0.268 N 
ATOM      9  N   UNL     1      32.552 -12.306 -22.430  0.00  0.00    -0.268 N 
ATOM     10  C   UNL     1      32.998 -11.165 -23.119  0.00  0.00    +0.308 C 
ATOM     11  H   UNL     1      31.650 -10.178 -21.939  0.00  0.00    +0.156 HD
ATOM     12  H   UNL     1      31.858 -12.154 -21.750  0.00  0.00    +0.156 HD
BRANCH   8  14
ATOM     13 CL   UNL     1      32.934  -4.410 -24.407  0.00  0.00    -0.082 Cl
ATOM     14  C   UNL     1      32.449  -8.692 -23.061  0.00  0.00    +0.052 C 
ATOM     15  C   UNL     1      31.640  -6.416 -23.093  0.00  0.00    +0.083 C 
ATOM     16  C   UNL     1      31.501  -7.742 -22.683  0.00  0.00    +0.019 C 
ATOM     17  C   UNL     1      33.537  -8.317 -23.849  0.00  0.00    +0.016 C 
ATOM     18  C   UNL     1      32.728  -6.040 -23.882  0.00  0.00    +0.062 C 
ATOM     19  C   UNL     1      33.676  -6.991 -24.259  0.00  0.00    +0.013 C 
BRANCH  15  23
ATOM     20  F   UNL     1      29.638  -5.965 -21.864  0.00  0.00    -0.166 F 
ATOM     21  F   UNL     1      31.112  -4.376 -21.961  0.00  0.00    -0.166 F 
ATOM     22  F   UNL     1      29.940  -4.878 -23.723  0.00  0.00    -0.166 F 
ATOM     23  C   UNL     1      30.603  -5.428 -22.666  0.00  0.00    +0.419 C 
ENDBRANCH  15  23
ENDBRANCH   8  14
ENDBRANCH   1   9
BRANCH   2  24
ATOM     24  O   UNL     1      34.226 -17.553 -23.076  0.00  0.00    -0.453 OA
BRANCH  24  26
ATOM     25  N   UNL     1      35.112 -19.733 -19.650  0.00  0.00    -0.239 NA
ATOM     26  C   UNL     1      34.520 -18.279 -21.934  0.00  0.00    +0.149 C 
ATOM     27  C   UNL     1      33.520 -18.999 -21.316  0.00  0.00    +0.061 C 
ATOM     28  C   UNL     1      33.867 -19.709 -20.178  0.00  0.00    +0.137 C 
ATOM     29  C   UNL     1      35.808 -18.266 -21.441  0.00  0.00    +0.058 C 
ATOM     30  C   UNL     1      36.052 -19.008 -20.297  0.00  0.00    +0.102 C 
BRANCH  28  33
ATOM     31  O   UNL     1      31.660 -20.374 -19.746  0.00  0.00    -0.268 OA
ATOM     32  N   UNL     1      33.332 -21.388 -18.500  0.00  0.00    -0.298 N 
ATOM     33  C   UNL     1      32.868 -20.493 -19.471  0.00  0.00    +0.264 C 
ATOM     34  C   UNL     1      32.465 -22.252 -17.730  0.00  0.00    +0.111 C 
ATOM     35  H   UNL     1      34.301 -21.432 -18.331  0.00  0.00    +0.150 HD
ENDBRANCH  28  33
ENDBRANCH  24  26
ENDBRANCH   2  24
TORSDOF 6
ENDMDL
MODEL 5
REMARK VINA RESULT:     -11.5      2.503      3.512
REMARK  Name = 216239
REMARK  6 active torsions:
REMARK  status: ('A' for Active; 'I' for Inactive)
REMARK    1  A    between atoms: C_1  and  N_9
REMARK    2  A    between atoms: C_2  and  O_24
REMARK    3  A    between atoms: N_8  and  C_14
REMARK    4  A    between atoms: C_15  and  C_23
REMARK    5  A    between atoms: O_24  and  C_26
REMARK    6  A    between atoms: C_28  and  C_33
REMARK                            x       y       z     vdW  Elec       q    Type
REMARK                         _______ _______ _______ _____ _____    ______ ____
ROOT
ATOM      1  C   UNL     1      33.893 -15.911 -22.570  0.00  0.00    +0.052 C 
ATOM      2  C   UNL     1      34.583 -18.320 -21.390  0.00  0.00    +0.145 C 
ATOM      3  C   UNL     1      34.229 -15.936 -21.227  0.00  0.00    +0.018 C 
ATOM      4  C   UNL     1      33.894 -17.064 -23.337  0.00  0.00    +0.018 C 
ATOM      5  C   UNL     1      34.577 -17.149 -20.633  0.00  0.00    +0.039 C 
ATOM      6  C   UNL     1      34.241 -18.278 -22.742  0.00  0.00    +0.039 C 
ENDROOT
BRANCH   1   9
ATOM      7  O   UNL     1      34.059 -13.127 -21.502  0.00  0.00    -0.252 OA
ATOM      8  N   UNL     1      33.180 -12.431 -23.558  0.00  0.00    -0.268 N 
ATOM      9  N   UNL     1      33.540 -14.680 -23.172  0.00  0.00    -0.268 N 
ATOM     10  C   UNL     1      33.639 -13.390 -22.623  0.00  0.00    +0.308 C 
ATOM     11  H   UNL     1      32.870 -12.790 -24.422  0.00  0.00    +0.156 HD
ATOM     12  H   UNL     1      33.182 -14.733 -24.086  0.00  0.00    +0.156 HD
BRANCH   8  14
ATOM     13 CL   UNL     1      32.906  -6.554 -22.997  0.00  0.00    -0.082 Cl
ATOM     14  C   UNL     1      33.107 -11.045 -23.420  0.00  0.00    +0.052 C 
ATOM     15  C   UNL     1      32.074  -9.090 -22.446  0.00  0.00    +0.083 C 
ATOM     16  C   UNL     1      32.146 -10.476 -22.585  0.00  0.00    +0.019 C 
ATOM     17  C   UNL     1      33.996 -10.227 -24.118  0.00  0.00    +0.016 C 
ATOM     18  C   UNL     1      32.963  -8.272 -23.144  0.00  0.00    +0.062 C 
ATOM     19  C   UNL     1      33.924  -8.842 -23.980  0.00  0.00    +0.013 C 
BRANCH  15  23
ATOM     20  F   UNL     1      31.543  -7.726 -20.554  0.00  0.00    -0.166 F 
ATOM     21  F   UNL     1      30.113  -7.744 -22.186  0.00  0.00    -0.166 F 
ATOM     22  F   UNL     1      30.313  -9.486 -20.899  0.00  0.00    -0.166 F 
ATOM     23  C   UNL     1      31.031  -8.520 -21.539  0.00  0.00    +0.419 C 
ENDBRANCH  15  23
ENDBRANCH   8  14
ENDBRANCH   1   9
BRANCH   2  24
ATOM     24  O   UNL     1      34.920 -19.504 -20.811  0.00  0.00    -0.453 OA
BRANCH  24  26
ATOM     25  N   UNL     1      32.112 -21.308 -18.334  0.00  0.00    -0.239 NA
ATOM     26  C   UNL     1      33.985 -20.106 -19.986  0.00  0.00    +0.149 C 
ATOM     27  C   UNL     1      34.416 -20.909 -18.951  0.00  0.00    +0.061 C 
ATOM     28  C   UNL     1      33.441 -21.486 -18.154  0.00  0.00    +0.137 C 
ATOM     29  C   UNL     1      32.643 -19.887 -20.217  0.00  0.00    +0.058 C 
ATOM     30  C   UNL     1      31.748 -20.511 -19.363  0.00  0.00    +0.102 C 
BRANCH  28  33
ATOM     31  O   UNL     1      33.165 -23.376 -16.793  0.00  0.00    -0.268 OA
ATOM     32  N   UNL     1      34.943 -21.970 -16.302  0.00  0.00    -0.298 N 
ATOM     33  C   UNL     1      33.816 -22.345 -17.044  0.00  0.00    +0.264 C 
ATOM     34  C   UNL     1      35.454 -22.733 -15.185  0.00  0.00    +0.111 C 
ATOM     35  H   UNL     1      35.412 -21.142 -16.553  0.00  0.00    +0.150 HD
ENDBRANCH  28  33
ENDBRANCH  24  26
ENDBRANCH   2  24
TORSDOF 6
ENDMDL
MODEL 6
REMARK VINA RESULT:     -11.2      6.443     11.610
REMARK  Name = 216239
REMARK  6 active torsions:
REMARK  status: ('A' for Active; 'I' for Inactive)
REMARK    1  A    between atoms: C_1  and  N_9
REMARK    2  A    between atoms: C_2  and  O_24
REMARK    3  A    between atoms: N_8  and  C_14
REMARK    4  A    between atoms: C_15  and  C_23
REMARK    5  A    between atoms: O_24  and  C_26
REMARK    6  A    between atoms: C_28  and  C_33
REMARK                            x       y       z     vdW  Elec       q    Type
REMARK                         _______ _______ _______ _____ _____    ______ ____
ROOT
ATOM      1  C   UNL     1      33.306 -14.651 -23.777  0.00  0.00    +0.052 C 
ATOM      2  C   UNL     1      32.778 -12.047 -24.560  0.00  0.00    +0.145 C 
ATOM      3  C   UNL     1      32.820 -14.412 -25.051  0.00  0.00    +0.018 C 
ATOM      4  C   UNL     1      33.533 -13.616 -22.885  0.00  0.00    +0.018 C 
ATOM      5  C   UNL     1      32.554 -13.100 -25.445  0.00  0.00    +0.039 C 
ATOM      6  C   UNL     1      33.266 -12.304 -23.279  0.00  0.00    +0.039 C 
ENDROOT
BRANCH   1   9
ATOM      7  O   UNL     1      34.105 -15.737 -21.112  0.00  0.00    -0.252 OA
ATOM      8  N   UNL     1      34.122 -17.847 -22.130  0.00  0.00    -0.268 N 
ATOM      9  N   UNL     1      33.575 -15.981 -23.377  0.00  0.00    -0.268 N 
ATOM     10  C   UNL     1      33.949 -16.441 -22.104  0.00  0.00    +0.308 C 
ATOM     11  H   UNL     1      33.963 -18.281 -22.999  0.00  0.00    +0.156 HD
ATOM     12  H   UNL     1      33.490 -16.668 -24.076  0.00  0.00    +0.156 HD
BRANCH   8  14
ATOM     13 CL   UNL     1      35.722 -21.443 -17.720  0.00  0.00    -0.082 Cl
ATOM     14  C   UNL     1      34.490 -18.699 -21.088  0.00  0.00    +0.052 C 
ATOM     15  C   UNL     1      33.927 -20.437 -19.508  0.00  0.00    +0.083 C 
ATOM     16  C   UNL     1      33.558 -19.585 -20.548  0.00  0.00    +0.019 C 
ATOM     17  C   UNL     1      35.792 -18.664 -20.586  0.00  0.00    +0.016 C 
ATOM     18  C   UNL     1      35.228 -20.402 -19.005  0.00  0.00    +0.062 C 
ATOM     19  C   UNL     1      36.160 -19.516 -19.546  0.00  0.00    +0.013 C 
BRANCH  15  23
ATOM     20  F   UNL     1      32.656 -21.194 -17.628  0.00  0.00    -0.166 F 
ATOM     21  F   UNL     1      31.682 -21.262 -19.565  0.00  0.00    -0.166 F 
ATOM     22  F   UNL     1      33.261 -22.682 -19.094  0.00  0.00    -0.166 F 
ATOM     23  C   UNL     1      32.899 -21.374 -18.958  0.00  0.00    +0.419 C 
ENDBRANCH  15  23
ENDBRANCH   8  14
ENDBRANCH   1   9
BRANCH   2  24
ATOM     24  O   UNL     1      32.517 -10.768 -24.944  0.00  0.00    -0.453 OA
BRANCH  24  26
ATOM     25  N   UNL     1      33.775  -7.705 -22.432  0.00  0.00    -0.239 NA
ATOM     26  C   UNL     1      32.935  -9.747 -24.108  0.00  0.00    +0.149 C 
ATOM     27  C   UNL     1      32.050  -9.221 -23.191  0.00  0.00    +0.061 C 
ATOM     28  C   UNL     1      32.518  -8.202 -22.376  0.00  0.00    +0.137 C 
ATOM     29  C   UNL     1      34.229  -9.279 -24.210  0.00  0.00    +0.058 C 
ATOM     30  C   UNL     1      34.598  -8.257 -23.350  0.00  0.00    +0.102 C 
BRANCH  28  33
ATOM     31  O   UNL     1      30.410  -7.612 -21.537  0.00  0.00    -0.268 OA
ATOM     32  N   UNL     1      32.256  -7.030 -20.260  0.00  0.00    -0.298 N 
ATOM     33  C   UNL     1      31.645  -7.597 -21.385  0.00  0.00    +0.264 C 
ATOM     34  C   UNL     1      31.522  -6.412 -19.178  0.00  0.00    +0.111 C 
ATOM     35  H   UNL     1      33.239  -7.051 -20.203  0.00  0.00    +0.150 HD
ENDBRANCH  28  33
ENDBRANCH  24  26
ENDBRANCH   2  24
TORSDOF 6
ENDMDL
MODEL 7
REMARK VINA RESULT:     -11.2      8.051     12.676
REMARK  Name = 216239
REMARK  6 active torsions:
REMARK  status: ('A' for Active; 'I' for Inactive)
REMARK    1  A    between atoms: C_1  and  N_9
REMARK    2  A    between atoms: C_2  and  O_24
REMARK    3  A    between atoms: N_8  and  C_14
REMARK    4  A    between atoms: C_15  and  C_23
REMARK    5  A    between atoms: O_24  and  C_26
REMARK    6  A    between atoms: C_28  and  C_33
REMARK                            x       y       z     vdW  Elec       q    Type
REMARK                         _______ _______ _______ _____ _____    ______ ____
ROOT
ATOM      1  C   UNL     1      34.330 -18.762 -21.799  0.00  0.00    +0.052 C 
ATOM      2  C   UNL     1      33.678 -16.979 -23.815  0.00  0.00    +0.145 C 
ATOM      3  C   UNL     1      34.849 -17.480 -21.762  0.00  0.00    +0.018 C 
ATOM      4  C   UNL     1      33.492 -19.174 -22.822  0.00  0.00    +0.018 C 
ATOM      5  C   UNL     1      34.520 -16.581 -22.778  0.00  0.00    +0.039 C 
ATOM      6  C   UNL     1      33.164 -18.276 -23.838  0.00  0.00    +0.039 C 
ENDROOT
BRANCH   1   9
ATOM      7  O   UNL     1      32.673 -19.819 -19.550  0.00  0.00    -0.252 OA
ATOM      8  N   UNL     1      34.565 -21.043 -18.911  0.00  0.00    -0.268 N 
ATOM      9  N   UNL     1      34.664 -19.673 -20.769  0.00  0.00    -0.268 N 
ATOM     10  C   UNL     1      33.842 -20.140 -19.729  0.00  0.00    +0.308 C 
ATOM     11  H   UNL     1      35.499 -21.206 -19.176  0.00  0.00    +0.156 HD
ATOM     12  H   UNL     1      35.583 -20.022 -20.781  0.00  0.00    +0.156 HD
BRANCH   8  14
ATOM     13 CL   UNL     1      32.681 -23.961 -14.129  0.00  0.00    -0.082 Cl
ATOM     14  C   UNL     1      34.130 -21.731 -17.778  0.00  0.00    +0.052 C 
ATOM     15  C   UNL     1      34.565 -22.625 -15.576  0.00  0.00    +0.083 C 
ATOM     16  C   UNL     1      35.001 -21.937 -16.709  0.00  0.00    +0.019 C 
ATOM     17  C   UNL     1      32.822 -22.214 -17.716  0.00  0.00    +0.016 C 
ATOM     18  C   UNL     1      33.257 -23.108 -15.514  0.00  0.00    +0.062 C 
ATOM     19  C   UNL     1      32.387 -22.902 -16.584  0.00  0.00    +0.013 C 
BRANCH  15  23
ATOM     20  F   UNL     1      36.729 -22.206 -14.648  0.00  0.00    -0.166 F 
ATOM     21  F   UNL     1      35.072 -22.348 -13.255  0.00  0.00    -0.166 F 
ATOM     22  F   UNL     1      35.819 -24.138 -14.238  0.00  0.00    -0.166 F 
ATOM     23  C   UNL     1      35.528 -22.822 -14.450  0.00  0.00    +0.419 C 
ENDBRANCH  15  23
ENDBRANCH   8  14
ENDBRANCH   1   9
BRANCH   2  24
ATOM     24  O   UNL     1      33.359 -16.103 -24.807  0.00  0.00    -0.453 OA
BRANCH  24  26
ATOM     25  N   UNL     1      32.312 -12.235 -23.705  0.00  0.00    -0.239 NA
ATOM     26  C   UNL     1      33.009 -14.815 -24.439  0.00  0.00    +0.149 C 
ATOM     27  C   UNL     1      32.734 -14.542 -23.116  0.00  0.00    +0.061 C 
ATOM     28  C   UNL     1      32.391 -13.237 -22.800  0.00  0.00    +0.137 C 
ATOM     29  C   UNL     1      32.945 -13.833 -25.405  0.00  0.00    +0.058 C 
ATOM     30  C   UNL     1      32.591 -12.560 -24.986  0.00  0.00    +0.102 C 
BRANCH  28  33
ATOM     31  O   UNL     1      32.528 -13.549 -20.480  0.00  0.00    -0.268 OA
ATOM     32  N   UNL     1      31.308 -11.725 -21.231  0.00  0.00    -0.298 N 
ATOM     33  C   UNL     1      32.087 -12.872 -21.427  0.00  0.00    +0.264 C 
ATOM     34  C   UNL     1      30.942 -11.221 -19.926  0.00  0.00    +0.111 C 
ATOM     35  H   UNL     1      30.991 -11.236 -22.024  0.00  0.00    +0.150 HD
ENDBRANCH  28  33
ENDBRANCH  24  26
ENDBRANCH   2  24
TORSDOF 6
ENDMDL
MODEL 8
REMARK VINA RESULT:     -11.1      9.114     14.493
REMARK  Name = 216239
REMARK  6 active torsions:
REMARK  status: ('A' for Active; 'I' for Inactive)
REMARK    1  A    between atoms: C_1  and  N_9
REMARK    2  A    between atoms: C_2  and  O_24
REMARK    3  A    between atoms: N_8  and  C_14
REMARK    4  A    between atoms: C_15  and  C_23
REMARK    5  A    between atoms: O_24  and  C_26
REMARK    6  A    between atoms: C_28  and  C_33
REMARK                            x       y       z     vdW  Elec       q    Type
REMARK                         _______ _______ _______ _____ _____    ______ ____
ROOT
ATOM      1  C   UNL     1      34.432 -20.849 -18.817  0.00  0.00    +0.052 C 
ATOM      2  C   UNL     1      35.073 -19.001 -20.779  0.00  0.00    +0.145 C 
ATOM      3  C   UNL     1      33.416 -20.256 -19.548  0.00  0.00    +0.018 C 
ATOM      4  C   UNL     1      35.762 -20.537 -19.046  0.00  0.00    +0.018 C 
ATOM      5  C   UNL     1      33.739 -19.326 -20.536  0.00  0.00    +0.039 C 
ATOM      6  C   UNL     1      36.085 -19.606 -20.033  0.00  0.00    +0.039 C 
ENDROOT
BRANCH   1   9
ATOM      7  O   UNL     1      35.470 -21.141 -16.032  0.00  0.00    -0.252 OA
ATOM      8  N   UNL     1      34.027 -22.975 -15.833  0.00  0.00    -0.268 N 
ATOM      9  N   UNL     1      34.104 -21.792 -17.816  0.00  0.00    -0.268 N 
ATOM     10  C   UNL     1      34.624 -21.887 -16.514  0.00  0.00    +0.308 C 
ATOM     11  H   UNL     1      33.362 -23.489 -16.347  0.00  0.00    +0.156 HD
ATOM     12  H   UNL     1      33.429 -22.465 -18.060  0.00  0.00    +0.156 HD
BRANCH   8  14
ATOM     13 CL   UNL     1      34.954 -24.846 -10.303  0.00  0.00    -0.082 Cl
ATOM     14  C   UNL     1      34.256 -23.419 -14.530  0.00  0.00    +0.052 C 
ATOM     15  C   UNL     1      35.765 -24.252 -12.837  0.00  0.00    +0.083 C 
ATOM     16  C   UNL     1      35.536 -23.809 -14.140  0.00  0.00    +0.019 C 
ATOM     17  C   UNL     1      33.202 -23.473 -13.618  0.00  0.00    +0.016 C 
ATOM     18  C   UNL     1      34.711 -24.306 -11.924  0.00  0.00    +0.062 C 
ATOM     19  C   UNL     1      33.430 -23.916 -12.315  0.00  0.00    +0.013 C 
BRANCH  15  23
ATOM     20  F   UNL     1      37.684 -23.904 -11.452  0.00  0.00    -0.166 F 
ATOM     21  F   UNL     1      37.241 -25.949 -12.024  0.00  0.00    -0.166 F 
ATOM     22  F   UNL     1      38.028 -24.556 -13.498  0.00  0.00    -0.166 F 
ATOM     23  C   UNL     1      37.152 -24.658 -12.457  0.00  0.00    +0.419 C 
ENDBRANCH  15  23
ENDBRANCH   8  14
ENDBRANCH   1   9
BRANCH   2  24
ATOM     24  O   UNL     1      35.388 -18.092 -21.741  0.00  0.00    -0.453 OA
BRANCH  24  26
ATOM     25  N   UNL     1      32.477 -17.183 -24.565  0.00  0.00    -0.239 NA
ATOM     26  C   UNL     1      34.418 -17.788 -22.681  0.00  0.00    +0.149 C 
ATOM     27  C   UNL     1      34.248 -16.479 -23.077  0.00  0.00    +0.061 C 
ATOM     28  C   UNL     1      33.266 -16.228 -24.021  0.00  0.00    +0.137 C 
ATOM     29  C   UNL     1      33.643 -18.804 -23.202  0.00  0.00    +0.058 C 
ATOM     30  C   UNL     1      32.687 -18.448 -24.140  0.00  0.00    +0.102 C 
BRANCH  28  33
ATOM     31  O   UNL     1      32.745 -14.656 -25.681  0.00  0.00    -0.268 OA
ATOM     32  N   UNL     1      33.108 -13.848 -23.538  0.00  0.00    -0.298 N 
ATOM     33  C   UNL     1      33.028 -14.873 -24.489  0.00  0.00    +0.264 C 
ATOM     34  C   UNL     1      32.875 -12.455 -23.844  0.00  0.00    +0.111 C 
ATOM     35  H   UNL     1      33.337 -14.090 -22.611  0.00  0.00    +0.150 HD
ENDBRANCH  28  33
ENDBRANCH  24  26
ENDBRANCH   2  24
TORSDOF 6
ENDMDL
MODEL 9
REMARK VINA RESULT:     -10.9      3.321      5.188
REMARK  Name = 216239
REMARK  6 active torsions:
REMARK  status: ('A' for Active; 'I' for Inactive)
REMARK    1  A    between atoms: C_1  and  N_9
REMARK    2  A    between atoms: C_2  and  O_24
REMARK    3  A    between atoms: N_8  and  C_14
REMARK    4  A    between atoms: C_15  and  C_23
REMARK    5  A    between atoms: O_24  and  C_26
REMARK    6  A    between atoms: C_28  and  C_33
REMARK                            x       y       z     vdW  Elec       q    Type
REMARK                         _______ _______ _______ _____ _____    ______ ____
ROOT
ATOM      1  C   UNL     1      34.479 -17.633 -21.241  0.00  0.00    +0.052 C 
ATOM      2  C   UNL     1      35.443 -19.863 -19.910  0.00  0.00    +0.145 C 
ATOM      3  C   UNL     1      35.816 -17.684 -20.886  0.00  0.00    +0.018 C 
ATOM      4  C   UNL     1      33.613 -18.672 -20.945  0.00  0.00    +0.018 C 
ATOM      5  C   UNL     1      36.302 -18.807 -20.216  0.00  0.00    +0.039 C 
ATOM      6  C   UNL     1      34.098 -19.795 -20.274  0.00  0.00    +0.039 C 
ENDROOT
BRANCH   1   9
ATOM      7  O   UNL     1      33.792 -14.918 -20.202  0.00  0.00    -0.252 OA
ATOM      8  N   UNL     1      33.214 -14.371 -22.405  0.00  0.00    -0.268 N 
ATOM      9  N   UNL     1      33.987 -16.494 -21.920  0.00  0.00    -0.268 N 
ATOM     10  C   UNL     1      33.679 -15.233 -21.382  0.00  0.00    +0.308 C 
ATOM     11  H   UNL     1      33.174 -14.762 -23.309  0.00  0.00    +0.156 HD
ATOM     12  H   UNL     1      33.843 -16.596 -22.888  0.00  0.00    +0.156 HD
BRANCH   8  14
ATOM     13 CL   UNL     1      31.438  -8.752 -21.953  0.00  0.00    -0.082 Cl
ATOM     14  C   UNL     1      32.802 -13.042 -22.305  0.00  0.00    +0.052 C 
ATOM     15  C   UNL     1      33.001 -10.732 -22.986  0.00  0.00    +0.083 C 
ATOM     16  C   UNL     1      33.413 -12.061 -23.086  0.00  0.00    +0.019 C 
ATOM     17  C   UNL     1      31.779 -12.695 -21.423  0.00  0.00    +0.016 C 
ATOM     18  C   UNL     1      31.977 -10.384 -22.103  0.00  0.00    +0.062 C 
ATOM     19  C   UNL     1      31.366 -11.366 -21.323  0.00  0.00    +0.013 C 
BRANCH  15  23
ATOM     20  F   UNL     1      32.813  -8.962 -24.583  0.00  0.00    -0.166 F 
ATOM     21  F   UNL     1      34.417  -8.810 -23.130  0.00  0.00    -0.166 F 
ATOM     22  F   UNL     1      34.542 -10.272 -24.736  0.00  0.00    -0.166 F 
ATOM     23  C   UNL     1      33.679  -9.711 -23.841  0.00  0.00    +0.419 C 
ENDBRANCH  15  23
ENDBRANCH   8  14
ENDBRANCH   1   9
BRANCH   2  24
ATOM     24  O   UNL     1      35.917 -20.957 -19.255  0.00  0.00    -0.453 OA
BRANCH  24  26
ATOM     25  N   UNL     1      33.606 -22.505 -16.166  0.00  0.00    -0.239 NA
ATOM     26  C   UNL     1      35.148 -21.474 -18.226  0.00  0.00    +0.149 C 
ATOM     27  C   UNL     1      35.719 -21.663 -16.986  0.00  0.00    +0.061 C 
ATOM     28  C   UNL     1      34.907 -22.180 -15.990  0.00  0.00    +0.137 C 
ATOM     29  C   UNL     1      33.826 -21.786 -18.465  0.00  0.00    +0.058 C 
ATOM     30  C   UNL     1      33.098 -22.299 -17.402  0.00  0.00    +0.102 C 
BRANCH  28  33
ATOM     31  O   UNL     1      36.641 -22.207 -14.412  0.00  0.00    -0.268 OA
ATOM     32  N   UNL     1      34.533 -22.833 -13.676  0.00  0.00    -0.298 N 
ATOM     33  C   UNL     1      35.437 -22.407 -14.656  0.00  0.00    +0.264 C 
ATOM     34  C   UNL     1      34.903 -23.078 -12.300  0.00  0.00    +0.111 C 
ATOM     35  H   UNL     1      33.594 -22.972 -13.937  0.00  0.00    +0.150 HD
ENDBRANCH  28  33
ENDBRANCH  24  26
ENDBRANCH   2  24
TORSDOF 6
ENDMDL
