MODEL 1
REMARK VINA RESULT:     -11.6      0.000      0.000
REMARK  Name = 446129
REMARK  7 active torsions:
REMARK  status: ('A' for Active; 'I' for Inactive)
REMARK    1  A    between atoms: C_1  and  O_2
REMARK    2  A    between atoms: C_1  and  C_4
REMARK    3  A    between atoms: C_1  and  C_18
REMARK    4  A    between atoms: C_4  and  N_5
REMARK    5  A    between atoms: C_18  and  O_19
REMARK    6  A    between atoms: O_19  and  C_23
REMARK    7  A    between atoms: C_20  and  C_26
REMARK                            x       y       z     vdW  Elec       q    Type
REMARK                         _______ _______ _______ _____ _____    ______ ____
ROOT
ATOM      1  C   UNL     1      34.827 -17.591 -21.498  0.00  0.00    +0.133 C 
ENDROOT
BRANCH   1   2
ATOM      2  O   UNL     1      36.162 -18.010 -21.791  0.00  0.00    -0.383 OA
ATOM      3  H   UNL     1      36.150 -18.632 -22.535  0.00  0.00    +0.210 HD
ENDBRANCH   1   2
BRANCH   1   4
ATOM      4  C   UNL     1      34.291 -16.823 -22.708  0.00  0.00    -0.043 C 
BRANCH   4   5
ATOM      5  N   UNL     1      34.033 -15.417 -22.398  0.00  0.00    +0.391 N 
ATOM      6  N   UNL     1      32.475 -13.176 -21.555  0.00  0.00    -0.298 N 
ATOM      7  C   UNL     1      33.659 -15.260 -20.987  0.00  0.00    -0.055 C 
ATOM      8  C   UNL     1      32.968 -14.887 -23.259  0.00  0.00    -0.055 C 
ATOM      9  C   UNL     1      33.441 -13.786 -20.636  0.00  0.00    +0.069 C 
ATOM     10  C   UNL     1      32.727 -13.401 -22.984  0.00  0.00    +0.069 C 
ATOM     11  H   UNL     1      34.889 -14.890 -22.573  0.00  0.00    -0.079 HD
ATOM     12  N   UNL     1      31.938 -10.871 -21.938  0.00  0.00    -0.229 NA
ATOM     13  C   UNL     1      31.806 -12.004 -21.183  0.00  0.00    +0.132 C 
ATOM     14  C   UNL     1      31.010 -12.028 -20.029  0.00  0.00    +0.034 C 
ATOM     15  C   UNL     1      30.340 -10.872 -19.645  0.00  0.00    +0.004 C 
ATOM     16  C   UNL     1      31.271  -9.766 -21.533  0.00  0.00    +0.100 C 
ATOM     17  C   UNL     1      30.467  -9.716 -20.406  0.00  0.00    +0.021 C 
ENDBRANCH   4   5
ENDBRANCH   1   4
BRANCH   1  18
ATOM     18  C   UNL     1      33.993 -18.822 -21.146  0.00  0.00    +0.232 C 
BRANCH  18  19
ATOM     19  O   UNL     1      34.826 -19.768 -20.484  0.00  0.00    -0.473 OA
BRANCH  19  23
ATOM     20  C   UNL     1      33.057 -22.038 -17.493  0.00  0.00    -0.022 C 
ATOM     21  C   UNL     1      34.447 -21.969 -17.586  0.00  0.00    -0.001 C 
ATOM     22  C   UNL     1      32.262 -21.344 -18.405  0.00  0.00    -0.001 C 
ATOM     23  C   UNL     1      34.243 -20.517 -19.498  0.00  0.00    +0.139 C 
ATOM     24  C   UNL     1      35.042 -21.207 -18.591  0.00  0.00    +0.037 C 
ATOM     25  C   UNL     1      32.857 -20.582 -19.411  0.00  0.00    +0.037 C 
BRANCH  20  26
ATOM     26  C   UNL     1      32.411 -22.868 -16.400  0.00  0.00    +0.022 C 
ATOM     27  C   UNL     1      33.201 -22.798 -15.081  0.00  0.00    +0.004 C 
ATOM     28  C   UNL     1      30.939 -22.480 -16.181  0.00  0.00    +0.004 C 
ATOM     29  C   UNL     1      32.547 -23.644 -13.991  0.00  0.00    +0.000 C 
ATOM     30  C   UNL     1      30.293 -23.328 -15.086  0.00  0.00    +0.000 C 
ATOM     31  C   UNL     1      31.084 -23.262 -13.783  0.00  0.00    +0.000 C 
ENDBRANCH  20  26
ENDBRANCH  19  23
ENDBRANCH  18  19
ENDBRANCH   1  18
TORSDOF 7
ENDMDL
MODEL 2
REMARK VINA RESULT:     -11.6      1.233      1.941
REMARK  Name = 446129
REMARK  7 active torsions:
REMARK  status: ('A' for Active; 'I' for Inactive)
REMARK    1  A    between atoms: C_1  and  O_2
REMARK    2  A    between atoms: C_1  and  C_4
REMARK    3  A    between atoms: C_1  and  C_18
REMARK    4  A    between atoms: C_4  and  N_5
REMARK    5  A    between atoms: C_18  and  O_19
REMARK    6  A    between atoms: O_19  and  C_23
REMARK    7  A    between atoms: C_20  and  C_26
REMARK                            x       y       z     vdW  Elec       q    Type
REMARK                         _______ _______ _______ _____ _____    ______ ____
ROOT
ATOM      1  C   UNL     1      34.625 -17.806 -21.882  0.00  0.00    +0.133 C 
ENDROOT
BRANCH   1   2
ATOM      2  O   UNL     1      35.993 -18.177 -22.074  0.00  0.00    -0.383 OA
ATOM      3  H   UNL     1      36.548 -17.382 -22.062  0.00  0.00    +0.210 HD
ENDBRANCH   1   2
BRANCH   1   4
ATOM      4  C   UNL     1      34.066 -17.335 -23.226  0.00  0.00    -0.043 C 
BRANCH   4   5
ATOM      5  N   UNL     1      33.384 -16.045 -23.117  0.00  0.00    +0.391 N 
ATOM      6  N   UNL     1      33.166 -13.198 -23.175  0.00  0.00    -0.298 N 
ATOM      7  C   UNL     1      33.442 -15.322 -24.393  0.00  0.00    -0.055 C 
ATOM      8  C   UNL     1      33.988 -15.233 -22.054  0.00  0.00    -0.055 C 
ATOM      9  C   UNL     1      32.683 -13.995 -24.308  0.00  0.00    +0.069 C 
ATOM     10  C   UNL     1      33.247 -13.903 -21.890  0.00  0.00    +0.069 C 
ATOM     11  H   UNL     1      32.407 -16.221 -22.882  0.00  0.00    -0.079 HD
ATOM     12  N   UNL     1      32.227 -11.254 -22.133  0.00  0.00    -0.229 NA
ATOM     13  C   UNL     1      32.944 -11.816 -23.154  0.00  0.00    +0.132 C 
ATOM     14  C   UNL     1      33.470 -11.039 -24.196  0.00  0.00    +0.034 C 
ATOM     15  C   UNL     1      33.256  -9.665 -24.189  0.00  0.00    +0.004 C 
ATOM     16  C   UNL     1      32.040  -9.915 -22.160  0.00  0.00    +0.100 C 
ATOM     17  C   UNL     1      32.530  -9.084 -23.155  0.00  0.00    +0.021 C 
ENDBRANCH   4   5
ENDBRANCH   1   4
BRANCH   1  18
ATOM     18  C   UNL     1      33.871 -19.001 -21.299  0.00  0.00    +0.232 C 
BRANCH  18  19
ATOM     19  O   UNL     1      34.761 -19.750 -20.477  0.00  0.00    -0.473 OA
BRANCH  19  23
ATOM     20  C   UNL     1      33.039 -22.053 -17.484  0.00  0.00    -0.022 C 
ATOM     21  C   UNL     1      34.427 -21.977 -17.594  0.00  0.00    -0.001 C 
ATOM     22  C   UNL     1      32.229 -21.356 -18.381  0.00  0.00    -0.001 C 
ATOM     23  C   UNL     1      34.193 -20.510 -19.490  0.00  0.00    +0.139 C 
ATOM     24  C   UNL     1      35.006 -21.203 -18.599  0.00  0.00    +0.037 C 
ATOM     25  C   UNL     1      32.808 -20.583 -19.388  0.00  0.00    +0.037 C 
BRANCH  20  26
ATOM     26  C   UNL     1      32.410 -22.896 -16.391  0.00  0.00    +0.022 C 
ATOM     27  C   UNL     1      33.217 -22.836 -15.082  0.00  0.00    +0.004 C 
ATOM     28  C   UNL     1      30.939 -22.514 -16.148  0.00  0.00    +0.004 C 
ATOM     29  C   UNL     1      32.581 -23.696 -13.992  0.00  0.00    +0.000 C 
ATOM     30  C   UNL     1      30.311 -23.375 -15.053  0.00  0.00    +0.000 C 
ATOM     31  C   UNL     1      31.120 -23.319 -13.760  0.00  0.00    +0.000 C 
ENDBRANCH  20  26
ENDBRANCH  19  23
ENDBRANCH  18  19
ENDBRANCH   1  18
TORSDOF 7
ENDMDL
MODEL 3
REMARK VINA RESULT:     -11.3      3.073     10.935
REMARK  Name = 446129
REMARK  7 active torsions:
REMARK  status: ('A' for Active; 'I' for Inactive)
REMARK    1  A    between atoms: C_1  and  O_2
REMARK    2  A    between atoms: C_1  and  C_4
REMARK    3  A    between atoms: C_1  and  C_18
REMARK    4  A    between atoms: C_4  and  N_5
REMARK    5  A    between atoms: C_18  and  O_19
REMARK    6  A    between atoms: O_19  and  C_23
REMARK    7  A    between atoms: C_20  and  C_26
REMARK                            x       y       z     vdW  Elec       q    Type
REMARK                         _______ _______ _______ _____ _____    ______ ____
ROOT
ATOM      1  C   UNL     1      32.783 -15.070 -23.700  0.00  0.00    +0.133 C 
ENDROOT
BRANCH   1   2
ATOM      2  O   UNL     1      31.952 -15.153 -24.861  0.00  0.00    -0.383 OA
ATOM      3  H   UNL     1      32.217 -14.472 -25.499  0.00  0.00    +0.210 HD
ENDBRANCH   1   2
BRANCH   1   4
ATOM      4  C   UNL     1      34.142 -15.686 -24.041  0.00  0.00    -0.043 C 
BRANCH   4   5
ATOM      5  N   UNL     1      34.421 -16.879 -23.243  0.00  0.00    +0.391 N 
ATOM      6  N   UNL     1      34.007 -18.764 -21.137  0.00  0.00    -0.298 N 
ATOM      7  C   UNL     1      33.286 -17.808 -23.290  0.00  0.00    -0.055 C 
ATOM      8  C   UNL     1      34.708 -16.512 -21.851  0.00  0.00    -0.055 C 
ATOM      9  C   UNL     1      33.588 -19.087 -22.505  0.00  0.00    +0.069 C 
ATOM     10  C   UNL     1      35.058 -17.747 -21.018  0.00  0.00    +0.069 C 
ATOM     11  H   UNL     1      35.241 -17.340 -23.638  0.00  0.00    -0.079 HD
ATOM     12  N   UNL     1      35.040 -20.136 -19.465  0.00  0.00    -0.229 NA
ATOM     13  C   UNL     1      33.916 -19.737 -20.135  0.00  0.00    +0.132 C 
ATOM     14  C   UNL     1      32.657 -20.282 -19.845  0.00  0.00    +0.034 C 
ATOM     15  C   UNL     1      32.551 -21.250 -18.853  0.00  0.00    +0.004 C 
ATOM     16  C   UNL     1      34.898 -21.079 -18.507  0.00  0.00    +0.100 C 
ATOM     17  C   UNL     1      33.688 -21.661 -18.166  0.00  0.00    +0.021 C 
ENDBRANCH   4   5
ENDBRANCH   1   4
BRANCH   1  18
ATOM     18  C   UNL     1      32.874 -13.607 -23.268  0.00  0.00    +0.232 C 
BRANCH  18  19
ATOM     19  O   UNL     1      32.193 -13.450 -22.027  0.00  0.00    -0.473 OA
BRANCH  19  23
ATOM     20  C   UNL     1      31.155  -9.580 -20.944  0.00  0.00    -0.022 C 
ATOM     21  C   UNL     1      31.946  -9.800 -22.072  0.00  0.00    -0.001 C 
ATOM     22  C   UNL     1      30.715 -10.660 -20.180  0.00  0.00    -0.001 C 
ATOM     23  C   UNL     1      31.852 -12.174 -21.670  0.00  0.00    +0.139 C 
ATOM     24  C   UNL     1      32.294 -11.100 -22.436  0.00  0.00    +0.037 C 
ATOM     25  C   UNL     1      31.064 -11.961 -20.544  0.00  0.00    +0.037 C 
BRANCH  20  26
ATOM     26  C   UNL     1      30.777  -8.165 -20.548  0.00  0.00    +0.022 C 
ATOM     27  C   UNL     1      31.872  -7.494 -19.700  0.00  0.00    +0.004 C 
ATOM     28  C   UNL     1      30.423  -7.303 -21.771  0.00  0.00    +0.004 C 
ATOM     29  C   UNL     1      31.478  -6.074 -19.299  0.00  0.00    +0.000 C 
ATOM     30  C   UNL     1      30.034  -5.883 -21.362  0.00  0.00    +0.000 C 
ATOM     31  C   UNL     1      31.118  -5.225 -20.515  0.00  0.00    +0.000 C 
ENDBRANCH  20  26
ENDBRANCH  19  23
ENDBRANCH  18  19
ENDBRANCH   1  18
TORSDOF 7
ENDMDL
MODEL 4
REMARK VINA RESULT:     -11.2      3.361     11.954
REMARK  Name = 446129
REMARK  7 active torsions:
REMARK  status: ('A' for Active; 'I' for Inactive)
REMARK    1  A    between atoms: C_1  and  O_2
REMARK    2  A    between atoms: C_1  and  C_4
REMARK    3  A    between atoms: C_1  and  C_18
REMARK    4  A    between atoms: C_4  and  N_5
REMARK    5  A    between atoms: C_18  and  O_19
REMARK    6  A    between atoms: O_19  and  C_23
REMARK    7  A    between atoms: C_20  and  C_26
REMARK                            x       y       z     vdW  Elec       q    Type
REMARK                         _______ _______ _______ _____ _____    ______ ____
ROOT
ATOM      1  C   UNL     1      32.996 -14.750 -23.332  0.00  0.00    +0.133 C 
ENDROOT
BRANCH   1   2
ATOM      2  O   UNL     1      31.943 -14.602 -24.288  0.00  0.00    -0.383 OA
ATOM      3  H   UNL     1      32.313 -14.296 -25.131  0.00  0.00    +0.210 HD
ENDBRANCH   1   2
BRANCH   1   4
ATOM      4  C   UNL     1      34.106 -15.587 -23.969  0.00  0.00    -0.043 C 
BRANCH   4   5
ATOM      5  N   UNL     1      34.402 -16.792 -23.194  0.00  0.00    +0.391 N 
ATOM      6  N   UNL     1      34.016 -18.719 -21.121  0.00  0.00    -0.298 N 
ATOM      7  C   UNL     1      33.278 -17.734 -23.255  0.00  0.00    -0.055 C 
ATOM      8  C   UNL     1      34.689 -16.446 -21.796  0.00  0.00    -0.055 C 
ATOM      9  C   UNL     1      33.598 -19.022 -22.494  0.00  0.00    +0.069 C 
ATOM     10  C   UNL     1      35.056 -17.692 -20.986  0.00  0.00    +0.069 C 
ATOM     11  H   UNL     1      35.227 -17.236 -23.599  0.00  0.00    -0.079 HD
ATOM     12  N   UNL     1      35.071 -20.108 -19.477  0.00  0.00    -0.229 NA
ATOM     13  C   UNL     1      33.940 -19.711 -20.137  0.00  0.00    +0.132 C 
ATOM     14  C   UNL     1      32.689 -20.276 -19.853  0.00  0.00    +0.034 C 
ATOM     15  C   UNL     1      32.597 -21.263 -18.878  0.00  0.00    +0.004 C 
ATOM     16  C   UNL     1      34.943 -21.070 -18.535  0.00  0.00    +0.100 C 
ATOM     17  C   UNL     1      33.740 -21.673 -18.202  0.00  0.00    +0.021 C 
ENDBRANCH   4   5
ENDBRANCH   1   4
BRANCH   1  18
ATOM     18  C   UNL     1      33.461 -13.360 -22.897  0.00  0.00    +0.232 C 
BRANCH  18  19
ATOM     19  O   UNL     1      33.503 -12.511 -24.040  0.00  0.00    -0.473 OA
BRANCH  19  23
ATOM     20  C   UNL     1      33.154  -8.434 -23.347  0.00  0.00    -0.022 C 
ATOM     21  C   UNL     1      34.104  -8.909 -24.252  0.00  0.00    -0.001 C 
ATOM     22  C   UNL     1      32.323  -9.329 -22.675  0.00  0.00    -0.001 C 
ATOM     23  C   UNL     1      33.389 -11.166 -23.811  0.00  0.00    +0.139 C 
ATOM     24  C   UNL     1      34.221 -10.279 -24.485  0.00  0.00    +0.037 C 
ATOM     25  C   UNL     1      32.441 -10.699 -22.907  0.00  0.00    +0.037 C 
BRANCH  20  26
ATOM     26  C   UNL     1      33.028  -6.943 -23.094  0.00  0.00    +0.022 C 
ATOM     27  C   UNL     1      33.034  -6.135 -24.403  0.00  0.00    +0.004 C 
ATOM     28  C   UNL     1      31.788  -6.610 -22.247  0.00  0.00    +0.004 C 
ATOM     29  C   UNL     1      32.916  -4.636 -24.136  0.00  0.00    +0.000 C 
ATOM     30  C   UNL     1      31.675  -5.108 -21.988  0.00  0.00    +0.000 C 
ATOM     31  C   UNL     1      31.689  -4.310 -23.288  0.00  0.00    +0.000 C 
ENDBRANCH  20  26
ENDBRANCH  19  23
ENDBRANCH  18  19
ENDBRANCH   1  18
TORSDOF 7
ENDMDL
MODEL 5
REMARK VINA RESULT:     -10.9      2.469      4.725
REMARK  Name = 446129
REMARK  7 active torsions:
REMARK  status: ('A' for Active; 'I' for Inactive)
REMARK    1  A    between atoms: C_1  and  O_2
REMARK    2  A    between atoms: C_1  and  C_4
REMARK    3  A    between atoms: C_1  and  C_18
REMARK    4  A    between atoms: C_4  and  N_5
REMARK    5  A    between atoms: C_18  and  O_19
REMARK    6  A    between atoms: O_19  and  C_23
REMARK    7  A    between atoms: C_20  and  C_26
REMARK                            x       y       z     vdW  Elec       q    Type
REMARK                         _______ _______ _______ _____ _____    ______ ____
ROOT
ATOM      1  C   UNL     1      32.965 -14.386 -24.831  0.00  0.00    +0.133 C 
ENDROOT
BRANCH   1   2
ATOM      2  O   UNL     1      31.687 -13.922 -25.276  0.00  0.00    -0.383 OA
ATOM      3  H   UNL     1      31.158 -14.675 -25.581  0.00  0.00    +0.210 HD
ENDBRANCH   1   2
BRANCH   1   4
ATOM      4  C   UNL     1      33.313 -13.651 -23.534  0.00  0.00    -0.043 C 
BRANCH   4   5
ATOM      5  N   UNL     1      32.619 -12.368 -23.424  0.00  0.00    +0.391 N 
ATOM      6  N   UNL     1      32.249  -9.668 -22.571  0.00  0.00    -0.298 N 
ATOM      7  C   UNL     1      33.433 -11.290 -23.997  0.00  0.00    -0.055 C 
ATOM      8  C   UNL     1      32.310 -12.069 -22.020  0.00  0.00    -0.055 C 
ATOM      9  C   UNL     1      32.694  -9.952 -23.939  0.00  0.00    +0.069 C 
ATOM     10  C   UNL     1      31.532 -10.757 -21.896  0.00  0.00    +0.069 C 
ATOM     11  H   UNL     1      31.745 -12.435 -23.946  0.00  0.00    -0.079 HD
ATOM     12  N   UNL     1      30.696  -8.037 -21.750  0.00  0.00    -0.229 NA
ATOM     13  C   UNL     1      31.950  -8.353 -22.196  0.00  0.00    +0.132 C 
ATOM     14  C   UNL     1      32.960  -7.384 -22.293  0.00  0.00    +0.034 C 
ATOM     15  C   UNL     1      32.677  -6.073 -21.926  0.00  0.00    +0.004 C 
ATOM     16  C   UNL     1      30.459  -6.752 -21.401  0.00  0.00    +0.100 C 
ATOM     17  C   UNL     1      31.406  -5.743 -21.470  0.00  0.00    +0.021 C 
ENDBRANCH   4   5
ENDBRANCH   1   4
BRANCH   1  18
ATOM     18  C   UNL     1      32.905 -15.904 -24.668  0.00  0.00    +0.232 C 
BRANCH  18  19
ATOM     19  O   UNL     1      34.130 -16.354 -24.097  0.00  0.00    -0.473 OA
BRANCH  19  23
ATOM     20  C   UNL     1      33.840 -18.832 -20.780  0.00  0.00    -0.022 C 
ATOM     21  C   UNL     1      34.415 -17.568 -20.657  0.00  0.00    -0.001 C 
ATOM     22  C   UNL     1      33.363 -19.264 -22.018  0.00  0.00    -0.001 C 
ATOM     23  C   UNL     1      34.035 -17.171 -23.003  0.00  0.00    +0.139 C 
ATOM     24  C   UNL     1      34.512 -16.734 -21.771  0.00  0.00    +0.037 C 
ATOM     25  C   UNL     1      33.461 -18.431 -23.132  0.00  0.00    +0.037 C 
BRANCH  20  26
ATOM     26  C   UNL     1      33.735 -19.739 -19.568  0.00  0.00    +0.022 C 
ATOM     27  C   UNL     1      32.411 -20.523 -19.549  0.00  0.00    +0.004 C 
ATOM     28  C   UNL     1      34.939 -20.690 -19.458  0.00  0.00    +0.004 C 
ATOM     29  C   UNL     1      32.312 -21.425 -18.320  0.00  0.00    +0.000 C 
ATOM     30  C   UNL     1      34.830 -21.591 -18.230  0.00  0.00    +0.000 C 
ATOM     31  C   UNL     1      33.513 -22.360 -18.211  0.00  0.00    +0.000 C 
ENDBRANCH  20  26
ENDBRANCH  19  23
ENDBRANCH  18  19
ENDBRANCH   1  18
TORSDOF 7
ENDMDL
MODEL 6
REMARK VINA RESULT:     -10.7      2.490      4.906
REMARK  Name = 446129
REMARK  7 active torsions:
REMARK  status: ('A' for Active; 'I' for Inactive)
REMARK    1  A    between atoms: C_1  and  O_2
REMARK    2  A    between atoms: C_1  and  C_4
REMARK    3  A    between atoms: C_1  and  C_18
REMARK    4  A    between atoms: C_4  and  N_5
REMARK    5  A    between atoms: C_18  and  O_19
REMARK    6  A    between atoms: O_19  and  C_23
REMARK    7  A    between atoms: C_20  and  C_26
REMARK                            x       y       z     vdW  Elec       q    Type
REMARK                         _______ _______ _______ _____ _____    ______ ____
ROOT
ATOM      1  C   UNL     1      32.981 -13.904 -24.554  0.00  0.00    +0.133 C 
ENDROOT
BRANCH   1   2
ATOM      2  O   UNL     1      31.659 -13.563 -24.980  0.00  0.00    -0.383 OA
ATOM      3  H   UNL     1      31.565 -12.598 -25.000  0.00  0.00    +0.210 HD
ENDBRANCH   1   2
BRANCH   1   4
ATOM      4  C   UNL     1      33.298 -13.097 -23.293  0.00  0.00    -0.043 C 
BRANCH   4   5
ATOM      5  N   UNL     1      32.552 -11.840 -23.240  0.00  0.00    +0.391 N 
ATOM      6  N   UNL     1      32.043  -9.140 -22.460  0.00  0.00    -0.298 N 
ATOM      7  C   UNL     1      33.352 -10.743 -23.798  0.00  0.00    -0.055 C 
ATOM      8  C   UNL     1      32.168 -11.527 -21.859  0.00  0.00    -0.055 C 
ATOM      9  C   UNL     1      32.561  -9.432 -23.801  0.00  0.00    +0.069 C 
ATOM     10  C   UNL     1      31.337 -10.243 -21.797  0.00  0.00    +0.069 C 
ATOM     11  H   UNL     1      31.706 -11.950 -23.801  0.00  0.00    -0.079 HD
ATOM     12  N   UNL     1      30.394  -7.555 -21.743  0.00  0.00    -0.229 NA
ATOM     13  C   UNL     1      31.678  -7.831 -22.126  0.00  0.00    +0.132 C 
ATOM     14  C   UNL     1      32.654  -6.827 -22.197  0.00  0.00    +0.034 C 
ATOM     15  C   UNL     1      32.306  -5.521 -21.869  0.00  0.00    +0.004 C 
ATOM     16  C   UNL     1      30.093  -6.274 -21.432  0.00  0.00    +0.100 C 
ATOM     17  C   UNL     1      31.004  -5.231 -21.478  0.00  0.00    +0.021 C 
ENDBRANCH   4   5
ENDBRANCH   1   4
BRANCH   1  18
ATOM     18  C   UNL     1      33.051 -15.415 -24.339  0.00  0.00    +0.232 C 
BRANCH  18  19
ATOM     19  O   UNL     1      34.210 -15.716 -23.567  0.00  0.00    -0.473 OA
BRANCH  19  23
ATOM     20  C   UNL     1      34.009 -19.069 -21.129  0.00  0.00    -0.022 C 
ATOM     21  C   UNL     1      33.628 -19.157 -22.467  0.00  0.00    -0.001 C 
ATOM     22  C   UNL     1      34.456 -17.854 -20.609  0.00  0.00    -0.001 C 
ATOM     23  C   UNL     1      34.143 -16.822 -22.763  0.00  0.00    +0.139 C 
ATOM     24  C   UNL     1      33.696 -18.031 -23.287  0.00  0.00    +0.037 C 
ATOM     25  C   UNL     1      34.523 -16.727 -21.429  0.00  0.00    +0.037 C 
BRANCH  20  26
ATOM     26  C   UNL     1      33.935 -20.294 -20.237  0.00  0.00    +0.022 C 
ATOM     27  C   UNL     1      35.121 -20.367 -19.260  0.00  0.00    +0.004 C 
ATOM     28  C   UNL     1      32.596 -20.374 -19.484  0.00  0.00    +0.004 C 
ATOM     29  C   UNL     1      35.041 -21.609 -18.374  0.00  0.00    +0.000 C 
ATOM     30  C   UNL     1      32.526 -21.615 -18.597  0.00  0.00    +0.000 C 
ATOM     31  C   UNL     1      33.708 -21.688 -17.635  0.00  0.00    +0.000 C 
ENDBRANCH  20  26
ENDBRANCH  19  23
ENDBRANCH  18  19
ENDBRANCH   1  18
TORSDOF 7
ENDMDL
MODEL 7
REMARK VINA RESULT:     -10.7      2.867      5.201
REMARK  Name = 446129
REMARK  7 active torsions:
REMARK  status: ('A' for Active; 'I' for Inactive)
REMARK    1  A    between atoms: C_1  and  O_2
REMARK    2  A    between atoms: C_1  and  C_4
REMARK    3  A    between atoms: C_1  and  C_18
REMARK    4  A    between atoms: C_4  and  N_5
REMARK    5  A    between atoms: C_18  and  O_19
REMARK    6  A    between atoms: O_19  and  C_23
REMARK    7  A    between atoms: C_20  and  C_26
REMARK                            x       y       z     vdW  Elec       q    Type
REMARK                         _______ _______ _______ _____ _____    ______ ____
ROOT
ATOM      1  C   UNL     1      32.754 -13.733 -24.372  0.00  0.00    +0.133 C 
ENDROOT
BRANCH   1   2
ATOM      2  O   UNL     1      31.481 -13.745 -25.022  0.00  0.00    -0.383 OA
ATOM      3  H   UNL     1      31.132 -14.650 -25.033  0.00  0.00    +0.210 HD
ENDBRANCH   1   2
BRANCH   1   4
ATOM      4  C   UNL     1      32.556 -13.221 -22.944  0.00  0.00    -0.043 C 
BRANCH   4   5
ATOM      5  N   UNL     1      32.927 -11.813 -22.807  0.00  0.00    +0.391 N 
ATOM      6  N   UNL     1      32.778  -9.012 -23.351  0.00  0.00    -0.298 N 
ATOM      7  C   UNL     1      31.785 -11.023 -22.331  0.00  0.00    -0.055 C 
ATOM      8  C   UNL     1      33.403 -11.279 -24.089  0.00  0.00    -0.055 C 
ATOM      9  C   UNL     1      32.176  -9.557 -22.130  0.00  0.00    +0.069 C 
ATOM     10  C   UNL     1      33.848  -9.822 -23.947  0.00  0.00    +0.069 C 
ATOM     11  H   UNL     1      33.681 -11.748 -22.123  0.00  0.00    -0.079 HD
ATOM     12  N   UNL     1      34.011  -6.988 -23.705  0.00  0.00    -0.229 NA
ATOM     13  C   UNL     1      32.812  -7.628 -23.551  0.00  0.00    +0.132 C 
ATOM     14  C   UNL     1      31.598  -6.928 -23.588  0.00  0.00    +0.034 C 
ATOM     15  C   UNL     1      31.615  -5.552 -23.785  0.00  0.00    +0.004 C 
ATOM     16  C   UNL     1      33.989  -5.649 -23.895  0.00  0.00    +0.100 C 
ATOM     17  C   UNL     1      32.829  -4.893 -23.943  0.00  0.00    +0.021 C 
ENDBRANCH   4   5
ENDBRANCH   1   4
BRANCH   1  18
ATOM     18  C   UNL     1      33.348 -15.139 -24.433  0.00  0.00    +0.232 C 
BRANCH  18  19
ATOM     19  O   UNL     1      34.272 -15.295 -23.361  0.00  0.00    -0.473 OA
BRANCH  19  23
ATOM     20  C   UNL     1      34.010 -18.809 -21.166  0.00  0.00    -0.022 C 
ATOM     21  C   UNL     1      33.691 -18.809 -22.524  0.00  0.00    -0.001 C 
ATOM     22  C   UNL     1      34.415 -17.627 -20.546  0.00  0.00    -0.001 C 
ATOM     23  C   UNL     1      34.185 -16.454 -22.637  0.00  0.00    +0.139 C 
ATOM     24  C   UNL     1      33.780 -17.629 -23.262  0.00  0.00    +0.037 C 
ATOM     25  C   UNL     1      34.503 -16.446 -21.283  0.00  0.00    +0.037 C 
BRANCH  20  26
ATOM     26  C   UNL     1      33.912 -20.093 -20.364  0.00  0.00    +0.022 C 
ATOM     27  C   UNL     1      35.110 -20.268 -19.413  0.00  0.00    +0.004 C 
ATOM     28  C   UNL     1      32.582 -20.189 -19.597  0.00  0.00    +0.004 C 
ATOM     29  C   UNL     1      35.006 -21.568 -18.618  0.00  0.00    +0.000 C 
ATOM     30  C   UNL     1      32.489 -21.490 -18.800  0.00  0.00    +0.000 C 
ATOM     31  C   UNL     1      33.682 -21.664 -17.865  0.00  0.00    +0.000 C 
ENDBRANCH  20  26
ENDBRANCH  19  23
ENDBRANCH  18  19
ENDBRANCH   1  18
TORSDOF 7
ENDMDL
MODEL 8
REMARK VINA RESULT:     -10.6      5.331     11.322
REMARK  Name = 446129
REMARK  7 active torsions:
REMARK  status: ('A' for Active; 'I' for Inactive)
REMARK    1  A    between atoms: C_1  and  O_2
REMARK    2  A    between atoms: C_1  and  C_4
REMARK    3  A    between atoms: C_1  and  C_18
REMARK    4  A    between atoms: C_4  and  N_5
REMARK    5  A    between atoms: C_18  and  O_19
REMARK    6  A    between atoms: O_19  and  C_23
REMARK    7  A    between atoms: C_20  and  C_26
REMARK                            x       y       z     vdW  Elec       q    Type
REMARK                         _______ _______ _______ _____ _____    ______ ____
ROOT
ATOM      1  C   UNL     1      31.251 -22.324 -15.814  0.00  0.00    +0.133 C 
ENDROOT
BRANCH   1   2
ATOM      2  O   UNL     1      29.859 -22.648 -15.761  0.00  0.00    -0.383 OA
ATOM      3  H   UNL     1      29.633 -22.960 -14.871  0.00  0.00    +0.210 HD
ENDBRANCH   1   2
BRANCH   1   4
ATOM      4  C   UNL     1      31.907 -22.827 -14.525  0.00  0.00    -0.043 C 
BRANCH   4   5
ATOM      5  N   UNL     1      33.254 -23.346 -14.760  0.00  0.00    +0.391 N 
ATOM      6  N   UNL     1      35.888 -24.182 -14.039  0.00  0.00    -0.298 N 
ATOM      7  C   UNL     1      33.460 -24.598 -14.021  0.00  0.00    -0.055 C 
ATOM      8  C   UNL     1      34.263 -22.358 -14.360  0.00  0.00    -0.055 C 
ATOM      9  C   UNL     1      34.847 -25.181 -14.303  0.00  0.00    +0.069 C 
ATOM     10  C   UNL     1      35.677 -22.866 -14.653  0.00  0.00    +0.069 C 
ATOM     11  H   UNL     1      33.353 -23.532 -15.758  0.00  0.00    -0.079 HD
ATOM     12  N   UNL     1      38.211 -24.168 -14.632  0.00  0.00    -0.229 NA
ATOM     13  C   UNL     1      37.205 -24.597 -13.810  0.00  0.00    +0.132 C 
ATOM     14  C   UNL     1      37.458 -25.452 -12.728  0.00  0.00    +0.034 C 
ATOM     15  C   UNL     1      38.761 -25.873 -12.488  0.00  0.00    +0.004 C 
ATOM     16  C   UNL     1      39.465 -24.598 -14.368  0.00  0.00    +0.100 C 
ATOM     17  C   UNL     1      39.789 -25.442 -13.318  0.00  0.00    +0.021 C 
ENDBRANCH   4   5
ENDBRANCH   1   4
BRANCH   1  18
ATOM     18  C   UNL     1      31.849 -22.942 -17.077  0.00  0.00    +0.232 C 
BRANCH  18  19
ATOM     19  O   UNL     1      33.202 -22.516 -17.201  0.00  0.00    -0.473 OA
BRANCH  19  23
ATOM     20  C   UNL     1      34.029 -19.779 -20.209  0.00  0.00    -0.022 C 
ATOM     21  C   UNL     1      32.706 -20.079 -19.884  0.00  0.00    -0.001 C 
ATOM     22  C   UNL     1      35.073 -20.399 -19.524  0.00  0.00    -0.001 C 
ATOM     23  C   UNL     1      33.475 -21.614 -18.193  0.00  0.00    +0.139 C 
ATOM     24  C   UNL     1      32.428 -20.999 -18.873  0.00  0.00    +0.037 C 
ATOM     25  C   UNL     1      34.795 -21.320 -18.514  0.00  0.00    +0.037 C 
BRANCH  20  26
ATOM     26  C   UNL     1      34.331 -18.779 -21.310  0.00  0.00    +0.022 C 
ATOM     27  C   UNL     1      33.395 -18.956 -22.519  0.00  0.00    +0.004 C 
ATOM     28  C   UNL     1      34.294 -17.331 -20.793  0.00  0.00    +0.004 C 
ATOM     29  C   UNL     1      33.714 -17.951 -23.625  0.00  0.00    +0.000 C 
ATOM     30  C   UNL     1      34.609 -16.332 -21.906  0.00  0.00    +0.000 C 
ATOM     31  C   UNL     1      33.685 -16.516 -23.106  0.00  0.00    +0.000 C 
ENDBRANCH  20  26
ENDBRANCH  19  23
ENDBRANCH  18  19
ENDBRANCH   1  18
TORSDOF 7
ENDMDL
MODEL 9
REMARK VINA RESULT:     -10.4      4.040     11.111
REMARK  Name = 446129
REMARK  7 active torsions:
REMARK  status: ('A' for Active; 'I' for Inactive)
REMARK    1  A    between atoms: C_1  and  O_2
REMARK    2  A    between atoms: C_1  and  C_4
REMARK    3  A    between atoms: C_1  and  C_18
REMARK    4  A    between atoms: C_4  and  N_5
REMARK    5  A    between atoms: C_18  and  O_19
REMARK    6  A    between atoms: O_19  and  C_23
REMARK    7  A    between atoms: C_20  and  C_26
REMARK                            x       y       z     vdW  Elec       q    Type
REMARK                         _______ _______ _______ _____ _____    ______ ____
ROOT
ATOM      1  C   UNL     1      32.826 -20.605 -19.109  0.00  0.00    +0.133 C 
ENDROOT
BRANCH   1   2
ATOM      2  O   UNL     1      31.567 -20.305 -19.716  0.00  0.00    -0.383 OA
ATOM      3  H   UNL     1      31.577 -20.593 -20.642  0.00  0.00    +0.210 HD
ENDBRANCH   1   2
BRANCH   1   4
ATOM      4  C   UNL     1      32.721 -21.982 -18.449  0.00  0.00    -0.043 C 
BRANCH   4   5
ATOM      5  N   UNL     1      33.262 -21.984 -17.090  0.00  0.00    +0.391 N 
ATOM      6  N   UNL     1      34.702 -23.032 -14.857  0.00  0.00    -0.298 N 
ATOM      7  C   UNL     1      34.727 -22.054 -17.118  0.00  0.00    -0.055 C 
ATOM      8  C   UNL     1      32.722 -23.112 -16.322  0.00  0.00    -0.055 C 
ATOM      9  C   UNL     1      35.309 -22.000 -15.703  0.00  0.00    +0.069 C 
ATOM     10  C   UNL     1      33.236 -23.093 -14.880  0.00  0.00    +0.069 C 
ATOM     11  H   UNL     1      32.982 -21.113 -16.636  0.00  0.00    -0.079 HD
ATOM     12  N   UNL     1      34.750 -23.316 -12.478  0.00  0.00    -0.229 NA
ATOM     13  C   UNL     1      35.359 -23.452 -13.695  0.00  0.00    +0.132 C 
ATOM     14  C   UNL     1      36.641 -24.008 -13.816  0.00  0.00    +0.034 C 
ATOM     15  C   UNL     1      37.307 -24.429 -12.670  0.00  0.00    +0.004 C 
ATOM     16  C   UNL     1      35.428 -23.736 -11.386  0.00  0.00    +0.100 C 
ATOM     17  C   UNL     1      36.696 -24.294 -11.428  0.00  0.00    +0.021 C 
ENDBRANCH   4   5
ENDBRANCH   1   4
BRANCH   1  18
ATOM     18  C   UNL     1      33.915 -20.530 -20.178  0.00  0.00    +0.232 C 
BRANCH  18  19
ATOM     19  O   UNL     1      34.682 -19.348 -19.970  0.00  0.00    -0.473 OA
BRANCH  19  23
ATOM     20  C   UNL     1      34.013 -16.205 -22.596  0.00  0.00    -0.022 C 
ATOM     21  C   UNL     1      34.063 -17.514 -23.075  0.00  0.00    -0.001 C 
ATOM     22  C   UNL     1      34.189 -15.952 -21.236  0.00  0.00    -0.001 C 
ATOM     23  C   UNL     1      34.462 -18.312 -20.837  0.00  0.00    +0.139 C 
ATOM     24  C   UNL     1      34.288 -18.570 -22.192  0.00  0.00    +0.037 C 
ATOM     25  C   UNL     1      34.415 -17.008 -20.354  0.00  0.00    +0.037 C 
BRANCH  20  26
ATOM     26  C   UNL     1      33.770 -15.056 -23.557  0.00  0.00    +0.022 C 
ATOM     27  C   UNL     1      32.669 -15.386 -24.580  0.00  0.00    +0.004 C 
ATOM     28  C   UNL     1      33.456 -13.746 -22.814  0.00  0.00    +0.004 C 
ATOM     29  C   UNL     1      32.439 -14.226 -25.548  0.00  0.00    +0.000 C 
ATOM     30  C   UNL     1      33.223 -12.592 -23.789  0.00  0.00    +0.000 C 
ATOM     31  C   UNL     1      32.136 -12.926 -24.807  0.00  0.00    +0.000 C 
ENDBRANCH  20  26
ENDBRANCH  19  23
ENDBRANCH  18  19
ENDBRANCH   1  18
TORSDOF 7
ENDMDL
