MODEL 1
REMARK VINA RESULT:     -12.1      0.000      0.000
REMARK  Name = 24958200
REMARK  3 active torsions:
REMARK  status: ('A' for Active; 'I' for Inactive)
REMARK    1  A    between atoms: N_1  and  C_13
REMARK    2  A    between atoms: C_6  and  C_26
REMARK    3  A    between atoms: C_10  and  C_17
REMARK                            x       y       z     vdW  Elec       q    Type
REMARK                         _______ _______ _______ _____ _____    ______ ____
ROOT
ATOM      1  N   UNL     1      31.641 -22.507 -16.477  0.00  0.00    -0.189 N 
ATOM      2  N   UNL     1      30.297 -22.593 -16.500  0.00  0.00    -0.174 NA
ATOM      3  C   UNL     1      31.191 -23.588 -14.664  0.00  0.00    +0.036 C 
ATOM      4  C   UNL     1      32.233 -23.090 -15.395  0.00  0.00    +0.091 C 
ATOM      5  C   UNL     1      29.980 -23.264 -15.378  0.00  0.00    +0.105 C 
ATOM      6  C   UNL     1      28.725 -23.650 -14.871  0.00  0.00    +0.072 C 
ATOM      7  C   UNL     1      31.301 -24.274 -13.462  0.00  0.00    +0.003 C 
ATOM      8  C   UNL     1      28.803 -24.351 -13.647  0.00  0.00    +0.006 C 
ATOM      9  C   UNL     1      30.032 -24.648 -12.977  0.00  0.00    +0.000 C 
ENDROOT
BRANCH   1  13
ATOM     10  C   UNL     1      33.664 -20.573 -19.572  0.00  0.00    -0.024 C 
ATOM     11  C   UNL     1      32.281 -20.435 -19.449  0.00  0.00    -0.003 C 
ATOM     12  C   UNL     1      34.371 -21.357 -18.660  0.00  0.00    -0.003 C 
ATOM     13  C   UNL     1      32.311 -21.867 -17.503  0.00  0.00    +0.074 C 
ATOM     14  C   UNL     1      31.605 -21.082 -18.415  0.00  0.00    +0.016 C 
ATOM     15  C   UNL     1      33.695 -22.004 -17.626  0.00  0.00    +0.016 C 
BRANCH  10  17
ATOM     16  N   UNL     1      34.169 -18.421 -22.699  0.00  0.00    +0.384 N 
ATOM     17  C   UNL     1      34.400 -19.871 -20.699  0.00  0.00    +0.001 C 
ATOM     18  C   UNL     1      35.529 -18.972 -20.169  0.00  0.00    +0.000 C 
ATOM     19  C   UNL     1      33.445 -19.068 -21.602  0.00  0.00    -0.077 C 
ATOM     20  C   UNL     1      36.214 -18.244 -21.324  0.00  0.00    -0.023 C 
ATOM     21  C   UNL     1      35.200 -17.512 -22.199  0.00  0.00    -0.082 C 
ATOM     22  H   UNL     1      33.507 -17.892 -23.266  0.00  0.00    -0.085 HD
ATOM     23  H   UNL     1      34.623 -19.147 -23.255  0.00  0.00    -0.085 HD
ENDBRANCH  10  17
ENDBRANCH   1  13
BRANCH   6  26
ATOM     24  O   UNL     1      27.077 -24.024 -16.510  0.00  0.00    -0.270 OA
ATOM     25  N   UNL     1      26.696 -22.312 -15.035  0.00  0.00    -0.325 N 
ATOM     26  C   UNL     1      27.472 -23.358 -15.533  0.00  0.00    +0.244 C 
ATOM     27  H   UNL     1      25.837 -22.087 -15.462  0.00  0.00    +0.145 HD
ATOM     28  H   UNL     1      27.006 -21.797 -14.255  0.00  0.00    +0.145 HD
ENDBRANCH   6  26
TORSDOF 3
ENDMDL
MODEL 2
REMARK VINA RESULT:     -11.3      2.168      3.065
REMARK  Name = 24958200
REMARK  3 active torsions:
REMARK  status: ('A' for Active; 'I' for Inactive)
REMARK    1  A    between atoms: N_1  and  C_13
REMARK    2  A    between atoms: C_6  and  C_26
REMARK    3  A    between atoms: C_10  and  C_17
REMARK                            x       y       z     vdW  Elec       q    Type
REMARK                         _______ _______ _______ _____ _____    ______ ____
ROOT
ATOM      1  N   UNL     1      32.013 -22.533 -16.314  0.00  0.00    -0.189 N 
ATOM      2  N   UNL     1      32.768 -22.931 -15.272  0.00  0.00    -0.174 NA
ATOM      3  C   UNL     1      30.575 -23.454 -14.993  0.00  0.00    +0.036 C 
ATOM      4  C   UNL     1      30.684 -22.821 -16.200  0.00  0.00    +0.091 C 
ATOM      5  C   UNL     1      31.901 -23.513 -14.425  0.00  0.00    +0.105 C 
ATOM      6  C   UNL     1      32.115 -24.114 -13.171  0.00  0.00    +0.072 C 
ATOM      7  C   UNL     1      29.400 -23.941 -14.438  0.00  0.00    +0.003 C 
ATOM      8  C   UNL     1      30.937 -24.619 -12.579  0.00  0.00    +0.006 C 
ATOM      9  C   UNL     1      29.643 -24.536 -13.185  0.00  0.00    +0.000 C 
ENDROOT
BRANCH   1  13
ATOM     10  C   UNL     1      33.780 -20.574 -19.547  0.00  0.00    -0.024 C 
ATOM     11  C   UNL     1      32.395 -20.544 -19.385  0.00  0.00    -0.003 C 
ATOM     12  C   UNL     1      34.575 -21.259 -18.627  0.00  0.00    -0.003 C 
ATOM     13  C   UNL     1      32.598 -21.884 -17.385  0.00  0.00    +0.074 C 
ATOM     14  C   UNL     1      31.804 -21.199 -18.305  0.00  0.00    +0.016 C 
ATOM     15  C   UNL     1      33.984 -21.913 -17.546  0.00  0.00    +0.016 C 
BRANCH  10  17
ATOM     16  N   UNL     1      34.023 -18.457 -22.729  0.00  0.00    +0.384 N 
ATOM     17  C   UNL     1      34.423 -19.863 -20.724  0.00  0.00    +0.001 C 
ATOM     18  C   UNL     1      35.544 -18.912 -20.272  0.00  0.00    +0.000 C 
ATOM     19  C   UNL     1      33.388 -19.113 -21.583  0.00  0.00    -0.077 C 
ATOM     20  C   UNL     1      36.133 -18.178 -21.474  0.00  0.00    -0.023 C 
ATOM     21  C   UNL     1      35.043 -17.501 -22.301  0.00  0.00    -0.082 C 
ATOM     22  H   UNL     1      33.309 -17.964 -23.265  0.00  0.00    -0.085 HD
ATOM     23  H   UNL     1      34.474 -19.174 -23.298  0.00  0.00    -0.085 HD
ENDBRANCH  10  17
ENDBRANCH   1  13
BRANCH   6  26
ATOM     24  O   UNL     1      33.618 -23.780 -11.389  0.00  0.00    -0.270 OA
ATOM     25  N   UNL     1      34.447 -24.814 -13.260  0.00  0.00    -0.325 N 
ATOM     26  C   UNL     1      33.415 -24.208 -12.542  0.00  0.00    +0.244 C 
ATOM     27  H   UNL     1      35.344 -24.895 -12.861  0.00  0.00    +0.145 HD
ATOM     28  H   UNL     1      34.278 -25.162 -14.165  0.00  0.00    +0.145 HD
ENDBRANCH   6  26
TORSDOF 3
ENDMDL
MODEL 3
REMARK VINA RESULT:     -11.0      2.575      3.575
REMARK  Name = 24958200
REMARK  3 active torsions:
REMARK  status: ('A' for Active; 'I' for Inactive)
REMARK    1  A    between atoms: N_1  and  C_13
REMARK    2  A    between atoms: C_6  and  C_26
REMARK    3  A    between atoms: C_10  and  C_17
REMARK                            x       y       z     vdW  Elec       q    Type
REMARK                         _______ _______ _______ _____ _____    ______ ____
ROOT
ATOM      1  N   UNL     1      32.713 -22.167 -16.934  0.00  0.00    -0.189 N 
ATOM      2  N   UNL     1      33.666 -22.751 -16.181  0.00  0.00    -0.174 NA
ATOM      3  C   UNL     1      31.576 -23.148 -15.383  0.00  0.00    +0.036 C 
ATOM      4  C   UNL     1      31.436 -22.372 -16.500  0.00  0.00    +0.091 C 
ATOM      5  C   UNL     1      32.989 -23.376 -15.200  0.00  0.00    +0.105 C 
ATOM      6  C   UNL     1      33.456 -24.149 -14.121  0.00  0.00    +0.072 C 
ATOM      7  C   UNL     1      30.539 -23.619 -14.589  0.00  0.00    +0.003 C 
ATOM      8  C   UNL     1      32.424 -24.642 -13.293  0.00  0.00    +0.006 C 
ATOM      9  C   UNL     1      31.034 -24.389 -13.518  0.00  0.00    +0.000 C 
ENDROOT
BRANCH   1  13
ATOM     10  C   UNL     1      33.782 -19.933 -20.292  0.00  0.00    -0.024 C 
ATOM     11  C   UNL     1      32.440 -20.052 -19.931  0.00  0.00    -0.003 C 
ATOM     12  C   UNL     1      34.767 -20.561 -19.529  0.00  0.00    -0.003 C 
ATOM     13  C   UNL     1      33.067 -21.427 -18.047  0.00  0.00    +0.074 C 
ATOM     14  C   UNL     1      32.082 -20.798 -18.809  0.00  0.00    +0.016 C 
ATOM     15  C   UNL     1      34.410 -21.308 -18.407  0.00  0.00    +0.016 C 
BRANCH  10  17
ATOM     16  N   UNL     1      33.497 -18.411 -23.795  0.00  0.00    +0.384 N 
ATOM     17  C   UNL     1      34.171 -19.122 -21.514  0.00  0.00    +0.001 C 
ATOM     18  C   UNL     1      34.501 -17.665 -21.151  0.00  0.00    +0.000 C 
ATOM     19  C   UNL     1      33.092 -19.176 -22.612  0.00  0.00    -0.077 C 
ATOM     20  C   UNL     1      34.839 -16.867 -22.408  0.00  0.00    -0.023 C 
ATOM     21  C   UNL     1      33.747 -17.008 -23.466  0.00  0.00    -0.082 C 
ATOM     22  H   UNL     1      32.755 -18.462 -24.492  0.00  0.00    -0.085 HD
ATOM     23  H   UNL     1      34.362 -18.815 -24.156  0.00  0.00    -0.085 HD
ENDBRANCH  10  17
ENDBRANCH   1  13
BRANCH   6  26
ATOM     24  O   UNL     1      35.502 -25.220 -14.581  0.00  0.00    -0.270 OA
ATOM     25  N   UNL     1      35.483 -23.735 -12.834  0.00  0.00    -0.325 N 
ATOM     26  C   UNL     1      34.857 -24.417 -13.878  0.00  0.00    +0.244 C 
ATOM     27  H   UNL     1      36.436 -23.895 -12.642  0.00  0.00    +0.145 HD
ATOM     28  H   UNL     1      34.972 -23.093 -12.290  0.00  0.00    +0.145 HD
ENDBRANCH   6  26
TORSDOF 3
ENDMDL
MODEL 4
REMARK VINA RESULT:     -10.8      4.160      5.459
REMARK  Name = 24958200
REMARK  3 active torsions:
REMARK  status: ('A' for Active; 'I' for Inactive)
REMARK    1  A    between atoms: N_1  and  C_13
REMARK    2  A    between atoms: C_6  and  C_26
REMARK    3  A    between atoms: C_10  and  C_17
REMARK                            x       y       z     vdW  Elec       q    Type
REMARK                         _______ _______ _______ _____ _____    ______ ____
ROOT
ATOM      1  N   UNL     1      34.983 -22.796 -15.077  0.00  0.00    -0.189 N 
ATOM      2  N   UNL     1      35.966 -23.681 -14.820  0.00  0.00    -0.174 NA
ATOM      3  C   UNL     1      34.544 -23.441 -13.065  0.00  0.00    +0.036 C 
ATOM      4  C   UNL     1      34.097 -22.612 -14.056  0.00  0.00    +0.091 C 
ATOM      5  C   UNL     1      35.722 -24.105 -13.567  0.00  0.00    +0.105 C 
ATOM      6  C   UNL     1      36.416 -25.032 -12.768  0.00  0.00    +0.072 C 
ATOM      7  C   UNL     1      33.956 -23.599 -11.817  0.00  0.00    +0.003 C 
ATOM      8  C   UNL     1      35.844 -25.215 -11.490  0.00  0.00    +0.006 C 
ATOM      9  C   UNL     1      34.671 -24.531 -11.038  0.00  0.00    +0.000 C 
ENDROOT
BRANCH   1  13
ATOM     10  C   UNL     1      34.828 -20.865 -18.773  0.00  0.00    -0.024 C 
ATOM     11  C   UNL     1      35.973 -20.768 -17.983  0.00  0.00    -0.003 C 
ATOM     12  C   UNL     1      33.734 -21.609 -18.328  0.00  0.00    -0.003 C 
ATOM     13  C   UNL     1      34.931 -22.156 -16.302  0.00  0.00    +0.074 C 
ATOM     14  C   UNL     1      36.025 -21.413 -16.747  0.00  0.00    +0.016 C 
ATOM     15  C   UNL     1      33.786 -22.254 -17.093  0.00  0.00    +0.016 C 
BRANCH  10  17
ATOM     16  N   UNL     1      33.322 -18.957 -21.732  0.00  0.00    +0.384 N 
ATOM     17  C   UNL     1      34.770 -20.161 -20.117  0.00  0.00    +0.001 C 
ATOM     18  C   UNL     1      35.827 -19.050 -20.225  0.00  0.00    +0.000 C 
ATOM     19  C   UNL     1      33.365 -19.607 -20.420  0.00  0.00    -0.077 C 
ATOM     20  C   UNL     1      35.707 -18.332 -21.567  0.00  0.00    -0.023 C 
ATOM     21  C   UNL     1      34.279 -17.854 -21.816  0.00  0.00    -0.082 C 
ATOM     22  H   UNL     1      32.382 -18.594 -21.891  0.00  0.00    -0.085 HD
ATOM     23  H   UNL     1      33.568 -19.649 -22.440  0.00  0.00    -0.085 HD
ENDBRANCH  10  17
ENDBRANCH   1  13
BRANCH   6  26
ATOM     24  O   UNL     1      37.534 -26.819 -13.817  0.00  0.00    -0.270 OA
ATOM     25  N   UNL     1      38.843 -25.153 -12.942  0.00  0.00    -0.325 N 
ATOM     26  C   UNL     1      37.603 -25.734 -13.206  0.00  0.00    +0.244 C 
ATOM     27  H   UNL     1      39.670 -25.605 -13.228  0.00  0.00    +0.145 HD
ATOM     28  H   UNL     1      38.892 -24.290 -12.471  0.00  0.00    +0.145 HD
ENDBRANCH   6  26
TORSDOF 3
ENDMDL
MODEL 5
REMARK VINA RESULT:     -10.0      4.036      9.068
REMARK  Name = 24958200
REMARK  3 active torsions:
REMARK  status: ('A' for Active; 'I' for Inactive)
REMARK    1  A    between atoms: N_1  and  C_13
REMARK    2  A    between atoms: C_6  and  C_26
REMARK    3  A    between atoms: C_10  and  C_17
REMARK                            x       y       z     vdW  Elec       q    Type
REMARK                         _______ _______ _______ _____ _____    ______ ____
ROOT
ATOM      1  N   UNL     1      33.847 -18.929 -20.869  0.00  0.00    -0.189 N 
ATOM      2  N   UNL     1      33.835 -17.614 -20.577  0.00  0.00    -0.174 NA
ATOM      3  C   UNL     1      33.892 -17.997 -22.815  0.00  0.00    +0.036 C 
ATOM      4  C   UNL     1      33.881 -19.219 -22.202  0.00  0.00    +0.091 C 
ATOM      5  C   UNL     1      33.862 -16.999 -21.773  0.00  0.00    +0.105 C 
ATOM      6  C   UNL     1      33.866 -15.629 -22.094  0.00  0.00    +0.072 C 
ATOM      7  C   UNL     1      33.924 -17.781 -24.186  0.00  0.00    +0.003 C 
ATOM      8  C   UNL     1      33.900 -15.376 -23.483  0.00  0.00    +0.006 C 
ATOM      9  C   UNL     1      33.927 -16.403 -24.479  0.00  0.00    +0.000 C 
ENDROOT
BRANCH   1  13
ATOM     10  C   UNL     1      33.785 -21.752 -17.797  0.00  0.00    -0.024 C 
ATOM     11  C   UNL     1      32.589 -21.306 -18.359  0.00  0.00    -0.003 C 
ATOM     12  C   UNL     1      35.003 -21.254 -18.263  0.00  0.00    -0.003 C 
ATOM     13  C   UNL     1      33.826 -19.864 -19.850  0.00  0.00    +0.074 C 
ATOM     14  C   UNL     1      32.609 -20.362 -19.385  0.00  0.00    +0.016 C 
ATOM     15  C   UNL     1      35.023 -20.311 -19.289  0.00  0.00    +0.016 C 
BRANCH  10  17
ATOM     16  N   UNL     1      34.862 -23.550 -14.592  0.00  0.00    +0.384 N 
ATOM     17  C   UNL     1      33.763 -22.778 -16.678  0.00  0.00    +0.001 C 
ATOM     18  C   UNL     1      32.391 -22.840 -15.987  0.00  0.00    +0.000 C 
ATOM     19  C   UNL     1      34.881 -22.534 -15.647  0.00  0.00    -0.077 C 
ATOM     20  C   UNL     1      32.421 -23.844 -14.837  0.00  0.00    -0.023 C 
ATOM     21  C   UNL     1      33.581 -23.565 -13.885  0.00  0.00    -0.082 C 
ATOM     22  H   UNL     1      35.606 -23.348 -13.924  0.00  0.00    -0.085 HD
ATOM     23  H   UNL     1      35.000 -24.463 -15.024  0.00  0.00    -0.085 HD
ENDBRANCH  10  17
ENDBRANCH   1  13
BRANCH   6  26
ATOM     24  O   UNL     1      34.115 -13.396 -21.392  0.00  0.00    -0.270 OA
ATOM     25  N   UNL     1      33.470 -14.914 -19.800  0.00  0.00    -0.325 N 
ATOM     26  C   UNL     1      33.838 -14.577 -21.103  0.00  0.00    +0.244 C 
ATOM     27  H   UNL     1      33.441 -14.220 -19.101  0.00  0.00    +0.145 HD
ATOM     28  H   UNL     1      33.240 -15.845 -19.579  0.00  0.00    +0.145 HD
ENDBRANCH   6  26
TORSDOF 3
ENDMDL
MODEL 6
REMARK VINA RESULT:      -9.9      7.830     11.056
REMARK  Name = 24958200
REMARK  3 active torsions:
REMARK  status: ('A' for Active; 'I' for Inactive)
REMARK    1  A    between atoms: N_1  and  C_13
REMARK    2  A    between atoms: C_6  and  C_26
REMARK    3  A    between atoms: C_10  and  C_17
REMARK                            x       y       z     vdW  Elec       q    Type
REMARK                         _______ _______ _______ _____ _____    ______ ____
ROOT
ATOM      1  N   UNL     1      33.321 -15.007 -23.435  0.00  0.00    -0.189 N 
ATOM      2  N   UNL     1      34.155 -15.602 -22.561  0.00  0.00    -0.174 NA
ATOM      3  C   UNL     1      33.046 -17.107 -23.852  0.00  0.00    +0.036 C 
ATOM      4  C   UNL     1      32.626 -15.864 -24.238  0.00  0.00    +0.091 C 
ATOM      5  C   UNL     1      34.009 -16.919 -22.795  0.00  0.00    +0.105 C 
ATOM      6  C   UNL     1      34.628 -18.027 -22.185  0.00  0.00    +0.072 C 
ATOM      7  C   UNL     1      32.613 -18.311 -24.392  0.00  0.00    +0.003 C 
ATOM      8  C   UNL     1      34.207 -19.268 -22.712  0.00  0.00    +0.006 C 
ATOM      9  C   UNL     1      33.246 -19.401 -23.764  0.00  0.00    +0.000 C 
ENDROOT
BRANCH   1  13
ATOM     10  C   UNL     1      33.012 -10.847 -23.526  0.00  0.00    -0.024 C 
ATOM     11  C   UNL     1      32.988 -11.574 -24.716  0.00  0.00    -0.003 C 
ATOM     12  C   UNL     1      33.139 -11.510 -22.305  0.00  0.00    -0.003 C 
ATOM     13  C   UNL     1      33.219 -13.628 -23.465  0.00  0.00    +0.074 C 
ATOM     14  C   UNL     1      33.091 -12.965 -24.685  0.00  0.00    +0.016 C 
ATOM     15  C   UNL     1      33.242 -12.901 -22.275  0.00  0.00    +0.016 C 
BRANCH  10  17
ATOM     16  N   UNL     1      31.796  -7.344 -22.570  0.00  0.00    +0.384 N 
ATOM     17  C   UNL     1      32.901  -9.333 -23.559  0.00  0.00    +0.001 C 
ATOM     18  C   UNL     1      34.273  -8.657 -23.403  0.00  0.00    +0.000 C 
ATOM     19  C   UNL     1      31.911  -8.803 -22.505  0.00  0.00    -0.077 C 
ATOM     20  C   UNL     1      34.118  -7.138 -23.390  0.00  0.00    -0.023 C 
ATOM     21  C   UNL     1      33.088  -6.694 -22.354  0.00  0.00    -0.082 C 
ATOM     22  H   UNL     1      31.142  -7.030 -21.852  0.00  0.00    -0.085 HD
ATOM     23  H   UNL     1      31.461  -7.090 -23.501  0.00  0.00    -0.085 HD
ENDBRANCH  10  17
ENDBRANCH   1  13
BRANCH   6  26
ATOM     24  O   UNL     1      35.268 -17.616 -19.957  0.00  0.00    -0.270 OA
ATOM     25  N   UNL     1      36.939 -18.163 -21.428  0.00  0.00    -0.325 N 
ATOM     26  C   UNL     1      35.601 -17.913 -21.121  0.00  0.00    +0.244 C 
ATOM     27  H   UNL     1      37.627 -18.094 -20.727  0.00  0.00    +0.145 HD
ATOM     28  H   UNL     1      37.196 -18.410 -22.346  0.00  0.00    +0.145 HD
ENDBRANCH   6  26
TORSDOF 3
ENDMDL
MODEL 7
REMARK VINA RESULT:      -9.9      5.816      8.094
REMARK  Name = 24958200
REMARK  3 active torsions:
REMARK  status: ('A' for Active; 'I' for Inactive)
REMARK    1  A    between atoms: N_1  and  C_13
REMARK    2  A    between atoms: C_6  and  C_26
REMARK    3  A    between atoms: C_10  and  C_17
REMARK                            x       y       z     vdW  Elec       q    Type
REMARK                         _______ _______ _______ _____ _____    ______ ____
ROOT
ATOM      1  N   UNL     1      33.027 -23.863 -12.856  0.00  0.00    -0.189 N 
ATOM      2  N   UNL     1      33.881 -24.720 -13.449  0.00  0.00    -0.174 NA
ATOM      3  C   UNL     1      34.802 -23.704 -11.638  0.00  0.00    +0.036 C 
ATOM      4  C   UNL     1      33.529 -23.223 -11.760  0.00  0.00    +0.091 C 
ATOM      5  C   UNL     1      35.004 -24.646 -12.712  0.00  0.00    +0.105 C 
ATOM      6  C   UNL     1      36.233 -25.316 -12.855  0.00  0.00    +0.072 C 
ATOM      7  C   UNL     1      35.714 -23.341 -10.655  0.00  0.00    +0.003 C 
ATOM      8  C   UNL     1      37.184 -24.967 -11.870  0.00  0.00    +0.006 C 
ATOM      9  C   UNL     1      36.934 -24.025 -10.822  0.00  0.00    +0.000 C 
ENDROOT
BRANCH   1  13
ATOM     10  C   UNL     1      29.186 -23.340 -14.400  0.00  0.00    -0.024 C 
ATOM     11  C   UNL     1      30.254 -22.613 -14.925  0.00  0.00    -0.003 C 
ATOM     12  C   UNL     1      29.402 -24.243 -13.358  0.00  0.00    -0.003 C 
ATOM     13  C   UNL     1      31.754 -23.689 -13.367  0.00  0.00    +0.074 C 
ATOM     14  C   UNL     1      31.538 -22.787 -14.409  0.00  0.00    +0.016 C 
ATOM     15  C   UNL     1      30.686 -24.418 -12.842  0.00  0.00    +0.016 C 
BRANCH  10  17
ATOM     16  N   UNL     1      25.680 -21.851 -14.793  0.00  0.00    +0.384 N 
ATOM     17  C   UNL     1      27.789 -23.149 -14.960  0.00  0.00    +0.001 C 
ATOM     18  C   UNL     1      27.809 -22.933 -16.482  0.00  0.00    +0.000 C 
ATOM     19  C   UNL     1      27.036 -22.002 -14.259  0.00  0.00    -0.077 C 
ATOM     20  C   UNL     1      26.393 -22.695 -17.003  0.00  0.00    -0.023 C 
ATOM     21  C   UNL     1      25.697 -21.578 -16.230  0.00  0.00    -0.082 C 
ATOM     22  H   UNL     1      25.219 -21.078 -14.313  0.00  0.00    -0.085 HD
ATOM     23  H   UNL     1      25.176 -22.726 -14.639  0.00  0.00    -0.085 HD
ENDBRANCH  10  17
ENDBRANCH   1  13
BRANCH   6  26
ATOM     24  O   UNL     1      37.667 -26.632 -14.181  0.00  0.00    -0.270 OA
ATOM     25  N   UNL     1      35.420 -26.802 -14.606  0.00  0.00    -0.325 N 
ATOM     26  C   UNL     1      36.505 -26.271 -13.907  0.00  0.00    +0.244 C 
ATOM     27  H   UNL     1      35.570 -27.455 -15.327  0.00  0.00    +0.145 HD
ATOM     28  H   UNL     1      34.504 -26.524 -14.377  0.00  0.00    +0.145 HD
ENDBRANCH   6  26
TORSDOF 3
ENDMDL
MODEL 8
REMARK VINA RESULT:      -9.6      4.156      8.761
REMARK  Name = 24958200
REMARK  3 active torsions:
REMARK  status: ('A' for Active; 'I' for Inactive)
REMARK    1  A    between atoms: N_1  and  C_13
REMARK    2  A    between atoms: C_6  and  C_26
REMARK    3  A    between atoms: C_10  and  C_17
REMARK                            x       y       z     vdW  Elec       q    Type
REMARK                         _______ _______ _______ _____ _____    ______ ____
ROOT
ATOM      1  N   UNL     1      34.048 -21.274 -17.986  0.00  0.00    -0.189 N 
ATOM      2  N   UNL     1      35.028 -20.512 -18.508  0.00  0.00    -0.174 NA
ATOM      3  C   UNL     1      33.104 -20.382 -19.710  0.00  0.00    +0.036 C 
ATOM      4  C   UNL     1      32.867 -21.235 -18.668  0.00  0.00    +0.091 C 
ATOM      5  C   UNL     1      34.472 -19.938 -19.590  0.00  0.00    +0.105 C 
ATOM      6  C   UNL     1      35.018 -19.042 -20.528  0.00  0.00    +0.072 C 
ATOM      7  C   UNL     1      32.186 -20.024 -20.688  0.00  0.00    +0.003 C 
ATOM      8  C   UNL     1      34.108 -18.658 -21.538  0.00  0.00    +0.006 C 
ATOM      9  C   UNL     1      32.759 -19.128 -21.612  0.00  0.00    +0.000 C 
ENDROOT
BRANCH   1  13
ATOM     10  C   UNL     1      34.760 -23.520 -14.541  0.00  0.00    -0.024 C 
ATOM     11  C   UNL     1      33.503 -23.550 -15.146  0.00  0.00    -0.003 C 
ATOM     12  C   UNL     1      35.779 -22.740 -15.089  0.00  0.00    -0.003 C 
ATOM     13  C   UNL     1      34.283 -22.018 -16.844  0.00  0.00    +0.074 C 
ATOM     14  C   UNL     1      33.265 -22.799 -16.297  0.00  0.00    +0.016 C 
ATOM     15  C   UNL     1      35.541 -21.989 -16.240  0.00  0.00    +0.016 C 
BRANCH  10  17
ATOM     16  N   UNL     1      36.043 -26.401 -12.369  0.00  0.00    +0.384 N 
ATOM     17  C   UNL     1      35.019 -24.336 -13.288  0.00  0.00    +0.001 C 
ATOM     18  C   UNL     1      35.706 -23.501 -12.196  0.00  0.00    +0.000 C 
ATOM     19  C   UNL     1      35.827 -25.613 -13.585  0.00  0.00    -0.077 C 
ATOM     20  C   UNL     1      35.996 -24.364 -10.971  0.00  0.00    -0.023 C 
ATOM     21  C   UNL     1      36.758 -25.631 -11.352  0.00  0.00    -0.082 C 
ATOM     22  H   UNL     1      36.590 -27.229 -12.604  0.00  0.00    -0.085 HD
ATOM     23  H   UNL     1      35.132 -26.663 -11.992  0.00  0.00    -0.085 HD
ENDBRANCH  10  17
ENDBRANCH   1  13
BRANCH   6  26
ATOM     24  O   UNL     1      37.054 -18.370 -21.501  0.00  0.00    -0.270 OA
ATOM     25  N   UNL     1      36.922 -18.278 -19.214  0.00  0.00    -0.325 N 
ATOM     26  C   UNL     1      36.379 -18.556 -20.469  0.00  0.00    +0.244 C 
ATOM     27  H   UNL     1      37.846 -17.945 -19.139  0.00  0.00    +0.145 HD
ATOM     28  H   UNL     1      36.381 -18.414 -18.403  0.00  0.00    +0.145 HD
ENDBRANCH   6  26
TORSDOF 3
ENDMDL
MODEL 9
REMARK VINA RESULT:      -9.6      9.785     14.268
REMARK  Name = 24958200
REMARK  3 active torsions:
REMARK  status: ('A' for Active; 'I' for Inactive)
REMARK    1  A    between atoms: N_1  and  C_13
REMARK    2  A    between atoms: C_6  and  C_26
REMARK    3  A    between atoms: C_10  and  C_17
REMARK                            x       y       z     vdW  Elec       q    Type
REMARK                         _______ _______ _______ _____ _____    ______ ____
ROOT
ATOM      1  N   UNL     1      31.813  -8.781 -22.133  0.00  0.00    -0.189 N 
ATOM      2  N   UNL     1      31.709  -8.237 -20.906  0.00  0.00    -0.174 NA
ATOM      3  C   UNL     1      31.496  -6.688 -22.554  0.00  0.00    +0.036 C 
ATOM      4  C   UNL     1      31.693  -7.895 -23.164  0.00  0.00    +0.091 C 
ATOM      5  C   UNL     1      31.509  -6.925 -21.131  0.00  0.00    +0.105 C 
ATOM      6  C   UNL     1      31.330  -5.862 -20.227  0.00  0.00    +0.072 C 
ATOM      7  C   UNL     1      31.318  -5.473 -23.203  0.00  0.00    +0.003 C 
ATOM      8  C   UNL     1      31.147  -4.611 -20.856  0.00  0.00    +0.006 C 
ATOM      9  C   UNL     1      31.141  -4.428 -22.275  0.00  0.00    +0.000 C 
ENDROOT
BRANCH   1  13
ATOM     10  C   UNL     1      32.458 -12.883 -22.553  0.00  0.00    -0.024 C 
ATOM     11  C   UNL     1      31.630 -12.407 -21.536  0.00  0.00    -0.003 C 
ATOM     12  C   UNL     1      33.070 -11.987 -23.430  0.00  0.00    -0.003 C 
ATOM     13  C   UNL     1      32.027 -10.140 -22.272  0.00  0.00    +0.074 C 
ATOM     14  C   UNL     1      31.414 -11.036 -21.395  0.00  0.00    +0.016 C 
ATOM     15  C   UNL     1      32.855 -10.616 -23.290  0.00  0.00    +0.016 C 
BRANCH  10  17
ATOM     16  N   UNL     1      32.941 -16.251 -24.309  0.00  0.00    +0.384 N 
ATOM     17  C   UNL     1      32.694 -14.374 -22.705  0.00  0.00    +0.001 C 
ATOM     18  C   UNL     1      33.963 -14.829 -21.966  0.00  0.00    +0.000 C 
ATOM     19  C   UNL     1      32.741 -14.805 -24.183  0.00  0.00    -0.077 C 
ATOM     20  C   UNL     1      34.196 -16.323 -22.182  0.00  0.00    -0.023 C 
ATOM     21  C   UNL     1      34.183 -16.678 -23.667  0.00  0.00    -0.082 C 
ATOM     22  H   UNL     1      32.978 -16.494 -25.299  0.00  0.00    -0.085 HD
ATOM     23  H   UNL     1      32.162 -16.723 -23.849  0.00  0.00    -0.085 HD
ENDBRANCH  10  17
ENDBRANCH   1  13
BRANCH   6  26
ATOM     24  O   UNL     1      31.810  -5.161 -18.031  0.00  0.00    -0.270 OA
ATOM     25  N   UNL     1      30.762  -7.187 -18.263  0.00  0.00    -0.325 N 
ATOM     26  C   UNL     1      31.332  -6.028 -18.789  0.00  0.00    +0.244 C 
ATOM     27  H   UNL     1      30.746  -7.330 -17.288  0.00  0.00    +0.145 HD
ATOM     28  H   UNL     1      30.373  -7.862 -18.865  0.00  0.00    +0.145 HD
ENDBRANCH   6  26
TORSDOF 3
ENDMDL
