MODEL 1
REMARK VINA RESULT:     -11.2      0.000      0.000
REMARK  Name = 445756
REMARK  6 active torsions:
REMARK  status: ('A' for Active; 'I' for Inactive)
REMARK    1  A    between atoms: C_3  and  C_11
REMARK    2  A    between atoms: C_6  and  C_22
REMARK    3  A    between atoms: C_11  and  N_12
REMARK    4  A    between atoms: C_22  and  N_23
REMARK    5  A    between atoms: N_23  and  C_25
REMARK    6  A    between atoms: C_30  and  C_33
REMARK                            x       y       z     vdW  Elec       q    Type
REMARK                         _______ _______ _______ _____ _____    ______ ____
ROOT
ATOM      1  N   UNL     1      32.250 -21.731 -17.726  0.00  0.00    -0.261 N 
ATOM      2  N   UNL     1      34.454 -22.016 -17.672  0.00  0.00    -0.392 NA
ATOM      3  C   UNL     1      34.353 -19.564 -20.491  0.00  0.00    -0.017 C 
ATOM      4  C   UNL     1      32.748 -20.926 -18.718  0.00  0.00    +0.079 C 
ATOM      5  C   UNL     1      34.125 -21.121 -18.664  0.00  0.00    +0.128 C 
ATOM      6  C   UNL     1      33.307 -22.361 -17.130  0.00  0.00    +0.183 C 
ATOM      7  C   UNL     1      34.951 -20.429 -19.566  0.00  0.00    +0.084 C 
ATOM      8  C   UNL     1      32.968 -19.388 -20.520  0.00  0.00    -0.005 C 
ATOM      9  C   UNL     1      32.130 -20.068 -19.630  0.00  0.00    +0.017 C 
ATOM     10  C   UNL     1      30.856 -21.883 -17.375  0.00  0.00    +0.120 C 
ENDROOT
BRANCH   3  11
ATOM     11  C   UNL     1      35.212 -18.817 -21.459  0.00  0.00    +0.120 C 
BRANCH  11  12
ATOM     12  N   UNL     1      34.413 -18.143 -22.487  0.00  0.00    -0.260 N 
ATOM     13  N   UNL     1      33.256 -17.856 -24.340  0.00  0.00    -0.394 NA
ATOM     14  C   UNL     1      34.034 -16.838 -22.455  0.00  0.00    +0.079 C 
ATOM     15  C   UNL     1      33.937 -18.718 -23.618  0.00  0.00    +0.164 C 
ATOM     16  C   UNL     1      33.306 -16.678 -23.631  0.00  0.00    +0.128 C 
ATOM     17  C   UNL     1      34.247 -15.807 -21.540  0.00  0.00    +0.017 C 
ATOM     18  C   UNL     1      34.173 -20.136 -23.956  0.00  0.00    +0.084 C 
ATOM     19  C   UNL     1      32.752 -15.421 -23.927  0.00  0.00    +0.086 C 
ATOM     20  C   UNL     1      33.689 -14.563 -21.852  0.00  0.00    -0.003 C 
ATOM     21  C   UNL     1      32.953 -14.371 -23.023  0.00  0.00    -0.019 C 
ENDBRANCH  11  12
ENDBRANCH   3  11
BRANCH   6  22
ATOM     22  C   UNL     1      33.128 -23.311 -16.013  0.00  0.00    +0.164 C 
BRANCH  22  23
ATOM     23  N   UNL     1      33.898 -23.007 -14.812  0.00  0.00    -0.326 N 
ATOM     24  H   UNL     1      33.497 -22.412 -14.137  0.00  0.00    +0.147 HD
BRANCH  23  25
ATOM     25  C   UNL     1      35.158 -23.511 -14.575  0.00  0.00    +0.045 C 
ATOM     26  C   UNL     1      35.338 -24.792 -14.010  0.00  0.00    +0.014 C 
ATOM     27  C   UNL     1      36.313 -22.763 -14.887  0.00  0.00    +0.014 C 
ATOM     28  C   UNL     1      36.614 -25.301 -13.769  0.00  0.00    +0.004 C 
ATOM     29  C   UNL     1      37.589 -23.271 -14.645  0.00  0.00    +0.004 C 
ATOM     30  C   UNL     1      37.739 -24.540 -14.086  0.00  0.00    +0.031 C 
BRANCH  30  33
ATOM     31  N   UNL     1      39.263 -26.399 -13.463  0.00  0.00    -0.343 N 
ATOM     32  N   UNL     1      40.125 -24.283 -13.949  0.00  0.00    -0.285 NA
ATOM     33  C   UNL     1      39.070 -25.070 -13.833  0.00  0.00    +0.117 C 
ATOM     34  H   UNL     1      40.173 -26.737 -13.297  0.00  0.00    +0.144 HD
ATOM     35  H   UNL     1      38.489 -27.001 -13.368  0.00  0.00    +0.144 HD
ATOM     36  H   UNL     1      41.027 -24.640 -13.778  0.00  0.00    +0.188 HD
ENDBRANCH  30  33
ENDBRANCH  23  25
ENDBRANCH  22  23
ENDBRANCH   6  22
TORSDOF 6
ENDMDL
MODEL 2
REMARK VINA RESULT:     -10.8      1.784      2.081
REMARK  Name = 445756
REMARK  6 active torsions:
REMARK  status: ('A' for Active; 'I' for Inactive)
REMARK    1  A    between atoms: C_3  and  C_11
REMARK    2  A    between atoms: C_6  and  C_22
REMARK    3  A    between atoms: C_11  and  N_12
REMARK    4  A    between atoms: C_22  and  N_23
REMARK    5  A    between atoms: N_23  and  C_25
REMARK    6  A    between atoms: C_30  and  C_33
REMARK                            x       y       z     vdW  Elec       q    Type
REMARK                         _______ _______ _______ _____ _____    ______ ____
ROOT
ATOM      1  N   UNL     1      32.254 -21.717 -17.916  0.00  0.00    -0.261 N 
ATOM      2  N   UNL     1      34.449 -22.064 -17.959  0.00  0.00    -0.392 NA
ATOM      3  C   UNL     1      34.330 -19.400 -20.579  0.00  0.00    -0.017 C 
ATOM      4  C   UNL     1      32.743 -20.852 -18.861  0.00  0.00    +0.079 C 
ATOM      5  C   UNL     1      34.115 -21.087 -18.868  0.00  0.00    +0.128 C 
ATOM      6  C   UNL     1      33.311 -22.420 -17.407  0.00  0.00    +0.183 C 
ATOM      7  C   UNL     1      34.932 -20.350 -19.742  0.00  0.00    +0.084 C 
ATOM      8  C   UNL     1      32.950 -19.186 -20.547  0.00  0.00    -0.005 C 
ATOM      9  C   UNL     1      32.122 -19.910 -19.683  0.00  0.00    +0.017 C 
ATOM     10  C   UNL     1      30.868 -21.859 -17.531  0.00  0.00    +0.120 C 
ENDROOT
BRANCH   3  11
ATOM     11  C   UNL     1      35.179 -18.604 -21.515  0.00  0.00    +0.120 C 
BRANCH  11  12
ATOM     12  N   UNL     1      34.378 -17.957 -22.559  0.00  0.00    -0.260 N 
ATOM     13  N   UNL     1      33.225 -17.716 -24.421  0.00  0.00    -0.394 NA
ATOM     14  C   UNL     1      33.986 -16.655 -22.553  0.00  0.00    +0.079 C 
ATOM     15  C   UNL     1      33.911 -18.558 -23.680  0.00  0.00    +0.164 C 
ATOM     16  C   UNL     1      33.261 -16.524 -23.734  0.00  0.00    +0.128 C 
ATOM     17  C   UNL     1      34.186 -15.605 -21.656  0.00  0.00    +0.017 C 
ATOM     18  C   UNL     1      34.162 -19.980 -23.991  0.00  0.00    +0.084 C 
ATOM     19  C   UNL     1      32.696 -15.279 -24.056  0.00  0.00    +0.086 C 
ATOM     20  C   UNL     1      33.616 -14.373 -21.993  0.00  0.00    -0.003 C 
ATOM     21  C   UNL     1      32.884 -14.210 -23.171  0.00  0.00    -0.019 C 
ENDBRANCH  11  12
ENDBRANCH   3  11
BRANCH   6  22
ATOM     22  C   UNL     1      33.140 -23.447 -16.360  0.00  0.00    +0.164 C 
BRANCH  22  23
ATOM     23  N   UNL     1      32.781 -22.936 -15.042  0.00  0.00    -0.326 N 
ATOM     24  H   UNL     1      31.939 -22.432 -14.949  0.00  0.00    +0.147 HD
BRANCH  23  25
ATOM     25  C   UNL     1      33.561 -23.121 -13.921  0.00  0.00    +0.045 C 
ATOM     26  C   UNL     1      33.038 -23.725 -12.758  0.00  0.00    +0.014 C 
ATOM     27  C   UNL     1      34.911 -22.711 -13.897  0.00  0.00    +0.014 C 
ATOM     28  C   UNL     1      33.827 -23.911 -11.624  0.00  0.00    +0.004 C 
ATOM     29  C   UNL     1      35.701 -22.896 -12.763  0.00  0.00    +0.004 C 
ATOM     30  C   UNL     1      35.159 -23.495 -11.626  0.00  0.00    +0.031 C 
BRANCH  30  33
ATOM     31  N   UNL     1      37.373 -23.714 -10.523  0.00  0.00    -0.343 N 
ATOM     32  N   UNL     1      35.410 -23.845  -9.262  0.00  0.00    -0.285 NA
ATOM     33  C   UNL     1      35.982 -23.687 -10.443  0.00  0.00    +0.117 C 
ATOM     34  H   UNL     1      37.911 -23.845  -9.709  0.00  0.00    +0.144 HD
ATOM     35  H   UNL     1      37.818 -23.601 -11.394  0.00  0.00    +0.144 HD
ATOM     36  H   UNL     1      35.966 -23.975  -8.459  0.00  0.00    +0.188 HD
ENDBRANCH  30  33
ENDBRANCH  23  25
ENDBRANCH  22  23
ENDBRANCH   6  22
TORSDOF 6
ENDMDL
MODEL 3
REMARK VINA RESULT:     -10.8      1.789     10.589
REMARK  Name = 445756
REMARK  6 active torsions:
REMARK  status: ('A' for Active; 'I' for Inactive)
REMARK    1  A    between atoms: C_3  and  C_11
REMARK    2  A    between atoms: C_6  and  C_22
REMARK    3  A    between atoms: C_11  and  N_12
REMARK    4  A    between atoms: C_22  and  N_23
REMARK    5  A    between atoms: N_23  and  C_25
REMARK    6  A    between atoms: C_30  and  C_33
REMARK                            x       y       z     vdW  Elec       q    Type
REMARK                         _______ _______ _______ _____ _____    ______ ____
ROOT
ATOM      1  N   UNL     1      33.557 -21.917 -17.740  0.00  0.00    -0.261 N 
ATOM      2  N   UNL     1      35.637 -21.822 -16.965  0.00  0.00    -0.392 NA
ATOM      3  C   UNL     1      34.055 -23.303 -13.919  0.00  0.00    -0.017 C 
ATOM      4  C   UNL     1      33.496 -22.422 -16.467  0.00  0.00    +0.079 C 
ATOM      5  C   UNL     1      34.808 -22.352 -16.004  0.00  0.00    +0.128 C 
ATOM      6  C   UNL     1      34.855 -21.572 -17.991  0.00  0.00    +0.183 C 
ATOM      7  C   UNL     1      35.101 -22.800 -14.705  0.00  0.00    +0.084 C 
ATOM      8  C   UNL     1      32.750 -23.361 -14.412  0.00  0.00    -0.005 C 
ATOM      9  C   UNL     1      32.440 -22.920 -15.703  0.00  0.00    +0.017 C 
ATOM     10  C   UNL     1      32.443 -21.777 -18.651  0.00  0.00    +0.120 C 
ENDROOT
BRANCH   3  11
ATOM     11  C   UNL     1      34.344 -23.786 -12.536  0.00  0.00    +0.120 C 
BRANCH  11  12
ATOM     12  N   UNL     1      35.782 -23.960 -12.310  0.00  0.00    -0.260 N 
ATOM     13  N   UNL     1      37.778 -23.682 -11.419  0.00  0.00    -0.394 NA
ATOM     14  C   UNL     1      36.589 -24.802 -13.009  0.00  0.00    +0.079 C 
ATOM     15  C   UNL     1      36.518 -23.311 -11.376  0.00  0.00    +0.164 C 
ATOM     16  C   UNL     1      37.842 -24.612 -12.432  0.00  0.00    +0.128 C 
ATOM     17  C   UNL     1      36.357 -25.689 -14.061  0.00  0.00    +0.017 C 
ATOM     18  C   UNL     1      35.938 -22.321 -10.445  0.00  0.00    +0.084 C 
ATOM     19  C   UNL     1      38.938 -25.342 -12.921  0.00  0.00    +0.086 C 
ATOM     20  C   UNL     1      37.460 -26.406 -14.535  0.00  0.00    -0.003 C 
ATOM     21  C   UNL     1      38.729 -26.237 -13.976  0.00  0.00    -0.019 C 
ENDBRANCH  11  12
ENDBRANCH   3  11
BRANCH   6  22
ATOM     22  C   UNL     1      35.278 -20.990 -19.281  0.00  0.00    +0.164 C 
BRANCH  22  23
ATOM     23  N   UNL     1      35.177 -19.538 -19.370  0.00  0.00    -0.326 N 
ATOM     24  H   UNL     1      35.433 -19.002 -18.584  0.00  0.00    +0.147 HD
BRANCH  23  25
ATOM     25  C   UNL     1      34.738 -18.879 -20.498  0.00  0.00    +0.045 C 
ATOM     26  C   UNL     1      34.135 -19.580 -21.565  0.00  0.00    +0.014 C 
ATOM     27  C   UNL     1      34.880 -17.481 -20.627  0.00  0.00    +0.014 C 
ATOM     28  C   UNL     1      33.693 -18.913 -22.707  0.00  0.00    +0.004 C 
ATOM     29  C   UNL     1      34.438 -16.814 -21.770  0.00  0.00    +0.004 C 
ATOM     30  C   UNL     1      33.846 -17.530 -22.810  0.00  0.00    +0.031 C 
BRANCH  30  33
ATOM     31  N   UNL     1      32.099 -17.023 -24.500  0.00  0.00    -0.343 N 
ATOM     32  N   UNL     1      34.199 -16.007 -24.635  0.00  0.00    -0.285 NA
ATOM     33  C   UNL     1      33.386 -16.835 -24.002  0.00  0.00    +0.117 C 
ATOM     34  H   UNL     1      31.809 -16.542 -25.309  0.00  0.00    +0.144 HD
ATOM     35  H   UNL     1      31.480 -17.638 -24.044  0.00  0.00    +0.144 HD
ATOM     36  H   UNL     1      33.890 -15.535 -25.443  0.00  0.00    +0.188 HD
ENDBRANCH  30  33
ENDBRANCH  23  25
ENDBRANCH  22  23
ENDBRANCH   6  22
TORSDOF 6
ENDMDL
MODEL 4
REMARK VINA RESULT:     -10.6      5.110      9.527
REMARK  Name = 445756
REMARK  6 active torsions:
REMARK  status: ('A' for Active; 'I' for Inactive)
REMARK    1  A    between atoms: C_3  and  C_11
REMARK    2  A    between atoms: C_6  and  C_22
REMARK    3  A    between atoms: C_11  and  N_12
REMARK    4  A    between atoms: C_22  and  N_23
REMARK    5  A    between atoms: N_23  and  C_25
REMARK    6  A    between atoms: C_30  and  C_33
REMARK                            x       y       z     vdW  Elec       q    Type
REMARK                         _______ _______ _______ _____ _____    ______ ____
ROOT
ATOM      1  N   UNL     1      32.653 -14.497 -24.596  0.00  0.00    -0.261 N 
ATOM      2  N   UNL     1      33.673 -14.145 -22.653  0.00  0.00    -0.392 NA
ATOM      3  C   UNL     1      33.199 -10.562 -23.604  0.00  0.00    -0.017 C 
ATOM      4  C   UNL     1      32.731 -13.134 -24.465  0.00  0.00    +0.079 C 
ATOM      5  C   UNL     1      33.372 -12.940 -23.243  0.00  0.00    +0.128 C 
ATOM      6  C   UNL     1      33.230 -15.056 -23.490  0.00  0.00    +0.183 C 
ATOM      7  C   UNL     1      33.613 -11.630 -22.797  0.00  0.00    +0.084 C 
ATOM      8  C   UNL     1      32.557 -10.789 -24.824  0.00  0.00    -0.005 C 
ATOM      9  C   UNL     1      32.308 -12.086 -25.283  0.00  0.00    +0.017 C 
ATOM     10  C   UNL     1      32.066 -15.211 -25.707  0.00  0.00    +0.120 C 
ENDROOT
BRANCH   3  11
ATOM     11  C   UNL     1      33.444  -9.161 -23.149  0.00  0.00    +0.120 C 
BRANCH  11  12
ATOM     12  N   UNL     1      32.218  -8.357 -23.176  0.00  0.00    -0.260 N 
ATOM     13  N   UNL     1      30.252  -7.574 -22.564  0.00  0.00    -0.394 NA
ATOM     14  C   UNL     1      31.909  -7.431 -24.122  0.00  0.00    +0.079 C 
ATOM     15  C   UNL     1      31.215  -8.418 -22.267  0.00  0.00    +0.164 C 
ATOM     16  C   UNL     1      30.667  -6.950 -23.717  0.00  0.00    +0.128 C 
ATOM     17  C   UNL     1      32.573  -6.976 -25.262  0.00  0.00    +0.017 C 
ATOM     18  C   UNL     1      31.241  -9.329 -21.105  0.00  0.00    +0.084 C 
ATOM     19  C   UNL     1      30.036  -5.955 -24.483  0.00  0.00    +0.086 C 
ATOM     20  C   UNL     1      31.929  -5.987 -26.012  0.00  0.00    -0.003 C 
ATOM     21  C   UNL     1      30.683  -5.483 -25.632  0.00  0.00    -0.019 C 
ENDBRANCH  11  12
ENDBRANCH   3  11
BRANCH   6  22
ATOM     22  C   UNL     1      33.319 -16.519 -23.305  0.00  0.00    +0.164 C 
BRANCH  22  23
ATOM     23  N   UNL     1      34.590 -17.002 -22.777  0.00  0.00    -0.326 N 
ATOM     24  H   UNL     1      35.422 -16.618 -23.138  0.00  0.00    +0.147 HD
BRANCH  23  25
ATOM     25  C   UNL     1      34.684 -17.970 -21.801  0.00  0.00    +0.045 C 
ATOM     26  C   UNL     1      33.587 -18.801 -21.489  0.00  0.00    +0.014 C 
ATOM     27  C   UNL     1      35.879 -18.162 -21.077  0.00  0.00    +0.014 C 
ATOM     28  C   UNL     1      33.681 -19.779 -20.499  0.00  0.00    +0.004 C 
ATOM     29  C   UNL     1      35.974 -19.140 -20.087  0.00  0.00    +0.004 C 
ATOM     30  C   UNL     1      34.875 -19.948 -19.798  0.00  0.00    +0.031 C 
BRANCH  30  33
ATOM     31  N   UNL     1      35.870 -20.841 -17.706  0.00  0.00    -0.343 N 
ATOM     32  N   UNL     1      34.205 -22.040 -18.824  0.00  0.00    -0.285 NA
ATOM     33  C   UNL     1      34.973 -20.967 -18.765  0.00  0.00    +0.117 C 
ATOM     34  H   UNL     1      35.920 -21.543 -17.017  0.00  0.00    +0.144 HD
ATOM     35  H   UNL     1      36.453 -20.050 -17.645  0.00  0.00    +0.144 HD
ATOM     36  H   UNL     1      34.270 -22.732 -18.125  0.00  0.00    +0.188 HD
ENDBRANCH  30  33
ENDBRANCH  23  25
ENDBRANCH  22  23
ENDBRANCH   6  22
TORSDOF 6
ENDMDL
MODEL 5
REMARK VINA RESULT:     -10.5      7.285     14.087
REMARK  Name = 445756
REMARK  6 active torsions:
REMARK  status: ('A' for Active; 'I' for Inactive)
REMARK    1  A    between atoms: C_3  and  C_11
REMARK    2  A    between atoms: C_6  and  C_22
REMARK    3  A    between atoms: C_11  and  N_12
REMARK    4  A    between atoms: C_22  and  N_23
REMARK    5  A    between atoms: N_23  and  C_25
REMARK    6  A    between atoms: C_30  and  C_33
REMARK                            x       y       z     vdW  Elec       q    Type
REMARK                         _______ _______ _______ _____ _____    ______ ____
ROOT
ATOM      1  N   UNL     1      30.839 -10.418 -20.799  0.00  0.00    -0.261 N 
ATOM      2  N   UNL     1      32.065  -9.629 -22.477  0.00  0.00    -0.392 NA
ATOM      3  C   UNL     1      33.321 -13.148 -22.573  0.00  0.00    -0.017 C 
ATOM      4  C   UNL     1      31.584 -11.481 -21.240  0.00  0.00    +0.079 C 
ATOM      5  C   UNL     1      32.340 -10.963 -22.288  0.00  0.00    +0.128 C 
ATOM      6  C   UNL     1      31.162  -9.335 -21.568  0.00  0.00    +0.183 C 
ATOM      7  C   UNL     1      33.229 -11.808 -22.974  0.00  0.00    +0.084 C 
ATOM      8  C   UNL     1      32.548 -13.638 -21.519  0.00  0.00    -0.005 C 
ATOM      9  C   UNL     1      31.658 -12.812 -20.825  0.00  0.00    +0.017 C 
ATOM     10  C   UNL     1      29.884 -10.441 -19.714  0.00  0.00    +0.120 C 
ENDROOT
BRANCH   3  11
ATOM     11  C   UNL     1      34.258 -14.064 -23.289  0.00  0.00    +0.120 C 
BRANCH  11  12
ATOM     12  N   UNL     1      33.598 -15.308 -23.696  0.00  0.00    -0.260 N 
ATOM     13  N   UNL     1      32.266 -16.668 -24.807  0.00  0.00    -0.394 NA
ATOM     14  C   UNL     1      33.821 -16.531 -23.146  0.00  0.00    +0.079 C 
ATOM     15  C   UNL     1      32.671 -15.424 -24.677  0.00  0.00    +0.164 C 
ATOM     16  C   UNL     1      32.973 -17.373 -23.860  0.00  0.00    +0.128 C 
ATOM     17  C   UNL     1      34.659 -16.975 -22.122  0.00  0.00    +0.017 C 
ATOM     18  C   UNL     1      32.203 -14.274 -25.477  0.00  0.00    +0.084 C 
ATOM     19  C   UNL     1      32.946 -18.743 -23.546  0.00  0.00    +0.086 C 
ATOM     20  C   UNL     1      34.617 -18.341 -21.824  0.00  0.00    -0.003 C 
ATOM     21  C   UNL     1      33.777 -19.211 -22.522  0.00  0.00    -0.019 C 
ENDBRANCH  11  12
ENDBRANCH   3  11
BRANCH   6  22
ATOM     22  C   UNL     1      30.540  -8.011 -21.362  0.00  0.00    +0.164 C 
BRANCH  22  23
ATOM     23  N   UNL     1      31.476  -6.907 -21.182  0.00  0.00    -0.326 N 
ATOM     24  H   UNL     1      31.697  -6.626 -20.264  0.00  0.00    +0.147 HD
BRANCH  23  25
ATOM     25  C   UNL     1      32.066  -6.237 -22.233  0.00  0.00    +0.045 C 
ATOM     26  C   UNL     1      33.399  -6.504 -22.613  0.00  0.00    +0.014 C 
ATOM     27  C   UNL     1      31.357  -5.260 -22.964  0.00  0.00    +0.014 C 
ATOM     28  C   UNL     1      33.995  -5.825 -23.674  0.00  0.00    +0.004 C 
ATOM     29  C   UNL     1      31.954  -4.581 -24.025  0.00  0.00    +0.004 C 
ATOM     30  C   UNL     1      33.273  -4.863 -24.380  0.00  0.00    +0.031 C 
BRANCH  30  33
ATOM     31  N   UNL     1      35.130  -4.548 -25.998  0.00  0.00    -0.343 N 
ATOM     32  N   UNL     1      33.290  -3.109 -26.023  0.00  0.00    -0.285 NA
ATOM     33  C   UNL     1      33.896  -4.153 -25.487  0.00  0.00    +0.117 C 
ATOM     34  H   UNL     1      35.534  -4.053 -26.748  0.00  0.00    +0.144 HD
ATOM     35  H   UNL     1      35.599  -5.322 -25.610  0.00  0.00    +0.144 HD
ATOM     36  H   UNL     1      33.710  -2.627 -26.773  0.00  0.00    +0.188 HD
ENDBRANCH  30  33
ENDBRANCH  23  25
ENDBRANCH  22  23
ENDBRANCH   6  22
TORSDOF 6
ENDMDL
MODEL 6
REMARK VINA RESULT:     -10.4      1.836     10.451
REMARK  Name = 445756
REMARK  6 active torsions:
REMARK  status: ('A' for Active; 'I' for Inactive)
REMARK    1  A    between atoms: C_3  and  C_11
REMARK    2  A    between atoms: C_6  and  C_22
REMARK    3  A    between atoms: C_11  and  N_12
REMARK    4  A    between atoms: C_22  and  N_23
REMARK    5  A    between atoms: N_23  and  C_25
REMARK    6  A    between atoms: C_30  and  C_33
REMARK                            x       y       z     vdW  Elec       q    Type
REMARK                         _______ _______ _______ _____ _____    ______ ____
ROOT
ATOM      1  N   UNL     1      33.336 -21.355 -18.537  0.00  0.00    -0.261 N 
ATOM      2  N   UNL     1      35.333 -21.728 -17.636  0.00  0.00    -0.392 NA
ATOM      3  C   UNL     1      33.292 -23.427 -15.006  0.00  0.00    -0.017 C 
ATOM      4  C   UNL     1      33.092 -22.051 -17.381  0.00  0.00    +0.079 C 
ATOM      5  C   UNL     1      34.355 -22.272 -16.837  0.00  0.00    +0.128 C 
ATOM      6  C   UNL     1      34.689 -21.186 -18.645  0.00  0.00    +0.183 C 
ATOM      7  C   UNL     1      34.465 -22.974 -15.625  0.00  0.00    +0.084 C 
ATOM      8  C   UNL     1      32.040 -23.190 -15.577  0.00  0.00    -0.005 C 
ATOM      9  C   UNL     1      31.911 -22.494 -16.783  0.00  0.00    +0.017 C 
ATOM     10  C   UNL     1      32.339 -20.885 -19.472  0.00  0.00    +0.120 C 
ENDROOT
BRANCH   3  11
ATOM     11  C   UNL     1      33.386 -24.177 -13.718  0.00  0.00    +0.120 C 
BRANCH  11  12
ATOM     12  N   UNL     1      34.769 -24.549 -13.405  0.00  0.00    -0.260 N 
ATOM     13  N   UNL     1      36.684 -25.636 -13.499  0.00  0.00    -0.394 NA
ATOM     14  C   UNL     1      35.554 -23.943 -12.474  0.00  0.00    +0.079 C 
ATOM     15  C   UNL     1      35.469 -25.549 -13.993  0.00  0.00    +0.164 C 
ATOM     16  C   UNL     1      36.755 -24.643 -12.550  0.00  0.00    +0.128 C 
ATOM     17  C   UNL     1      35.340 -22.880 -11.596  0.00  0.00    +0.017 C 
ATOM     18  C   UNL     1      34.902 -26.407 -15.054  0.00  0.00    +0.084 C 
ATOM     19  C   UNL     1      37.816 -24.273 -11.707  0.00  0.00    +0.086 C 
ATOM     20  C   UNL     1      36.407 -22.526 -10.764  0.00  0.00    -0.003 C 
ATOM     21  C   UNL     1      37.625 -23.209 -10.817  0.00  0.00    -0.019 C 
ENDBRANCH  11  12
ENDBRANCH   3  11
BRANCH   6  22
ATOM     22  C   UNL     1      35.303 -20.471 -19.782  0.00  0.00    +0.164 C 
BRANCH  22  23
ATOM     23  N   UNL     1      35.078 -19.030 -19.803  0.00  0.00    -0.326 N 
ATOM     24  H   UNL     1      35.294 -18.511 -18.995  0.00  0.00    +0.147 HD
BRANCH  23  25
ATOM     25  C   UNL     1      34.575 -18.360 -20.898  0.00  0.00    +0.045 C 
ATOM     26  C   UNL     1      34.547 -16.950 -20.940  0.00  0.00    +0.014 C 
ATOM     27  C   UNL     1      34.069 -19.061 -22.013  0.00  0.00    +0.014 C 
ATOM     28  C   UNL     1      34.036 -16.272 -22.047  0.00  0.00    +0.004 C 
ATOM     29  C   UNL     1      33.559 -18.383 -23.119  0.00  0.00    +0.004 C 
ATOM     30  C   UNL     1      33.542 -16.989 -23.136  0.00  0.00    +0.031 C 
BRANCH  30  33
ATOM     31  N   UNL     1      31.720 -16.530 -24.760  0.00  0.00    -0.343 N 
ATOM     32  N   UNL     1      33.752 -15.387 -24.916  0.00  0.00    -0.285 NA
ATOM     33  C   UNL     1      33.008 -16.282 -24.290  0.00  0.00    +0.117 C 
ATOM     34  H   UNL     1      31.379 -16.040 -25.543  0.00  0.00    +0.144 HD
ATOM     35  H   UNL     1      31.151 -17.195 -24.310  0.00  0.00    +0.144 HD
ATOM     36  H   UNL     1      33.393 -14.908 -25.698  0.00  0.00    +0.188 HD
ENDBRANCH  30  33
ENDBRANCH  23  25
ENDBRANCH  22  23
ENDBRANCH   6  22
TORSDOF 6
ENDMDL
MODEL 7
REMARK VINA RESULT:     -10.4      2.440     10.133
REMARK  Name = 445756
REMARK  6 active torsions:
REMARK  status: ('A' for Active; 'I' for Inactive)
REMARK    1  A    between atoms: C_3  and  C_11
REMARK    2  A    between atoms: C_6  and  C_22
REMARK    3  A    between atoms: C_11  and  N_12
REMARK    4  A    between atoms: C_22  and  N_23
REMARK    5  A    between atoms: N_23  and  C_25
REMARK    6  A    between atoms: C_30  and  C_33
REMARK                            x       y       z     vdW  Elec       q    Type
REMARK                         _______ _______ _______ _____ _____    ______ ____
ROOT
ATOM      1  N   UNL     1      31.114 -22.802 -15.390  0.00  0.00    -0.261 N 
ATOM      2  N   UNL     1      33.307 -22.786 -15.752  0.00  0.00    -0.392 NA
ATOM      3  C   UNL     1      33.401 -24.156 -12.275  0.00  0.00    -0.017 C 
ATOM      4  C   UNL     1      31.678 -23.287 -14.238  0.00  0.00    +0.079 C 
ATOM      5  C   UNL     1      33.048 -23.267 -14.489  0.00  0.00    +0.128 C 
ATOM      6  C   UNL     1      32.127 -22.517 -16.263  0.00  0.00    +0.183 C 
ATOM      7  C   UNL     1      33.933 -23.710 -13.492  0.00  0.00    +0.084 C 
ATOM      8  C   UNL     1      32.022 -24.164 -12.054  0.00  0.00    -0.005 C 
ATOM      9  C   UNL     1      31.126 -23.728 -13.035  0.00  0.00    +0.017 C 
ATOM     10  C   UNL     1      29.700 -22.626 -15.634  0.00  0.00    +0.120 C 
ENDROOT
BRANCH   3  11
ATOM     11  C   UNL     1      34.324 -24.632 -11.202  0.00  0.00    +0.120 C 
BRANCH  11  12
ATOM     12  N   UNL     1      35.727 -24.362 -11.532  0.00  0.00    -0.260 N 
ATOM     13  N   UNL     1      37.701 -23.383 -11.500  0.00  0.00    -0.394 NA
ATOM     14  C   UNL     1      36.476 -25.074 -12.415  0.00  0.00    +0.079 C 
ATOM     15  C   UNL     1      36.482 -23.366 -11.007  0.00  0.00    +0.164 C 
ATOM     16  C   UNL     1      37.715 -24.440 -12.380  0.00  0.00    +0.128 C 
ATOM     17  C   UNL     1      36.203 -26.180 -13.220  0.00  0.00    +0.017 C 
ATOM     18  C   UNL     1      35.963 -22.408 -10.010  0.00  0.00    +0.084 C 
ATOM     19  C   UNL     1      38.755 -24.927 -13.190  0.00  0.00    +0.086 C 
ATOM     20  C   UNL     1      37.249 -26.649 -14.021  0.00  0.00    -0.003 C 
ATOM     21  C   UNL     1      38.504 -26.035 -14.007  0.00  0.00    -0.019 C 
ENDBRANCH  11  12
ENDBRANCH   3  11
BRANCH   6  22
ATOM     22  C   UNL     1      31.871 -21.972 -17.612  0.00  0.00    +0.164 C 
BRANCH  22  23
ATOM     23  N   UNL     1      32.933 -22.199 -18.585  0.00  0.00    -0.326 N 
ATOM     24  H   UNL     1      33.188 -23.128 -18.790  0.00  0.00    +0.147 HD
BRANCH  23  25
ATOM     25  C   UNL     1      33.599 -21.179 -19.229  0.00  0.00    +0.045 C 
ATOM     26  C   UNL     1      32.903 -20.230 -20.008  0.00  0.00    +0.014 C 
ATOM     27  C   UNL     1      35.001 -21.049 -19.134  0.00  0.00    +0.014 C 
ATOM     28  C   UNL     1      33.577 -19.199 -20.662  0.00  0.00    +0.004 C 
ATOM     29  C   UNL     1      35.675 -20.017 -19.787  0.00  0.00    +0.004 C 
ATOM     30  C   UNL     1      34.963 -19.093 -20.551  0.00  0.00    +0.031 C 
BRANCH  30  33
ATOM     31  N   UNL     1      34.981 -16.935 -21.779  0.00  0.00    -0.343 N 
ATOM     32  N   UNL     1      36.982 -18.062 -21.349  0.00  0.00    -0.285 NA
ATOM     33  C   UNL     1      35.667 -18.019 -21.234  0.00  0.00    +0.117 C 
ATOM     34  H   UNL     1      35.478 -16.218 -22.237  0.00  0.00    +0.144 HD
ATOM     35  H   UNL     1      34.001 -16.885 -21.706  0.00  0.00    +0.144 HD
ATOM     36  H   UNL     1      37.461 -17.335 -21.811  0.00  0.00    +0.188 HD
ENDBRANCH  30  33
ENDBRANCH  23  25
ENDBRANCH  22  23
ENDBRANCH   6  22
TORSDOF 6
ENDMDL
MODEL 8
REMARK VINA RESULT:     -10.3      6.063     10.898
REMARK  Name = 445756
REMARK  6 active torsions:
REMARK  status: ('A' for Active; 'I' for Inactive)
REMARK    1  A    between atoms: C_3  and  C_11
REMARK    2  A    between atoms: C_6  and  C_22
REMARK    3  A    between atoms: C_11  and  N_12
REMARK    4  A    between atoms: C_22  and  N_23
REMARK    5  A    between atoms: N_23  and  C_25
REMARK    6  A    between atoms: C_30  and  C_33
REMARK                            x       y       z     vdW  Elec       q    Type
REMARK                         _______ _______ _______ _____ _____    ______ ____
ROOT
ATOM      1  N   UNL     1      32.519 -13.007 -22.900  0.00  0.00    -0.261 N 
ATOM      2  N   UNL     1      33.101 -12.617 -25.009  0.00  0.00    -0.392 NA
ATOM      3  C   UNL     1      32.847  -9.053 -23.912  0.00  0.00    -0.017 C 
ATOM      4  C   UNL     1      32.569 -11.642 -23.019  0.00  0.00    +0.079 C 
ATOM      5  C   UNL     1      32.935 -11.424 -24.345  0.00  0.00    +0.128 C 
ATOM      6  C   UNL     1      32.843 -13.545 -24.114  0.00  0.00    +0.183 C 
ATOM      7  C   UNL     1      33.079 -10.105 -24.808  0.00  0.00    +0.084 C 
ATOM      8  C   UNL     1      32.483  -9.304 -22.588  0.00  0.00    -0.005 C 
ATOM      9  C   UNL     1      32.335 -10.610 -22.110  0.00  0.00    +0.017 C 
ATOM     10  C   UNL     1      32.182 -13.742 -21.702  0.00  0.00    +0.120 C 
ENDROOT
BRANCH   3  11
ATOM     11  C   UNL     1      32.996  -7.644 -24.382  0.00  0.00    +0.120 C 
BRANCH  11  12
ATOM     12  N   UNL     1      31.799  -6.846 -24.098  0.00  0.00    -0.260 N 
ATOM     13  N   UNL     1      29.841  -5.884 -24.408  0.00  0.00    -0.394 NA
ATOM     14  C   UNL     1      31.549  -6.194 -22.932  0.00  0.00    +0.079 C 
ATOM     15  C   UNL     1      30.767  -6.642 -24.952  0.00  0.00    +0.164 C 
ATOM     16  C   UNL     1      30.312  -5.594 -23.148  0.00  0.00    +0.128 C 
ATOM     17  C   UNL     1      32.263  -6.071 -21.739  0.00  0.00    +0.017 C 
ATOM     18  C   UNL     1      30.726  -7.217 -26.312  0.00  0.00    +0.084 C 
ATOM     19  C   UNL     1      29.737  -4.823 -22.124  0.00  0.00    +0.086 C 
ATOM     20  C   UNL     1      31.676  -5.298 -20.732  0.00  0.00    -0.003 C 
ATOM     21  C   UNL     1      30.435  -4.685 -20.918  0.00  0.00    -0.019 C 
ENDBRANCH  11  12
ENDBRANCH   3  11
BRANCH   6  22
ATOM     22  C   UNL     1      32.885 -15.003 -24.342  0.00  0.00    +0.164 C 
BRANCH  22  23
ATOM     23  N   UNL     1      34.096 -15.669 -23.876  0.00  0.00    -0.326 N 
ATOM     24  H   UNL     1      34.960 -15.390 -24.259  0.00  0.00    +0.147 HD
BRANCH  23  25
ATOM     25  C   UNL     1      34.092 -16.671 -22.929  0.00  0.00    +0.045 C 
ATOM     26  C   UNL     1      34.519 -16.427 -21.606  0.00  0.00    +0.014 C 
ATOM     27  C   UNL     1      33.662 -17.976 -23.250  0.00  0.00    +0.014 C 
ATOM     28  C   UNL     1      34.516 -17.441 -20.649  0.00  0.00    +0.004 C 
ATOM     29  C   UNL     1      33.659 -18.990 -22.293  0.00  0.00    +0.004 C 
ATOM     30  C   UNL     1      34.087 -18.722 -20.993  0.00  0.00    +0.031 C 
BRANCH  30  33
ATOM     31  N   UNL     1      35.264 -20.203 -19.384  0.00  0.00    -0.343 N 
ATOM     32  N   UNL     1      32.948 -20.363 -19.655  0.00  0.00    -0.285 NA
ATOM     33  C   UNL     1      34.085 -19.780 -19.995  0.00  0.00    +0.117 C 
ATOM     34  H   UNL     1      35.240 -20.921 -18.710  0.00  0.00    +0.144 HD
ATOM     35  H   UNL     1      36.121 -19.783 -19.625  0.00  0.00    +0.144 HD
ATOM     36  H   UNL     1      32.945 -21.079 -18.979  0.00  0.00    +0.188 HD
ENDBRANCH  30  33
ENDBRANCH  23  25
ENDBRANCH  22  23
ENDBRANCH   6  22
TORSDOF 6
ENDMDL
MODEL 9
REMARK VINA RESULT:     -10.3      7.948     13.142
REMARK  Name = 445756
REMARK  6 active torsions:
REMARK  status: ('A' for Active; 'I' for Inactive)
REMARK    1  A    between atoms: C_3  and  C_11
REMARK    2  A    between atoms: C_6  and  C_22
REMARK    3  A    between atoms: C_11  and  N_12
REMARK    4  A    between atoms: C_22  and  N_23
REMARK    5  A    between atoms: N_23  and  C_25
REMARK    6  A    between atoms: C_30  and  C_33
REMARK                            x       y       z     vdW  Elec       q    Type
REMARK                         _______ _______ _______ _____ _____    ______ ____
ROOT
ATOM      1  N   UNL     1      30.993  -8.988 -20.080  0.00  0.00    -0.261 N 
ATOM      2  N   UNL     1      31.612  -9.748 -22.075  0.00  0.00    -0.392 NA
ATOM      3  C   UNL     1      32.637  -6.188 -22.574  0.00  0.00    -0.017 C 
ATOM      4  C   UNL     1      31.508  -7.903 -20.741  0.00  0.00    +0.079 C 
ATOM      5  C   UNL     1      31.888  -8.403 -21.984  0.00  0.00    +0.128 C 
ATOM      6  C   UNL     1      31.076 -10.066 -20.917  0.00  0.00    +0.183 C 
ATOM      7  C   UNL     1      32.465  -7.534 -22.925  0.00  0.00    +0.084 C 
ATOM      8  C   UNL     1      32.246  -5.717 -21.319  0.00  0.00    -0.005 C 
ATOM      9  C   UNL     1      31.671  -6.568 -20.370  0.00  0.00    +0.017 C 
ATOM     10  C   UNL     1      30.458  -8.989 -18.737  0.00  0.00    +0.120 C 
ENDROOT
BRANCH   3  11
ATOM     11  C   UNL     1      33.249  -5.247 -23.558  0.00  0.00    +0.120 C 
BRANCH  11  12
ATOM     12  N   UNL     1      32.400  -5.066 -24.740  0.00  0.00    -0.260 N 
ATOM     13  N   UNL     1      31.731  -5.184 -26.836  0.00  0.00    -0.394 NA
ATOM     14  C   UNL     1      31.194  -4.439 -24.750  0.00  0.00    +0.079 C 
ATOM     15  C   UNL     1      32.689  -5.496 -25.992  0.00  0.00    +0.164 C 
ATOM     16  C   UNL     1      30.789  -4.525 -26.079  0.00  0.00    +0.128 C 
ATOM     17  C   UNL     1      30.433  -3.822 -23.756  0.00  0.00    +0.017 C 
ATOM     18  C   UNL     1      33.933  -6.219 -26.323  0.00  0.00    +0.084 C 
ATOM     19  C   UNL     1      29.556  -3.967 -26.457  0.00  0.00    +0.086 C 
ATOM     20  C   UNL     1      29.210  -3.271 -24.151  0.00  0.00    -0.003 C 
ATOM     21  C   UNL     1      28.777  -3.341 -25.477  0.00  0.00    -0.019 C 
ENDBRANCH  11  12
ENDBRANCH   3  11
BRANCH   6  22
ATOM     22  C   UNL     1      30.605 -11.408 -20.520  0.00  0.00    +0.164 C 
BRANCH  22  23
ATOM     23  N   UNL     1      31.638 -12.301 -20.008  0.00  0.00    -0.326 N 
ATOM     24  H   UNL     1      31.890 -12.228 -19.058  0.00  0.00    +0.147 HD
BRANCH  23  25
ATOM     25  C   UNL     1      32.279 -13.241 -20.786  0.00  0.00    +0.045 C 
ATOM     26  C   UNL     1      33.139 -14.201 -20.211  0.00  0.00    +0.014 C 
ATOM     27  C   UNL     1      32.099 -13.274 -22.185  0.00  0.00    +0.014 C 
ATOM     28  C   UNL     1      33.789 -15.150 -21.000  0.00  0.00    +0.004 C 
ATOM     29  C   UNL     1      32.749 -14.223 -22.973  0.00  0.00    +0.004 C 
ATOM     30  C   UNL     1      33.595 -15.160 -22.381  0.00  0.00    +0.031 C 
BRANCH  30  33
ATOM     31  N   UNL     1      34.949 -17.226 -22.632  0.00  0.00    -0.343 N 
ATOM     32  N   UNL     1      34.260 -16.032 -24.519  0.00  0.00    -0.285 NA
ATOM     33  C   UNL     1      34.274 -16.149 -23.203  0.00  0.00    +0.117 C 
ATOM     34  H   UNL     1      35.402 -17.885 -23.208  0.00  0.00    +0.144 HD
ATOM     35  H   UNL     1      34.973 -17.330 -21.654  0.00  0.00    +0.144 HD
ATOM     36  H   UNL     1      34.719 -16.701 -25.078  0.00  0.00    +0.188 HD
ENDBRANCH  30  33
ENDBRANCH  23  25
ENDBRANCH  22  23
ENDBRANCH   6  22
TORSDOF 6
ENDMDL
