MODEL 1
REMARK VINA RESULT:     -12.0      0.000      0.000
REMARK  Name = 49866474
REMARK  7 active torsions:
REMARK  status: ('A' for Active; 'I' for Inactive)
REMARK    1  A    between atoms: O_1  and  C_3
REMARK    2  A    between atoms: O_1  and  C_18
REMARK    3  A    between atoms: C_4  and  C_10
REMARK    4  A    between atoms: C_18  and  C_19
REMARK    5  A    between atoms: C_19  and  N_20
REMARK    6  A    between atoms: C_19  and  C_24
REMARK    7  A    between atoms: C_24  and  C_26
REMARK                            x       y       z     vdW  Elec       q    Type
REMARK                         _______ _______ _______ _____ _____    ______ ____
ROOT
ATOM      1  O   UNL     1      34.493 -14.852 -22.571  0.00  0.00    -0.476 OA
ENDROOT
BRANCH   1   3
ATOM      2  N   UNL     1      33.417 -18.007 -24.079  0.00  0.00    -0.239 NA
ATOM      3  C   UNL     1      34.196 -16.184 -22.694  0.00  0.00    +0.158 C 
ATOM      4  C   UNL     1      34.047 -18.404 -21.778  0.00  0.00    +0.022 C 
ATOM      5  C   UNL     1      34.356 -17.056 -21.623  0.00  0.00    +0.040 C 
ATOM      6  C   UNL     1      33.727 -16.705 -23.890  0.00  0.00    +0.136 C 
ATOM      7  C   UNL     1      33.586 -18.825 -23.014  0.00  0.00    +0.099 C 
BRANCH   4  10
ATOM      8  N   UNL     1      34.359 -22.007 -17.583  0.00  0.00    -0.236 N 
ATOM      9  N   UNL     1      33.083 -22.370 -17.371  0.00  0.00    -0.180 NA
ATOM     10  C   UNL     1      34.203 -19.334 -20.685  0.00  0.00    +0.002 C 
ATOM     11  C   UNL     1      33.244 -20.860 -19.083  0.00  0.00    +0.035 C 
ATOM     12  C   UNL     1      33.071 -19.960 -20.147  0.00  0.00    +0.003 C 
ATOM     13  C   UNL     1      34.524 -21.102 -18.597  0.00  0.00    +0.067 C 
ATOM     14  C   UNL     1      35.476 -19.595 -20.177  0.00  0.00    +0.001 C 
ATOM     15  C   UNL     1      35.665 -20.488 -19.118  0.00  0.00    +0.016 C 
ATOM     16  C   UNL     1      32.408 -21.671 -18.286  0.00  0.00    +0.119 C 
ATOM     17  H   UNL     1      35.110 -22.360 -17.055  0.00  0.00    +0.174 HD
ENDBRANCH   4  10
ENDBRANCH   1   3
BRANCH   1  18
ATOM     18  C   UNL     1      33.461 -14.007 -22.079  0.00  0.00    +0.184 C 
BRANCH  18  19
ATOM     19  C   UNL     1      33.006 -13.028 -23.168  0.00  0.00    -0.017 C 
BRANCH  19  20
ATOM     20  N   UNL     1      31.969 -13.684 -23.970  0.00  0.00    +0.384 N 
ATOM     21  H   UNL     1      32.387 -14.070 -24.817  0.00  0.00    -0.089 HD
ATOM     22  H   UNL     1      31.254 -13.003 -24.224  0.00  0.00    -0.089 HD
ATOM     23  H   UNL     1      31.544 -14.436 -23.427  0.00  0.00    -0.089 HD
ENDBRANCH  19  20
BRANCH  19  24
ATOM     24  C   UNL     1      32.441 -11.704 -22.598  0.00  0.00    +0.006 C 
BRANCH  24  26
ATOM     25  N   UNL     1      34.484  -9.306 -24.646  0.00  0.00    -0.234 NA
ATOM     26  C   UNL     1      32.925 -10.487 -23.277  0.00  0.00    -0.024 C 
ATOM     27  C   UNL     1      32.730  -9.183 -23.080  0.00  0.00    +0.065 C 
ATOM     28  C   UNL     1      33.539  -8.349 -24.033  0.00  0.00    +0.122 C 
ATOM     29  C   UNL     1      34.030 -10.458 -24.244  0.00  0.00    +0.072 C 
ATOM     30  C   UNL     1      32.017  -8.508 -22.026  0.00  0.00    -0.020 C 
ATOM     31  C   UNL     1      34.190  -7.186 -23.339  0.00  0.00    -0.004 C 
ATOM     32  C   UNL     1      32.455  -7.298 -21.628  0.00  0.00    -0.004 C 
ATOM     33  C   UNL     1      33.644  -6.693 -22.212  0.00  0.00    -0.003 C 
ENDBRANCH  24  26
ENDBRANCH  19  24
ENDBRANCH  18  19
ENDBRANCH   1  18
TORSDOF 7
ENDMDL
MODEL 2
REMARK VINA RESULT:     -11.7      5.328     11.911
REMARK  Name = 49866474
REMARK  7 active torsions:
REMARK  status: ('A' for Active; 'I' for Inactive)
REMARK    1  A    between atoms: O_1  and  C_3
REMARK    2  A    between atoms: O_1  and  C_18
REMARK    3  A    between atoms: C_4  and  C_10
REMARK    4  A    between atoms: C_18  and  C_19
REMARK    5  A    between atoms: C_19  and  N_20
REMARK    6  A    between atoms: C_19  and  C_24
REMARK    7  A    between atoms: C_24  and  C_26
REMARK                            x       y       z     vdW  Elec       q    Type
REMARK                         _______ _______ _______ _____ _____    ______ ____
ROOT
ATOM      1  O   UNL     1      35.232 -22.205 -17.450  0.00  0.00    -0.476 OA
ENDROOT
BRANCH   1   3
ATOM      2  N   UNL     1      31.923 -21.446 -18.812  0.00  0.00    -0.239 NA
ATOM      3  C   UNL     1      34.258 -21.606 -18.204  0.00  0.00    +0.158 C 
ATOM      4  C   UNL     1      33.556 -19.995 -19.847  0.00  0.00    +0.022 C 
ATOM      5  C   UNL     1      34.567 -20.586 -19.096  0.00  0.00    +0.040 C 
ATOM      6  C   UNL     1      32.932 -21.996 -18.100  0.00  0.00    +0.136 C 
ATOM      7  C   UNL     1      32.263 -20.457 -19.670  0.00  0.00    +0.099 C 
BRANCH   4  10
ATOM      8  N   UNL     1      34.507 -16.060 -23.628  0.00  0.00    -0.236 N 
ATOM      9  N   UNL     1      33.806 -16.464 -24.701  0.00  0.00    -0.180 NA
ATOM     10  C   UNL     1      33.847 -18.933 -20.782  0.00  0.00    +0.002 C 
ATOM     11  C   UNL     1      33.585 -17.934 -22.961  0.00  0.00    +0.035 C 
ATOM     12  C   UNL     1      33.288 -18.976 -22.067  0.00  0.00    +0.003 C 
ATOM     13  C   UNL     1      34.417 -16.899 -22.550  0.00  0.00    +0.067 C 
ATOM     14  C   UNL     1      34.678 -17.882 -20.396  0.00  0.00    +0.001 C 
ATOM     15  C   UNL     1      34.983 -16.838 -21.275  0.00  0.00    +0.016 C 
ATOM     16  C   UNL     1      33.246 -17.604 -24.291  0.00  0.00    +0.119 C 
ATOM     17  H   UNL     1      35.039 -15.233 -23.618  0.00  0.00    +0.174 HD
ENDBRANCH   4  10
ENDBRANCH   1   3
BRANCH   1  18
ATOM     18  C   UNL     1      35.470 -21.661 -16.158  0.00  0.00    +0.184 C 
BRANCH  18  19
ATOM     19  C   UNL     1      35.216 -22.717 -15.077  0.00  0.00    -0.017 C 
BRANCH  19  20
ATOM     20  N   UNL     1      35.061 -22.030 -13.791  0.00  0.00    +0.384 N 
ATOM     21  H   UNL     1      35.980 -21.785 -13.423  0.00  0.00    -0.089 HD
ATOM     22  H   UNL     1      34.583 -22.644 -13.133  0.00  0.00    -0.089 HD
ATOM     23  H   UNL     1      34.511 -21.180 -13.924  0.00  0.00    -0.089 HD
ENDBRANCH  19  20
BRANCH  19  24
ATOM     24  C   UNL     1      33.954 -23.573 -15.347  0.00  0.00    +0.006 C 
BRANCH  24  26
ATOM     25  N   UNL     1      31.999 -24.179 -12.197  0.00  0.00    -0.234 NA
ATOM     26  C   UNL     1      32.927 -23.505 -14.290  0.00  0.00    -0.024 C 
ATOM     27  C   UNL     1      31.654 -23.112 -14.266  0.00  0.00    +0.065 C 
ATOM     28  C   UNL     1      31.030 -23.327 -12.916  0.00  0.00    +0.122 C 
ATOM     29  C   UNL     1      33.038 -24.161 -12.981  0.00  0.00    +0.072 C 
ATOM     30  C   UNL     1      30.801 -22.688 -15.347  0.00  0.00    -0.020 C 
ATOM     31  C   UNL     1      29.648 -23.908 -13.029  0.00  0.00    -0.004 C 
ATOM     32  C   UNL     1      29.485 -22.961 -15.271  0.00  0.00    -0.004 C 
ATOM     33  C   UNL     1      28.929 -23.702 -14.147  0.00  0.00    -0.003 C 
ENDBRANCH  24  26
ENDBRANCH  19  24
ENDBRANCH  18  19
ENDBRANCH   1  18
TORSDOF 7
ENDMDL
MODEL 3
REMARK VINA RESULT:     -11.6      3.378     11.853
REMARK  Name = 49866474
REMARK  7 active torsions:
REMARK  status: ('A' for Active; 'I' for Inactive)
REMARK    1  A    between atoms: O_1  and  C_3
REMARK    2  A    between atoms: O_1  and  C_18
REMARK    3  A    between atoms: C_4  and  C_10
REMARK    4  A    between atoms: C_18  and  C_19
REMARK    5  A    between atoms: C_19  and  N_20
REMARK    6  A    between atoms: C_19  and  C_24
REMARK    7  A    between atoms: C_24  and  C_26
REMARK                            x       y       z     vdW  Elec       q    Type
REMARK                         _______ _______ _______ _____ _____    ______ ____
ROOT
ATOM      1  O   UNL     1      33.531 -21.003 -19.501  0.00  0.00    -0.476 OA
ENDROOT
BRANCH   1   3
ATOM      2  N   UNL     1      36.473 -18.878 -19.970  0.00  0.00    -0.239 NA
ATOM      3  C   UNL     1      34.318 -19.976 -19.952  0.00  0.00    +0.158 C 
ATOM      4  C   UNL     1      34.635 -17.982 -21.261  0.00  0.00    +0.022 C 
ATOM      5  C   UNL     1      33.812 -19.012 -20.818  0.00  0.00    +0.040 C 
ATOM      6  C   UNL     1      35.643 -19.864 -19.561  0.00  0.00    +0.136 C 
ATOM      7  C   UNL     1      35.945 -17.961 -20.812  0.00  0.00    +0.099 C 
BRANCH   4  10
ATOM      8  N   UNL     1      32.779 -13.894 -24.504  0.00  0.00    -0.236 N 
ATOM      9  N   UNL     1      32.914 -12.792 -23.747  0.00  0.00    -0.180 NA
ATOM     10  C   UNL     1      34.138 -16.967 -22.160  0.00  0.00    +0.002 C 
ATOM     11  C   UNL     1      33.620 -14.660 -22.630  0.00  0.00    +0.035 C 
ATOM     12  C   UNL     1      34.108 -15.631 -21.740  0.00  0.00    +0.003 C 
ATOM     13  C   UNL     1      33.184 -15.049 -23.892  0.00  0.00    +0.067 C 
ATOM     14  C   UNL     1      33.695 -17.330 -23.432  0.00  0.00    +0.001 C 
ATOM     15  C   UNL     1      33.206 -16.374 -24.329  0.00  0.00    +0.016 C 
ATOM     16  C   UNL     1      33.426 -13.262 -22.608  0.00  0.00    +0.119 C 
ATOM     17  H   UNL     1      32.419 -13.873 -25.420  0.00  0.00    +0.174 HD
ENDBRANCH   4  10
ENDBRANCH   1   3
BRANCH   1  18
ATOM     18  C   UNL     1      34.007 -21.728 -18.374  0.00  0.00    +0.184 C 
BRANCH  18  19
ATOM     19  C   UNL     1      32.894 -21.889 -17.332  0.00  0.00    -0.017 C 
BRANCH  19  20
ATOM     20  N   UNL     1      31.607 -21.661 -17.995  0.00  0.00    +0.384 N 
ATOM     21  H   UNL     1      30.850 -21.801 -17.326  0.00  0.00    -0.089 HD
ATOM     22  H   UNL     1      31.503 -22.317 -18.769  0.00  0.00    -0.089 HD
ATOM     23  H   UNL     1      31.573 -20.706 -18.352  0.00  0.00    -0.089 HD
ENDBRANCH  19  20
BRANCH  19  24
ATOM     24  C   UNL     1      32.880 -23.288 -16.668  0.00  0.00    +0.006 C 
BRANCH  24  26
ATOM     25  N   UNL     1      32.675 -23.805 -12.953  0.00  0.00    -0.234 NA
ATOM     26  C   UNL     1      32.408 -23.301 -15.271  0.00  0.00    -0.024 C 
ATOM     27  C   UNL     1      31.202 -23.255 -14.705  0.00  0.00    +0.065 C 
ATOM     28  C   UNL     1      31.284 -23.378 -13.209  0.00  0.00    +0.122 C 
ATOM     29  C   UNL     1      33.242 -23.659 -14.115  0.00  0.00    +0.072 C 
ATOM     30  C   UNL     1      29.898 -23.270 -15.316  0.00  0.00    -0.020 C 
ATOM     31  C   UNL     1      30.235 -24.310 -12.670  0.00  0.00    -0.004 C 
ATOM     32  C   UNL     1      28.885 -23.857 -14.652  0.00  0.00    -0.004 C 
ATOM     33  C   UNL     1      29.097 -24.504 -13.364  0.00  0.00    -0.003 C 
ENDBRANCH  24  26
ENDBRANCH  19  24
ENDBRANCH  18  19
ENDBRANCH   1  18
TORSDOF 7
ENDMDL
MODEL 4
REMARK VINA RESULT:     -11.5      1.986      3.099
REMARK  Name = 49866474
REMARK  7 active torsions:
REMARK  status: ('A' for Active; 'I' for Inactive)
REMARK    1  A    between atoms: O_1  and  C_3
REMARK    2  A    between atoms: O_1  and  C_18
REMARK    3  A    between atoms: C_4  and  C_10
REMARK    4  A    between atoms: C_18  and  C_19
REMARK    5  A    between atoms: C_19  and  N_20
REMARK    6  A    between atoms: C_19  and  C_24
REMARK    7  A    between atoms: C_24  and  C_26
REMARK                            x       y       z     vdW  Elec       q    Type
REMARK                         _______ _______ _______ _____ _____    ______ ____
ROOT
ATOM      1  O   UNL     1      33.470 -12.970 -22.746  0.00  0.00    -0.476 OA
ENDROOT
BRANCH   1   3
ATOM      2  N   UNL     1      33.233 -15.994 -24.792  0.00  0.00    -0.239 NA
ATOM      3  C   UNL     1      33.535 -14.292 -23.101  0.00  0.00    +0.158 C 
ATOM      4  C   UNL     1      34.008 -16.593 -22.581  0.00  0.00    +0.022 C 
ATOM      5  C   UNL     1      33.951 -15.259 -22.192  0.00  0.00    +0.040 C 
ATOM      6  C   UNL     1      33.190 -14.709 -24.377  0.00  0.00    +0.136 C 
ATOM      7  C   UNL     1      33.643 -16.906 -23.880  0.00  0.00    +0.099 C 
BRANCH   4  10
ATOM      8  N   UNL     1      35.374 -20.615 -19.026  0.00  0.00    -0.236 N 
ATOM      9  N   UNL     1      34.205 -21.222 -18.757  0.00  0.00    -0.180 NA
ATOM     10  C   UNL     1      34.436 -17.619 -21.660  0.00  0.00    +0.002 C 
ATOM     11  C   UNL     1      33.925 -19.491 -20.228  0.00  0.00    +0.035 C 
ATOM     12  C   UNL     1      33.488 -18.501 -21.124  0.00  0.00    +0.003 C 
ATOM     13  C   UNL     1      35.274 -19.568 -19.901  0.00  0.00    +0.067 C 
ATOM     14  C   UNL     1      35.784 -17.719 -21.315  0.00  0.00    +0.001 C 
ATOM     15  C   UNL     1      36.234 -18.699 -20.424  0.00  0.00    +0.016 C 
ATOM     16  C   UNL     1      33.327 -20.536 -19.491  0.00  0.00    +0.119 C 
ATOM     17  H   UNL     1      36.228 -20.898 -18.627  0.00  0.00    +0.174 HD
ENDBRANCH   4  10
ENDBRANCH   1   3
BRANCH   1  18
ATOM     18  C   UNL     1      33.115 -12.048 -23.769  0.00  0.00    +0.184 C 
BRANCH  18  19
ATOM     19  C   UNL     1      33.459 -10.617 -23.342  0.00  0.00    -0.017 C 
BRANCH  19  20
ATOM     20  N   UNL     1      34.573 -10.146 -24.172  0.00  0.00    +0.384 N 
ATOM     21  H   UNL     1      34.709  -9.146 -24.023  0.00  0.00    -0.089 HD
ATOM     22  H   UNL     1      34.361 -10.317 -25.154  0.00  0.00    -0.089 HD
ATOM     23  H   UNL     1      35.424 -10.647 -23.915  0.00  0.00    -0.089 HD
ENDBRANCH  19  20
BRANCH  19  24
ATOM     24  C   UNL     1      32.270  -9.636 -23.489  0.00  0.00    +0.006 C 
BRANCH  24  26
ATOM     25  N   UNL     1      32.019  -7.346 -20.521  0.00  0.00    -0.234 NA
ATOM     26  C   UNL     1      31.836  -9.004 -22.229  0.00  0.00    -0.024 C 
ATOM     27  C   UNL     1      31.149  -9.435 -21.171  0.00  0.00    +0.065 C 
ATOM     28  C   UNL     1      31.050  -8.380 -20.104  0.00  0.00    +0.122 C 
ATOM     29  C   UNL     1      32.342  -7.721 -21.725  0.00  0.00    +0.072 C 
ATOM     30  C   UNL     1      30.662 -10.756 -20.866  0.00  0.00    -0.020 C 
ATOM     31  C   UNL     1      31.292  -8.950 -18.735  0.00  0.00    -0.004 C 
ATOM     32  C   UNL     1      30.601 -11.135 -19.575  0.00  0.00    -0.004 C 
ATOM     33  C   UNL     1      31.051 -10.255 -18.505  0.00  0.00    -0.003 C 
ENDBRANCH  24  26
ENDBRANCH  19  24
ENDBRANCH  18  19
ENDBRANCH   1  18
TORSDOF 7
ENDMDL
MODEL 5
REMARK VINA RESULT:     -11.5      5.294     12.669
REMARK  Name = 49866474
REMARK  7 active torsions:
REMARK  status: ('A' for Active; 'I' for Inactive)
REMARK    1  A    between atoms: O_1  and  C_3
REMARK    2  A    between atoms: O_1  and  C_18
REMARK    3  A    between atoms: C_4  and  C_10
REMARK    4  A    between atoms: C_18  and  C_19
REMARK    5  A    between atoms: C_19  and  N_20
REMARK    6  A    between atoms: C_19  and  C_24
REMARK    7  A    between atoms: C_24  and  C_26
REMARK                            x       y       z     vdW  Elec       q    Type
REMARK                         _______ _______ _______ _____ _____    ______ ____
ROOT
ATOM      1  O   UNL     1      35.527 -22.090 -17.444  0.00  0.00    -0.476 OA
ENDROOT
BRANCH   1   3
ATOM      2  N   UNL     1      32.171 -21.532 -18.790  0.00  0.00    -0.239 NA
ATOM      3  C   UNL     1      34.514 -21.552 -18.195  0.00  0.00    +0.158 C 
ATOM      4  C   UNL     1      33.712 -19.994 -19.843  0.00  0.00    +0.022 C 
ATOM      5  C   UNL     1      34.759 -20.521 -19.095  0.00  0.00    +0.040 C 
ATOM      6  C   UNL     1      33.214 -22.018 -18.081  0.00  0.00    +0.136 C 
ATOM      7  C   UNL     1      32.448 -20.529 -19.655  0.00  0.00    +0.099 C 
BRANCH   4  10
ATOM      8  N   UNL     1      34.408 -16.032 -23.650  0.00  0.00    -0.236 N 
ATOM      9  N   UNL     1      33.711 -16.474 -24.710  0.00  0.00    -0.180 NA
ATOM     10  C   UNL     1      33.934 -18.923 -20.786  0.00  0.00    +0.002 C 
ATOM     11  C   UNL     1      33.590 -17.947 -22.963  0.00  0.00    +0.035 C 
ATOM     12  C   UNL     1      33.359 -18.998 -22.061  0.00  0.00    +0.003 C 
ATOM     13  C   UNL     1      34.376 -16.870 -22.568  0.00  0.00    +0.067 C 
ATOM     14  C   UNL     1      34.719 -17.830 -20.416  0.00  0.00    +0.001 C 
ATOM     15  C   UNL     1      34.958 -16.776 -21.303  0.00  0.00    +0.016 C 
ATOM     16  C   UNL     1      33.215 -17.639 -24.289  0.00  0.00    +0.119 C 
ATOM     17  H   UNL     1      34.899 -15.179 -23.651  0.00  0.00    +0.174 HD
ENDBRANCH   4  10
ENDBRANCH   1   3
BRANCH   1  18
ATOM     18  C   UNL     1      36.074 -21.267 -16.422  0.00  0.00    +0.184 C 
BRANCH  18  19
ATOM     19  C   UNL     1      36.038 -21.993 -15.072  0.00  0.00    -0.017 C 
BRANCH  19  20
ATOM     20  N   UNL     1      34.718 -22.613 -14.920  0.00  0.00    +0.384 N 
ATOM     21  H   UNL     1      34.761 -23.333 -14.198  0.00  0.00    -0.089 HD
ATOM     22  H   UNL     1      34.436 -23.035 -15.805  0.00  0.00    -0.089 HD
ATOM     23  H   UNL     1      34.038 -21.902 -14.651  0.00  0.00    -0.089 HD
ENDBRANCH  19  20
BRANCH  19  24
ATOM     24  C   UNL     1      37.127 -23.086 -14.940  0.00  0.00    +0.006 C 
BRANCH  24  26
ATOM     25  N   UNL     1      36.188 -26.132 -12.952  0.00  0.00    -0.234 NA
ATOM     26  C   UNL     1      36.914 -24.035 -13.831  0.00  0.00    -0.024 C 
ATOM     27  C   UNL     1      36.777 -23.896 -12.512  0.00  0.00    +0.065 C 
ATOM     28  C   UNL     1      36.499 -25.211 -11.839  0.00  0.00    +0.122 C 
ATOM     29  C   UNL     1      36.517 -25.438 -14.003  0.00  0.00    +0.072 C 
ATOM     30  C   UNL     1      36.698 -22.697 -11.717  0.00  0.00    -0.020 C 
ATOM     31  C   UNL     1      35.413 -25.088 -10.807  0.00  0.00    -0.004 C 
ATOM     32  C   UNL     1      35.943 -22.715 -10.603  0.00  0.00    -0.004 C 
ATOM     33  C   UNL     1      35.184 -23.898 -10.220  0.00  0.00    -0.003 C 
ENDBRANCH  24  26
ENDBRANCH  19  24
ENDBRANCH  18  19
ENDBRANCH   1  18
TORSDOF 7
ENDMDL
MODEL 6
REMARK VINA RESULT:     -11.4      2.626      5.118
REMARK  Name = 49866474
REMARK  7 active torsions:
REMARK  status: ('A' for Active; 'I' for Inactive)
REMARK    1  A    between atoms: O_1  and  C_3
REMARK    2  A    between atoms: O_1  and  C_18
REMARK    3  A    between atoms: C_4  and  C_10
REMARK    4  A    between atoms: C_18  and  C_19
REMARK    5  A    between atoms: C_19  and  N_20
REMARK    6  A    between atoms: C_19  and  C_24
REMARK    7  A    between atoms: C_24  and  C_26
REMARK                            x       y       z     vdW  Elec       q    Type
REMARK                         _______ _______ _______ _____ _____    ______ ____
ROOT
ATOM      1  O   UNL     1      33.364 -10.549 -23.189  0.00  0.00    -0.476 OA
ENDROOT
BRANCH   1   3
ATOM      2  N   UNL     1      32.442 -12.757 -25.957  0.00  0.00    -0.239 NA
ATOM      3  C   UNL     1      33.147 -11.701 -23.899  0.00  0.00    +0.158 C 
ATOM      4  C   UNL     1      33.164 -14.100 -24.080  0.00  0.00    +0.022 C 
ATOM      5  C   UNL     1      33.393 -12.948 -23.335  0.00  0.00    +0.040 C 
ATOM      6  C   UNL     1      32.676 -11.661 -25.202  0.00  0.00    +0.136 C 
ATOM      7  C   UNL     1      32.693 -13.952 -25.374  0.00  0.00    +0.099 C 
BRANCH   4  10
ATOM      8  N   UNL     1      34.208 -18.991 -21.701  0.00  0.00    -0.236 N 
ATOM      9  N   UNL     1      34.690 -18.667 -20.489  0.00  0.00    -0.180 NA
ATOM     10  C   UNL     1      33.411 -15.409 -23.522  0.00  0.00    +0.002 C 
ATOM     11  C   UNL     1      34.167 -16.799 -21.703  0.00  0.00    +0.035 C 
ATOM     12  C   UNL     1      33.934 -15.517 -22.227  0.00  0.00    +0.003 C 
ATOM     13  C   UNL     1      33.876 -17.916 -22.479  0.00  0.00    +0.067 C 
ATOM     14  C   UNL     1      33.127 -16.546 -24.279  0.00  0.00    +0.001 C 
ATOM     15  C   UNL     1      33.355 -17.829 -23.772  0.00  0.00    +0.016 C 
ATOM     16  C   UNL     1      34.663 -17.333 -20.494  0.00  0.00    +0.119 C 
ATOM     17  H   UNL     1      34.103 -19.922 -22.003  0.00  0.00    +0.174 HD
ENDBRANCH   4  10
ENDBRANCH   1   3
BRANCH   1  18
ATOM     18  C   UNL     1      33.812  -9.418 -23.924  0.00  0.00    +0.184 C 
BRANCH  18  19
ATOM     19  C   UNL     1      33.539  -8.128 -23.141  0.00  0.00    -0.017 C 
BRANCH  19  20
ATOM     20  N   UNL     1      34.052  -6.999 -23.922  0.00  0.00    +0.384 N 
ATOM     21  H   UNL     1      33.776  -6.123 -23.478  0.00  0.00    -0.089 HD
ATOM     22  H   UNL     1      33.669  -7.037 -24.866  0.00  0.00    -0.089 HD
ATOM     23  H   UNL     1      35.070  -7.051 -23.966  0.00  0.00    -0.089 HD
ENDBRANCH  19  20
BRANCH  19  24
ATOM     24  C   UNL     1      32.035  -7.899 -22.850  0.00  0.00    +0.006 C 
BRANCH  24  26
ATOM     25  N   UNL     1      31.994  -7.337 -19.136  0.00  0.00    -0.234 NA
ATOM     26  C   UNL     1      31.671  -7.945 -21.422  0.00  0.00    -0.024 C 
ATOM     27  C   UNL     1      30.989  -8.811 -20.672  0.00  0.00    +0.065 C 
ATOM     28  C   UNL     1      30.978  -8.407 -19.225  0.00  0.00    +0.122 C 
ATOM     29  C   UNL     1      32.263  -7.090 -20.385  0.00  0.00    +0.072 C 
ATOM     30  C   UNL     1      30.436 -10.095 -21.022  0.00  0.00    -0.020 C 
ATOM     31  C   UNL     1      31.224  -9.580 -18.318  0.00  0.00    -0.004 C 
ATOM     32  C   UNL     1      30.388 -11.051 -20.076  0.00  0.00    -0.004 C 
ATOM     33  C   UNL     1      30.916 -10.821 -18.738  0.00  0.00    -0.003 C 
ENDBRANCH  24  26
ENDBRANCH  19  24
ENDBRANCH  18  19
ENDBRANCH   1  18
TORSDOF 7
ENDMDL
MODEL 7
REMARK VINA RESULT:     -11.4      1.551     10.782
REMARK  Name = 49866474
REMARK  7 active torsions:
REMARK  status: ('A' for Active; 'I' for Inactive)
REMARK    1  A    between atoms: O_1  and  C_3
REMARK    2  A    between atoms: O_1  and  C_18
REMARK    3  A    between atoms: C_4  and  C_10
REMARK    4  A    between atoms: C_18  and  C_19
REMARK    5  A    between atoms: C_19  and  N_20
REMARK    6  A    between atoms: C_19  and  C_24
REMARK    7  A    between atoms: C_24  and  C_26
REMARK                            x       y       z     vdW  Elec       q    Type
REMARK                         _______ _______ _______ _____ _____    ______ ____
ROOT
ATOM      1  O   UNL     1      33.841 -15.850 -22.187  0.00  0.00    -0.476 OA
ENDROOT
BRANCH   1   3
ATOM      2  N   UNL     1      32.645 -14.542 -25.389  0.00  0.00    -0.239 NA
ATOM      3  C   UNL     1      33.464 -14.950 -23.150  0.00  0.00    +0.158 C 
ATOM      4  C   UNL     1      33.110 -12.692 -23.902  0.00  0.00    +0.022 C 
ATOM      5  C   UNL     1      33.501 -13.582 -22.906  0.00  0.00    +0.040 C 
ATOM      6  C   UNL     1      33.032 -15.375 -24.397  0.00  0.00    +0.136 C 
ATOM      7  C   UNL     1      32.695 -13.219 -25.114  0.00  0.00    +0.099 C 
BRANCH   4  10
ATOM      8  N   UNL     1      33.000  -7.255 -22.856  0.00  0.00    -0.236 N 
ATOM      9  N   UNL     1      32.041  -7.122 -21.925  0.00  0.00    -0.180 NA
ATOM     10  C   UNL     1      33.138 -11.266 -23.679  0.00  0.00    +0.002 C 
ATOM     11  C   UNL     1      32.299  -9.309 -22.547  0.00  0.00    +0.035 C 
ATOM     12  C   UNL     1      32.258 -10.698 -22.748  0.00  0.00    +0.003 C 
ATOM     13  C   UNL     1      33.205  -8.542 -23.272  0.00  0.00    +0.067 C 
ATOM     14  C   UNL     1      34.036 -10.473 -24.393  0.00  0.00    +0.001 C 
ATOM     15  C   UNL     1      34.089  -9.088 -24.204  0.00  0.00    +0.016 C 
ATOM     16  C   UNL     1      31.617  -8.374 -21.740  0.00  0.00    +0.119 C 
ATOM     17  H   UNL     1      33.513  -6.491 -23.208  0.00  0.00    +0.174 HD
ENDBRANCH   4  10
ENDBRANCH   1   3
BRANCH   1  18
ATOM     18  C   UNL     1      34.483 -17.036 -22.634  0.00  0.00    +0.184 C 
BRANCH  18  19
ATOM     19  C   UNL     1      33.798 -18.273 -22.042  0.00  0.00    -0.017 C 
BRANCH  19  20
ATOM     20  N   UNL     1      34.100 -19.421 -22.902  0.00  0.00    +0.384 N 
ATOM     21  H   UNL     1      35.111 -19.528 -22.985  0.00  0.00    -0.089 HD
ATOM     22  H   UNL     1      33.697 -19.269 -23.826  0.00  0.00    -0.089 HD
ATOM     23  H   UNL     1      33.701 -20.266 -22.492  0.00  0.00    -0.089 HD
ENDBRANCH  19  20
BRANCH  19  24
ATOM     24  C   UNL     1      34.257 -18.589 -20.597  0.00  0.00    +0.006 C 
BRANCH  24  26
ATOM     25  N   UNL     1      31.785 -21.069 -19.237  0.00  0.00    -0.234 NA
ATOM     26  C   UNL     1      33.653 -19.800 -20.011  0.00  0.00    -0.024 C 
ATOM     27  C   UNL     1      34.122 -20.789 -19.251  0.00  0.00    +0.065 C 
ATOM     28  C   UNL     1      33.038 -21.755 -18.862  0.00  0.00    +0.122 C 
ATOM     29  C   UNL     1      32.208 -20.051 -19.930  0.00  0.00    +0.072 C 
ATOM     30  C   UNL     1      35.422 -20.950 -18.650  0.00  0.00    -0.020 C 
ATOM     31  C   UNL     1      33.131 -22.140 -17.412  0.00  0.00    -0.004 C 
ATOM     32  C   UNL     1      35.508 -21.588 -17.468  0.00  0.00    -0.004 C 
ATOM     33  C   UNL     1      34.318 -22.072 -16.780  0.00  0.00    -0.003 C 
ENDBRANCH  24  26
ENDBRANCH  19  24
ENDBRANCH  18  19
ENDBRANCH   1  18
TORSDOF 7
ENDMDL
MODEL 8
REMARK VINA RESULT:     -11.3      2.102     10.622
REMARK  Name = 49866474
REMARK  7 active torsions:
REMARK  status: ('A' for Active; 'I' for Inactive)
REMARK    1  A    between atoms: O_1  and  C_3
REMARK    2  A    between atoms: O_1  and  C_18
REMARK    3  A    between atoms: C_4  and  C_10
REMARK    4  A    between atoms: C_18  and  C_19
REMARK    5  A    between atoms: C_19  and  N_20
REMARK    6  A    between atoms: C_19  and  C_24
REMARK    7  A    between atoms: C_24  and  C_26
REMARK                            x       y       z     vdW  Elec       q    Type
REMARK                         _______ _______ _______ _____ _____    ______ ____
ROOT
ATOM      1  O   UNL     1      34.885 -16.910 -21.957  0.00  0.00    -0.476 OA
ENDROOT
BRANCH   1   3
ATOM      2  N   UNL     1      33.253 -15.268 -24.791  0.00  0.00    -0.239 NA
ATOM      3  C   UNL     1      34.163 -15.988 -22.669  0.00  0.00    +0.158 C 
ATOM      4  C   UNL     1      32.885 -13.953 -22.795  0.00  0.00    +0.022 C 
ATOM      5  C   UNL     1      33.615 -14.872 -22.047  0.00  0.00    +0.040 C 
ATOM      6  C   UNL     1      33.956 -16.138 -24.031  0.00  0.00    +0.136 C 
ATOM      7  C   UNL     1      32.735 -14.195 -24.151  0.00  0.00    +0.099 C 
BRANCH   4  10
ATOM      8  N   UNL     1      30.777  -9.311 -20.631  0.00  0.00    -0.236 N 
ATOM      9  N   UNL     1      31.211  -8.342 -21.456  0.00  0.00    -0.180 NA
ATOM     10  C   UNL     1      32.303 -12.785 -22.177  0.00  0.00    +0.002 C 
ATOM     11  C   UNL     1      31.950 -10.400 -22.130  0.00  0.00    +0.035 C 
ATOM     12  C   UNL     1      32.523 -11.524 -22.747  0.00  0.00    +0.003 C 
ATOM     13  C   UNL     1      31.186 -10.569 -20.980  0.00  0.00    +0.067 C 
ATOM     14  C   UNL     1      31.533 -12.926 -21.023  0.00  0.00    +0.001 C 
ATOM     15  C   UNL     1      30.955 -11.817 -20.397  0.00  0.00    +0.016 C 
ATOM     16  C   UNL     1      31.923  -9.009 -22.366  0.00  0.00    +0.119 C 
ATOM     17  H   UNL     1      30.214  -9.131 -19.845  0.00  0.00    +0.174 HD
ENDBRANCH   4  10
ENDBRANCH   1   3
BRANCH   1  18
ATOM     18  C   UNL     1      34.348 -17.318 -20.706  0.00  0.00    +0.184 C 
BRANCH  18  19
ATOM     19  C   UNL     1      33.942 -18.795 -20.753  0.00  0.00    -0.017 C 
BRANCH  19  20
ATOM     20  N   UNL     1      34.045 -19.256 -22.141  0.00  0.00    +0.384 N 
ATOM     21  H   UNL     1      34.031 -20.276 -22.163  0.00  0.00    -0.089 HD
ATOM     22  H   UNL     1      34.917 -18.919 -22.547  0.00  0.00    -0.089 HD
ATOM     23  H   UNL     1      33.257 -18.894 -22.678  0.00  0.00    -0.089 HD
ENDBRANCH  19  20
BRANCH  19  24
ATOM     24  C   UNL     1      34.823 -19.698 -19.854  0.00  0.00    +0.006 C 
BRANCH  24  26
ATOM     25  N   UNL     1      32.074 -21.794 -18.384  0.00  0.00    -0.234 NA
ATOM     26  C   UNL     1      34.088 -20.754 -19.134  0.00  0.00    -0.024 C 
ATOM     27  C   UNL     1      34.407 -21.588 -18.144  0.00  0.00    +0.065 C 
ATOM     28  C   UNL     1      33.234 -22.429 -17.725  0.00  0.00    +0.122 C 
ATOM     29  C   UNL     1      32.633 -20.943 -19.196  0.00  0.00    +0.072 C 
ATOM     30  C   UNL     1      35.612 -21.666 -17.359  0.00  0.00    -0.020 C 
ATOM     31  C   UNL     1      33.127 -22.526 -16.229  0.00  0.00    -0.004 C 
ATOM     32  C   UNL     1      35.518 -22.063 -16.076  0.00  0.00    -0.004 C 
ATOM     33  C   UNL     1      34.228 -22.370 -15.471  0.00  0.00    -0.003 C 
ENDBRANCH  24  26
ENDBRANCH  19  24
ENDBRANCH  18  19
ENDBRANCH   1  18
TORSDOF 7
ENDMDL
MODEL 9
REMARK VINA RESULT:     -11.2      1.623      2.188
REMARK  Name = 49866474
REMARK  7 active torsions:
REMARK  status: ('A' for Active; 'I' for Inactive)
REMARK    1  A    between atoms: O_1  and  C_3
REMARK    2  A    between atoms: O_1  and  C_18
REMARK    3  A    between atoms: C_4  and  C_10
REMARK    4  A    between atoms: C_18  and  C_19
REMARK    5  A    between atoms: C_19  and  N_20
REMARK    6  A    between atoms: C_19  and  C_24
REMARK    7  A    between atoms: C_24  and  C_26
REMARK                            x       y       z     vdW  Elec       q    Type
REMARK                         _______ _______ _______ _____ _____    ______ ____
ROOT
ATOM      1  O   UNL     1      34.059 -15.164 -21.983  0.00  0.00    -0.476 OA
ENDROOT
BRANCH   1   3
ATOM      2  N   UNL     1      33.710 -18.387 -23.680  0.00  0.00    -0.239 NA
ATOM      3  C   UNL     1      33.985 -16.520 -22.168  0.00  0.00    +0.158 C 
ATOM      4  C   UNL     1      34.027 -18.768 -21.313  0.00  0.00    +0.022 C 
ATOM      5  C   UNL     1      34.104 -17.397 -21.095  0.00  0.00    +0.040 C 
ATOM      6  C   UNL     1      33.791 -17.061 -23.429  0.00  0.00    +0.136 C 
ATOM      7  C   UNL     1      33.831 -19.208 -22.612  0.00  0.00    +0.099 C 
BRANCH   4  10
ATOM      8  N   UNL     1      34.200 -22.385 -17.122  0.00  0.00    -0.236 N 
ATOM      9  N   UNL     1      32.912 -22.715 -16.924  0.00  0.00    -0.180 NA
ATOM     10  C   UNL     1      34.147 -19.704 -20.220  0.00  0.00    +0.002 C 
ATOM     11  C   UNL     1      33.131 -21.208 -18.631  0.00  0.00    +0.035 C 
ATOM     12  C   UNL     1      32.993 -20.302 -19.696  0.00  0.00    +0.003 C 
ATOM     13  C   UNL     1      34.399 -21.484 -18.132  0.00  0.00    +0.067 C 
ATOM     14  C   UNL     1      35.407 -20.000 -19.700  0.00  0.00    +0.001 C 
ATOM     15  C   UNL     1      35.561 -20.899 -18.640  0.00  0.00    +0.016 C 
ATOM     16  C   UNL     1      32.266 -21.998 -17.845  0.00  0.00    +0.119 C 
ATOM     17  H   UNL     1      34.936 -22.759 -16.586  0.00  0.00    +0.174 HD
ENDBRANCH   4  10
ENDBRANCH   1   3
BRANCH   1  18
ATOM     18  C   UNL     1      34.154 -14.362 -23.153  0.00  0.00    +0.184 C 
BRANCH  18  19
ATOM     19  C   UNL     1      32.985 -13.372 -23.220  0.00  0.00    -0.017 C 
BRANCH  19  20
ATOM     20  N   UNL     1      31.897 -13.999 -23.977  0.00  0.00    +0.384 N 
ATOM     21  H   UNL     1      32.224 -14.230 -24.915  0.00  0.00    -0.089 HD
ATOM     22  H   UNL     1      31.111 -13.353 -24.040  0.00  0.00    -0.089 HD
ATOM     23  H   UNL     1      31.599 -14.851 -23.501  0.00  0.00    -0.089 HD
ENDBRANCH  19  20
BRANCH  19  24
ATOM     24  C   UNL     1      32.458 -12.958 -21.825  0.00  0.00    +0.006 C 
BRANCH  24  26
ATOM     25  N   UNL     1      31.937  -9.280 -22.385  0.00  0.00    -0.234 NA
ATOM     26  C   UNL     1      31.935 -11.581 -21.750  0.00  0.00    -0.024 C 
ATOM     27  C   UNL     1      31.245 -10.906 -20.830  0.00  0.00    +0.065 C 
ATOM     28  C   UNL     1      31.032  -9.474 -21.234  0.00  0.00    +0.122 C 
ATOM     29  C   UNL     1      32.328 -10.491 -22.653  0.00  0.00    +0.072 C 
ATOM     30  C   UNL     1      30.845 -11.303 -19.504  0.00  0.00    -0.020 C 
ATOM     31  C   UNL     1      31.268  -8.532 -20.086  0.00  0.00    -0.004 C 
ATOM     32  C   UNL     1      30.767 -10.359 -18.548  0.00  0.00    -0.004 C 
ATOM     33  C   UNL     1      31.115  -8.971 -18.823  0.00  0.00    -0.003 C 
ENDBRANCH  24  26
ENDBRANCH  19  24
ENDBRANCH  18  19
ENDBRANCH   1  18
TORSDOF 7
ENDMDL
