MODEL 1
REMARK VINA RESULT:     -11.0      0.000      0.000
REMARK  Name = 72696796
REMARK  9 active torsions:
REMARK  status: ('A' for Active; 'I' for Inactive)
REMARK    1  A    between atoms: N_2  and  C_29
REMARK    2  A    between atoms: C_10  and  C_12
REMARK    3  A    between atoms: C_13  and  C_16
REMARK    4  A    between atoms: N_15  and  C_18
REMARK    5  A    between atoms: C_18  and  C_20
REMARK    6  A    between atoms: C_29  and  O_30
REMARK    7  A    between atoms: O_30  and  P_31
REMARK    8  A    between atoms: P_31  and  O_33
REMARK    9  A    between atoms: P_31  and  O_35
REMARK                            x       y       z     vdW  Elec       q    Type
REMARK                         _______ _______ _______ _____ _____    ______ ____
ROOT
ATOM      1  O   UNL     1      30.866  -7.375 -18.975  0.00  0.00    -0.274 OA
ATOM      2  N   UNL     1      31.504  -8.706 -20.777  0.00  0.00    -0.217 N 
ATOM      3  N   UNL     1      32.232 -10.154 -22.555  0.00  0.00    -0.229 NA
ATOM      4  C   UNL     1      30.659 -10.939 -19.219  0.00  0.00    +0.039 C 
ATOM      5  C   UNL     1      31.328 -11.125 -20.544  0.00  0.00    +0.010 C 
ATOM      6  C   UNL     1      31.192  -9.693 -18.542  0.00  0.00    +0.090 C 
ATOM      7  C   UNL     1      31.707 -10.019 -21.309  0.00  0.00    +0.135 C 
ATOM      8  C   UNL     1      31.135  -8.481 -19.448  0.00  0.00    +0.233 C 
ATOM      9  C   UNL     1      31.502 -12.402 -21.086  0.00  0.00    +0.000 C 
ATOM     10  C   UNL     1      32.054 -12.552 -22.350  0.00  0.00    +0.019 C 
ATOM     11  C   UNL     1      32.399 -11.406 -23.038  0.00  0.00    +0.100 C 
ENDROOT
BRANCH  10  12
ATOM     12  C   UNL     1      32.275 -13.867 -22.923  0.00  0.00    +0.006 C 
ATOM     13  C   UNL     1      33.486 -14.426 -23.156  0.00  0.00    +0.058 C 
BRANCH  13  16
ATOM     14  O   UNL     1      33.353 -15.911 -24.987  0.00  0.00    -0.270 OA
ATOM     15  N   UNL     1      33.967 -16.822 -22.938  0.00  0.00    -0.267 N 
ATOM     16  C   UNL     1      33.583 -15.777 -23.783  0.00  0.00    +0.250 C 
ATOM     17  C   UNL     1      34.114 -18.166 -23.483  0.00  0.00    +0.116 C 
BRANCH  15  18
ATOM     18  C   UNL     1      34.279 -16.682 -21.517  0.00  0.00    +0.158 C 
BRANCH  18  20
ATOM     19  O   UNL     1      33.057 -18.514 -20.498  0.00  0.00    -0.456 OA
ATOM     20  C   UNL     1      34.279 -18.007 -20.810  0.00  0.00    +0.139 A 
ATOM     21  C   UNL     1      35.279 -18.853 -20.391  0.00  0.00    +0.013 A 
ATOM     22  C   UNL     1      34.636 -19.961 -19.778  0.00  0.00    +0.033 A 
ATOM     23  C   UNL     1      33.272 -19.703 -19.869  0.00  0.00    +0.145 A 
ATOM     24  C   UNL     1      36.731 -18.647 -20.550  0.00  0.00    +0.034 C 
ATOM     25  C   UNL     1      35.056 -21.149 -19.157  0.00  0.00    +0.003 C 
ATOM     26  C   UNL     1      32.283 -20.555 -19.381  0.00  0.00    +0.037 C 
ATOM     27  C   UNL     1      34.084 -22.026 -18.656  0.00  0.00    +0.000 C 
ATOM     28  C   UNL     1      32.722 -21.731 -18.767  0.00  0.00    +0.003 C 
ENDBRANCH  18  20
ENDBRANCH  15  18
ENDBRANCH  13  16
ENDBRANCH  10  12
BRANCH   2  29
ATOM     29  C   UNL     1      31.691  -7.581 -21.687  0.00  0.00    +0.257 C 
BRANCH  29  30
ATOM     30  O   UNL     1      33.068  -7.259 -21.739  0.00  0.00    -0.251 OA
BRANCH  30  31
ATOM     31  P   UNL     1      33.791  -7.203 -23.186  0.00  0.00    +0.475 P 
ATOM     32  O   UNL     1      34.436  -5.893 -23.537  0.00  0.00    -0.227 OA
BRANCH  31  33
ATOM     33  O   UNL     1      32.629  -7.686 -24.201  0.00  0.00    -0.303 OA
ATOM     34  H   UNL     1      33.016  -8.240 -24.896  0.00  0.00    +0.222 HD
ENDBRANCH  31  33
BRANCH  31  35
ATOM     35  O   UNL     1      34.800  -8.468 -23.158  0.00  0.00    -0.303 OA
ATOM     36  H   UNL     1      34.659  -8.977 -22.345  0.00  0.00    +0.222 HD
ENDBRANCH  31  35
ENDBRANCH  30  31
ENDBRANCH  29  30
ENDBRANCH   2  29
TORSDOF 9
ENDMDL
MODEL 2
REMARK VINA RESULT:     -10.9      5.731     12.124
REMARK  Name = 72696796
REMARK  9 active torsions:
REMARK  status: ('A' for Active; 'I' for Inactive)
REMARK    1  A    between atoms: N_2  and  C_29
REMARK    2  A    between atoms: C_10  and  C_12
REMARK    3  A    between atoms: C_13  and  C_16
REMARK    4  A    between atoms: N_15  and  C_18
REMARK    5  A    between atoms: C_18  and  C_20
REMARK    6  A    between atoms: C_29  and  O_30
REMARK    7  A    between atoms: O_30  and  P_31
REMARK    8  A    between atoms: P_31  and  O_33
REMARK    9  A    between atoms: P_31  and  O_35
REMARK                            x       y       z     vdW  Elec       q    Type
REMARK                         _______ _______ _______ _____ _____    ______ ____
ROOT
ATOM      1  O   UNL     1      32.988 -23.845 -13.923  0.00  0.00    -0.274 OA
ATOM      2  N   UNL     1      34.179 -22.710 -15.572  0.00  0.00    -0.217 N 
ATOM      3  N   UNL     1      35.349 -21.612 -17.365  0.00  0.00    -0.229 NA
ATOM      4  C   UNL     1      31.673 -22.283 -16.862  0.00  0.00    +0.039 C 
ATOM      5  C   UNL     1      32.958 -21.870 -17.506  0.00  0.00    +0.010 C 
ATOM      6  C   UNL     1      31.895 -23.518 -16.012  0.00  0.00    +0.090 C 
ATOM      7  C   UNL     1      34.175 -22.058 -16.847  0.00  0.00    +0.135 C 
ATOM      8  C   UNL     1      33.052 -23.350 -15.050  0.00  0.00    +0.233 C 
ATOM      9  C   UNL     1      32.961 -21.205 -18.736  0.00  0.00    +0.000 C 
ATOM     10  C   UNL     1      34.157 -20.761 -19.283  0.00  0.00    +0.019 C 
ATOM     11  C   UNL     1      35.313 -20.986 -18.563  0.00  0.00    +0.100 C 
ENDROOT
BRANCH  10  12
ATOM     12  C   UNL     1      34.193 -20.096 -20.572  0.00  0.00    +0.006 C 
ATOM     13  C   UNL     1      33.725 -18.851 -20.824  0.00  0.00    +0.058 C 
BRANCH  13  16
ATOM     14  O   UNL     1      33.600 -19.023 -23.175  0.00  0.00    -0.270 OA
ATOM     15  N   UNL     1      34.040 -16.915 -22.298  0.00  0.00    -0.267 N 
ATOM     16  C   UNL     1      33.789 -18.287 -22.204  0.00  0.00    +0.250 C 
ATOM     17  C   UNL     1      34.087 -16.285 -23.612  0.00  0.00    +0.116 C 
BRANCH  15  18
ATOM     18  C   UNL     1      34.232 -16.017 -21.162  0.00  0.00    +0.158 C 
BRANCH  18  20
ATOM     19  O   UNL     1      34.055 -13.990 -22.485  0.00  0.00    -0.456 OA
ATOM     20  C   UNL     1      33.607 -14.672 -21.399  0.00  0.00    +0.139 A 
ATOM     21  C   UNL     1      32.643 -13.949 -20.734  0.00  0.00    +0.013 A 
ATOM     22  C   UNL     1      32.482 -12.737 -21.456  0.00  0.00    +0.033 A 
ATOM     23  C   UNL     1      33.373 -12.811 -22.522  0.00  0.00    +0.145 A 
ATOM     24  C   UNL     1      31.922 -14.357 -19.514  0.00  0.00    +0.034 C 
ATOM     25  C   UNL     1      31.684 -11.588 -21.325  0.00  0.00    +0.003 C 
ATOM     26  C   UNL     1      33.528 -11.811 -23.480  0.00  0.00    +0.037 C 
ATOM     27  C   UNL     1      31.818 -10.564 -22.274  0.00  0.00    +0.000 C 
ATOM     28  C   UNL     1      32.725 -10.677 -23.331  0.00  0.00    +0.003 C 
ENDBRANCH  18  20
ENDBRANCH  15  18
ENDBRANCH  13  16
ENDBRANCH  10  12
BRANCH   2  29
ATOM     29  C   UNL     1      35.424 -22.680 -14.811  0.00  0.00    +0.257 C 
BRANCH  29  30
ATOM     30  O   UNL     1      36.114 -23.898 -15.015  0.00  0.00    -0.251 OA
BRANCH  30  31
ATOM     31  P   UNL     1      36.651 -24.706 -13.719  0.00  0.00    +0.475 P 
ATOM     32  O   UNL     1      37.423 -23.890 -12.723  0.00  0.00    -0.227 OA
BRANCH  31  33
ATOM     33  O   UNL     1      37.464 -25.945 -14.365  0.00  0.00    -0.303 OA
ATOM     34  H   UNL     1      36.941 -26.758 -14.274  0.00  0.00    +0.222 HD
ENDBRANCH  31  33
BRANCH  31  35
ATOM     35  O   UNL     1      35.319 -25.410 -13.129  0.00  0.00    -0.303 OA
ATOM     36  H   UNL     1      35.029 -26.111 -13.733  0.00  0.00    +0.222 HD
ENDBRANCH  31  35
ENDBRANCH  30  31
ENDBRANCH  29  30
ENDBRANCH   2  29
TORSDOF 9
ENDMDL
MODEL 3
REMARK VINA RESULT:     -10.9      5.373     11.837
REMARK  Name = 72696796
REMARK  9 active torsions:
REMARK  status: ('A' for Active; 'I' for Inactive)
REMARK    1  A    between atoms: N_2  and  C_29
REMARK    2  A    between atoms: C_10  and  C_12
REMARK    3  A    between atoms: C_13  and  C_16
REMARK    4  A    between atoms: N_15  and  C_18
REMARK    5  A    between atoms: C_18  and  C_20
REMARK    6  A    between atoms: C_29  and  O_30
REMARK    7  A    between atoms: O_30  and  P_31
REMARK    8  A    between atoms: P_31  and  O_33
REMARK    9  A    between atoms: P_31  and  O_35
REMARK                            x       y       z     vdW  Elec       q    Type
REMARK                         _______ _______ _______ _____ _____    ______ ____
ROOT
ATOM      1  O   UNL     1      35.044 -23.235 -14.319  0.00  0.00    -0.274 OA
ATOM      2  N   UNL     1      33.750 -22.529 -16.124  0.00  0.00    -0.217 N 
ATOM      3  N   UNL     1      32.468 -21.682 -17.975  0.00  0.00    -0.229 NA
ATOM      4  C   UNL     1      36.167 -21.528 -17.257  0.00  0.00    +0.039 C 
ATOM      5  C   UNL     1      34.843 -21.285 -17.910  0.00  0.00    +0.010 C 
ATOM      6  C   UNL     1      35.997 -21.591 -15.753  0.00  0.00    +0.090 C 
ATOM      7  C   UNL     1      33.672 -21.809 -17.358  0.00  0.00    +0.135 C 
ATOM      8  C   UNL     1      34.907 -22.558 -15.340  0.00  0.00    +0.233 C 
ATOM      9  C   UNL     1      34.761 -20.609 -19.131  0.00  0.00    +0.000 C 
ATOM     10  C   UNL     1      33.533 -20.458 -19.762  0.00  0.00    +0.019 C 
ATOM     11  C   UNL     1      32.427 -21.010 -19.147  0.00  0.00    +0.100 C 
ENDROOT
BRANCH  10  12
ATOM     12  C   UNL     1      33.414 -19.734 -21.014  0.00  0.00    +0.006 C 
ATOM     13  C   UNL     1      34.043 -18.571 -21.309  0.00  0.00    +0.058 C 
BRANCH  13  16
ATOM     14  O   UNL     1      33.591 -18.587 -23.626  0.00  0.00    -0.270 OA
ATOM     15  N   UNL     1      33.842 -16.507 -22.618  0.00  0.00    -0.267 N 
ATOM     16  C   UNL     1      33.813 -17.904 -22.624  0.00  0.00    +0.250 C 
ATOM     17  C   UNL     1      33.596 -15.781 -23.858  0.00  0.00    +0.116 C 
BRANCH  15  18
ATOM     18  C   UNL     1      34.069 -15.676 -21.438  0.00  0.00    +0.158 C 
BRANCH  18  20
ATOM     19  O   UNL     1      33.924 -13.566 -22.629  0.00  0.00    -0.456 OA
ATOM     20  C   UNL     1      33.462 -14.309 -21.589  0.00  0.00    +0.139 A 
ATOM     21  C   UNL     1      32.508 -13.617 -20.881  0.00  0.00    +0.013 A 
ATOM     22  C   UNL     1      32.366 -12.360 -21.524  0.00  0.00    +0.033 A 
ATOM     23  C   UNL     1      33.258 -12.378 -22.591  0.00  0.00    +0.145 A 
ATOM     24  C   UNL     1      31.777 -14.092 -19.690  0.00  0.00    +0.034 C 
ATOM     25  C   UNL     1      31.584 -11.209 -21.322  0.00  0.00    +0.003 C 
ATOM     26  C   UNL     1      33.430 -11.321 -23.483  0.00  0.00    +0.037 C 
ATOM     27  C   UNL     1      31.734 -10.130 -22.203  0.00  0.00    +0.000 C 
ATOM     28  C   UNL     1      32.642 -10.187 -23.264  0.00  0.00    +0.003 C 
ENDBRANCH  18  20
ENDBRANCH  15  18
ENDBRANCH  13  16
ENDBRANCH  10  12
BRANCH   2  29
ATOM     29  C   UNL     1      32.559 -23.258 -15.700  0.00  0.00    +0.257 C 
BRANCH  29  30
ATOM     30  O   UNL     1      32.064 -22.673 -14.510  0.00  0.00    -0.251 OA
BRANCH  30  31
ATOM     31  P   UNL     1      31.522 -23.650 -13.340  0.00  0.00    +0.475 P 
ATOM     32  O   UNL     1      30.258 -24.397 -13.654  0.00  0.00    -0.227 OA
BRANCH  31  33
ATOM     33  O   UNL     1      31.438 -22.676 -12.052  0.00  0.00    -0.303 OA
ATOM     34  H   UNL     1      30.611 -22.169 -12.084  0.00  0.00    +0.222 HD
ENDBRANCH  31  33
BRANCH  31  35
ATOM     35  O   UNL     1      32.796 -24.589 -13.004  0.00  0.00    -0.303 OA
ATOM     36  H   UNL     1      33.308 -24.742 -13.814  0.00  0.00    +0.222 HD
ENDBRANCH  31  35
ENDBRANCH  30  31
ENDBRANCH  29  30
ENDBRANCH   2  29
TORSDOF 9
ENDMDL
MODEL 4
REMARK VINA RESULT:     -10.7      1.593      2.877
REMARK  Name = 72696796
REMARK  9 active torsions:
REMARK  status: ('A' for Active; 'I' for Inactive)
REMARK    1  A    between atoms: N_2  and  C_29
REMARK    2  A    between atoms: C_10  and  C_12
REMARK    3  A    between atoms: C_13  and  C_16
REMARK    4  A    between atoms: N_15  and  C_18
REMARK    5  A    between atoms: C_18  and  C_20
REMARK    6  A    between atoms: C_29  and  O_30
REMARK    7  A    between atoms: O_30  and  P_31
REMARK    8  A    between atoms: P_31  and  O_33
REMARK    9  A    between atoms: P_31  and  O_35
REMARK                            x       y       z     vdW  Elec       q    Type
REMARK                         _______ _______ _______ _____ _____    ______ ____
ROOT
ATOM      1  O   UNL     1      32.592  -6.167 -22.091  0.00  0.00    -0.274 OA
ATOM      2  N   UNL     1      32.235  -8.459 -21.873  0.00  0.00    -0.217 N 
ATOM      3  N   UNL     1      31.826 -10.828 -21.773  0.00  0.00    -0.229 NA
ATOM      4  C   UNL     1      33.805  -8.765 -24.232  0.00  0.00    +0.039 C 
ATOM      5  C   UNL     1      33.122  -9.934 -23.596  0.00  0.00    +0.010 C 
ATOM      6  C   UNL     1      32.986  -7.509 -24.017  0.00  0.00    +0.090 C 
ATOM      7  C   UNL     1      32.381  -9.772 -22.423  0.00  0.00    +0.135 C 
ATOM      8  C   UNL     1      32.621  -7.306 -22.561  0.00  0.00    +0.233 C 
ATOM      9  C   UNL     1      33.285 -11.225 -24.109  0.00  0.00    +0.000 C 
ATOM     10  C   UNL     1      32.707 -12.308 -23.463  0.00  0.00    +0.019 C 
ATOM     11  C   UNL     1      31.994 -12.058 -22.307  0.00  0.00    +0.100 C 
ENDROOT
BRANCH  10  12
ATOM     12  C   UNL     1      32.834 -13.654 -23.990  0.00  0.00    +0.006 C 
ATOM     13  C   UNL     1      32.781 -14.791 -23.256  0.00  0.00    +0.058 C 
BRANCH  13  16
ATOM     14  O   UNL     1      32.477 -16.322 -25.028  0.00  0.00    -0.270 OA
ATOM     15  N   UNL     1      33.709 -17.061 -23.201  0.00  0.00    -0.267 N 
ATOM     16  C   UNL     1      32.960 -16.119 -23.912  0.00  0.00    +0.250 C 
ATOM     17  C   UNL     1      33.954 -18.372 -23.789  0.00  0.00    +0.116 C 
BRANCH  15  18
ATOM     18  C   UNL     1      34.321 -16.834 -21.893  0.00  0.00    +0.158 C 
BRANCH  18  20
ATOM     19  O   UNL     1      33.079 -18.589 -20.767  0.00  0.00    -0.456 OA
ATOM     20  C   UNL     1      34.306 -18.073 -21.044  0.00  0.00    +0.139 A 
ATOM     21  C   UNL     1      35.295 -18.830 -20.461  0.00  0.00    +0.013 A 
ATOM     22  C   UNL     1      34.640 -19.888 -19.777  0.00  0.00    +0.033 A 
ATOM     23  C   UNL     1      33.280 -19.693 -19.995  0.00  0.00    +0.145 A 
ATOM     24  C   UNL     1      36.749 -18.588 -20.537  0.00  0.00    +0.034 C 
ATOM     25  C   UNL     1      35.046 -20.984 -18.998  0.00  0.00    +0.003 C 
ATOM     26  C   UNL     1      32.282 -20.523 -19.489  0.00  0.00    +0.037 C 
ATOM     27  C   UNL     1      34.064 -21.837 -18.474  0.00  0.00    +0.000 C 
ATOM     28  C   UNL     1      32.707 -21.608 -18.717  0.00  0.00    +0.003 C 
ENDBRANCH  18  20
ENDBRANCH  15  18
ENDBRANCH  13  16
ENDBRANCH  10  12
BRANCH   2  29
ATOM     29  C   UNL     1      31.661  -8.356 -20.535  0.00  0.00    +0.257 C 
BRANCH  29  30
ATOM     30  O   UNL     1      30.895  -7.169 -20.455  0.00  0.00    -0.251 OA
BRANCH  30  31
ATOM     31  P   UNL     1      31.160  -6.164 -19.214  0.00  0.00    +0.475 P 
ATOM     32  O   UNL     1      30.177  -6.258 -18.084  0.00  0.00    -0.227 OA
BRANCH  31  33
ATOM     33  O   UNL     1      31.250  -4.714 -19.924  0.00  0.00    -0.303 OA
ATOM     34  H   UNL     1      30.371  -4.302 -19.929  0.00  0.00    +0.222 HD
ENDBRANCH  31  33
BRANCH  31  35
ATOM     35  O   UNL     1      32.696  -6.463 -18.801  0.00  0.00    -0.303 OA
ATOM     36  H   UNL     1      33.168  -5.625 -18.679  0.00  0.00    +0.222 HD
ENDBRANCH  31  35
ENDBRANCH  30  31
ENDBRANCH  29  30
ENDBRANCH   2  29
TORSDOF 9
ENDMDL
MODEL 5
REMARK VINA RESULT:     -10.1      3.955      9.681
REMARK  Name = 72696796
REMARK  9 active torsions:
REMARK  status: ('A' for Active; 'I' for Inactive)
REMARK    1  A    between atoms: N_2  and  C_29
REMARK    2  A    between atoms: C_10  and  C_12
REMARK    3  A    between atoms: C_13  and  C_16
REMARK    4  A    between atoms: N_15  and  C_18
REMARK    5  A    between atoms: C_18  and  C_20
REMARK    6  A    between atoms: C_29  and  O_30
REMARK    7  A    between atoms: O_30  and  P_31
REMARK    8  A    between atoms: P_31  and  O_33
REMARK    9  A    between atoms: P_31  and  O_35
REMARK                            x       y       z     vdW  Elec       q    Type
REMARK                         _______ _______ _______ _____ _____    ______ ____
ROOT
ATOM      1  O   UNL     1      32.469 -16.511 -24.662  0.00  0.00    -0.274 OA
ATOM      2  N   UNL     1      32.975 -14.529 -23.548  0.00  0.00    -0.217 N 
ATOM      3  N   UNL     1      33.562 -12.442 -22.503  0.00  0.00    -0.229 NA
ATOM      4  C   UNL     1      31.933 -13.169 -25.826  0.00  0.00    +0.039 C 
ATOM      5  C   UNL     1      32.577 -12.421 -24.702  0.00  0.00    +0.010 C 
ATOM      6  C   UNL     1      32.580 -14.530 -25.978  0.00  0.00    +0.090 C 
ATOM      7  C   UNL     1      33.055 -13.100 -23.578  0.00  0.00    +0.135 C 
ATOM      8  C   UNL     1      32.633 -15.289 -24.668  0.00  0.00    +0.233 C 
ATOM      9  C   UNL     1      32.631 -11.024 -24.710  0.00  0.00    +0.000 C 
ATOM     10  C   UNL     1      33.163 -10.342 -23.625  0.00  0.00    +0.019 C 
ATOM     11  C   UNL     1      33.610 -11.092 -22.554  0.00  0.00    +0.100 C 
ENDROOT
BRANCH  10  12
ATOM     12  C   UNL     1      33.260  -8.894 -23.619  0.00  0.00    +0.006 C 
ATOM     13  C   UNL     1      32.500  -8.057 -24.364  0.00  0.00    +0.058 C 
BRANCH  13  16
ATOM     14  O   UNL     1      33.763  -6.096 -24.732  0.00  0.00    -0.270 OA
ATOM     15  N   UNL     1      31.674  -5.830 -23.748  0.00  0.00    -0.267 N 
ATOM     16  C   UNL     1      32.718  -6.582 -24.296  0.00  0.00    +0.250 C 
ATOM     17  C   UNL     1      31.799  -4.380 -23.675  0.00  0.00    +0.116 C 
BRANCH  15  18
ATOM     18  C   UNL     1      30.412  -6.379 -23.257  0.00  0.00    +0.158 C 
BRANCH  18  20
ATOM     19  O   UNL     1      30.320  -8.517 -22.113  0.00  0.00    -0.456 OA
ATOM     20  C   UNL     1      30.602  -7.192 -22.008  0.00  0.00    +0.139 A 
ATOM     21  C   UNL     1      31.014  -6.881 -20.733  0.00  0.00    +0.013 A 
ATOM     22  C   UNL     1      30.986  -8.095 -19.996  0.00  0.00    +0.033 A 
ATOM     23  C   UNL     1      30.552  -9.069 -20.889  0.00  0.00    +0.145 A 
ATOM     24  C   UNL     1      31.407  -5.550 -20.234  0.00  0.00    +0.034 C 
ATOM     25  C   UNL     1      31.278  -8.476 -18.675  0.00  0.00    +0.003 C 
ATOM     26  C   UNL     1      30.387 -10.413 -20.559  0.00  0.00    +0.037 C 
ATOM     27  C   UNL     1      31.121  -9.821 -18.313  0.00  0.00    +0.000 C 
ATOM     28  C   UNL     1      30.683 -10.770 -19.240  0.00  0.00    +0.003 C 
ENDBRANCH  18  20
ENDBRANCH  15  18
ENDBRANCH  13  16
ENDBRANCH  10  12
BRANCH   2  29
ATOM     29  C   UNL     1      33.263 -15.186 -22.277  0.00  0.00    +0.257 C 
BRANCH  29  30
ATOM     30  O   UNL     1      34.471 -15.912 -22.400  0.00  0.00    -0.251 OA
BRANCH  30  31
ATOM     31  P   UNL     1      34.572 -17.364 -21.692  0.00  0.00    +0.475 P 
ATOM     32  O   UNL     1      34.294 -17.386 -20.217  0.00  0.00    -0.227 OA
BRANCH  31  33
ATOM     33  O   UNL     1      36.042 -17.884 -22.119  0.00  0.00    -0.303 OA
ATOM     34  H   UNL     1      36.390 -17.322 -22.829  0.00  0.00    +0.222 HD
ENDBRANCH  31  33
BRANCH  31  35
ATOM     35  O   UNL     1      33.585 -18.291 -22.579  0.00  0.00    -0.303 OA
ATOM     36  H   UNL     1      32.678 -18.209 -22.247  0.00  0.00    +0.222 HD
ENDBRANCH  31  35
ENDBRANCH  30  31
ENDBRANCH  29  30
ENDBRANCH   2  29
TORSDOF 9
ENDMDL
MODEL 6
REMARK VINA RESULT:      -9.9      4.931     11.162
REMARK  Name = 72696796
REMARK  9 active torsions:
REMARK  status: ('A' for Active; 'I' for Inactive)
REMARK    1  A    between atoms: N_2  and  C_29
REMARK    2  A    between atoms: C_10  and  C_12
REMARK    3  A    between atoms: C_13  and  C_16
REMARK    4  A    between atoms: N_15  and  C_18
REMARK    5  A    between atoms: C_18  and  C_20
REMARK    6  A    between atoms: C_29  and  O_30
REMARK    7  A    between atoms: O_30  and  P_31
REMARK    8  A    between atoms: P_31  and  O_33
REMARK    9  A    between atoms: P_31  and  O_35
REMARK                            x       y       z     vdW  Elec       q    Type
REMARK                         _______ _______ _______ _____ _____    ______ ____
ROOT
ATOM      1  O   UNL     1      33.853 -23.197 -15.341  0.00  0.00    -0.274 OA
ATOM      2  N   UNL     1      34.494 -21.768 -17.066  0.00  0.00    -0.217 N 
ATOM      3  N   UNL     1      35.094 -20.371 -18.931  0.00  0.00    -0.229 NA
ATOM      4  C   UNL     1      31.753 -21.740 -17.845  0.00  0.00    +0.039 C 
ATOM      5  C   UNL     1      32.801 -21.060 -18.667  0.00  0.00    +0.010 C 
ATOM      6  C   UNL     1      32.341 -22.958 -17.163  0.00  0.00    +0.090 C 
ATOM      7  C   UNL     1      34.136 -21.056 -18.254  0.00  0.00    +0.135 C 
ATOM      8  C   UNL     1      33.615 -22.635 -16.412  0.00  0.00    +0.233 C 
ATOM      9  C   UNL     1      32.455 -20.336 -19.812  0.00  0.00    +0.000 C 
ATOM     10  C   UNL     1      33.430 -19.647 -20.521  0.00  0.00    +0.019 C 
ATOM     11  C   UNL     1      34.724 -19.695 -20.041  0.00  0.00    +0.100 C 
ENDROOT
BRANCH  10  12
ATOM     12  C   UNL     1      33.104 -18.914 -21.730  0.00  0.00    +0.006 C 
ATOM     13  C   UNL     1      33.913 -18.019 -22.344  0.00  0.00    +0.058 C 
BRANCH  13  16
ATOM     14  O   UNL     1      32.919 -17.934 -24.484  0.00  0.00    -0.270 OA
ATOM     15  N   UNL     1      33.634 -15.917 -23.578  0.00  0.00    -0.267 N 
ATOM     16  C   UNL     1      33.450 -17.302 -23.569  0.00  0.00    +0.250 C 
ATOM     17  C   UNL     1      33.180 -15.142 -24.726  0.00  0.00    +0.116 C 
BRANCH  15  18
ATOM     18  C   UNL     1      34.229 -15.141 -22.491  0.00  0.00    +0.158 C 
BRANCH  18  20
ATOM     19  O   UNL     1      32.640 -14.263 -20.881  0.00  0.00    -0.456 OA
ATOM     20  C   UNL     1      33.324 -14.033 -22.032  0.00  0.00    +0.139 A 
ATOM     21  C   UNL     1      33.023 -12.791 -22.539  0.00  0.00    +0.013 A 
ATOM     22  C   UNL     1      32.090 -12.208 -21.642  0.00  0.00    +0.033 A 
ATOM     23  C   UNL     1      31.887 -13.153 -20.641  0.00  0.00    +0.145 A 
ATOM     24  C   UNL     1      33.566 -12.186 -23.770  0.00  0.00    +0.034 C 
ATOM     25  C   UNL     1      31.394 -10.989 -21.566  0.00  0.00    +0.003 C 
ATOM     26  C   UNL     1      31.032 -12.970 -19.556  0.00  0.00    +0.037 C 
ATOM     27  C   UNL     1      30.526 -10.776 -20.486  0.00  0.00    +0.000 C 
ATOM     28  C   UNL     1      30.350 -11.751 -19.501  0.00  0.00    +0.003 C 
ENDBRANCH  18  20
ENDBRANCH  15  18
ENDBRANCH  13  16
ENDBRANCH  10  12
BRANCH   2  29
ATOM     29  C   UNL     1      35.838 -21.552 -16.539  0.00  0.00    +0.257 C 
BRANCH  29  30
ATOM     30  O   UNL     1      36.453 -22.809 -16.325  0.00  0.00    -0.251 OA
BRANCH  30  31
ATOM     31  P   UNL     1      36.927 -23.189 -14.825  0.00  0.00    +0.475 P 
ATOM     32  O   UNL     1      36.591 -22.181 -13.765  0.00  0.00    -0.227 OA
BRANCH  31  33
ATOM     33  O   UNL     1      38.505 -23.496 -15.001  0.00  0.00    -0.303 OA
ATOM     34  H   UNL     1      39.021 -22.789 -14.582  0.00  0.00    +0.222 HD
ENDBRANCH  31  33
BRANCH  31  35
ATOM     35  O   UNL     1      36.295 -24.659 -14.585  0.00  0.00    -0.303 OA
ATOM     36  H   UNL     1      36.031 -25.041 -15.436  0.00  0.00    +0.222 HD
ENDBRANCH  31  35
ENDBRANCH  30  31
ENDBRANCH  29  30
ENDBRANCH   2  29
TORSDOF 9
ENDMDL
MODEL 7
REMARK VINA RESULT:      -9.7      1.877      3.192
REMARK  Name = 72696796
REMARK  9 active torsions:
REMARK  status: ('A' for Active; 'I' for Inactive)
REMARK    1  A    between atoms: N_2  and  C_29
REMARK    2  A    between atoms: C_10  and  C_12
REMARK    3  A    between atoms: C_13  and  C_16
REMARK    4  A    between atoms: N_15  and  C_18
REMARK    5  A    between atoms: C_18  and  C_20
REMARK    6  A    between atoms: C_29  and  O_30
REMARK    7  A    between atoms: O_30  and  P_31
REMARK    8  A    between atoms: P_31  and  O_33
REMARK    9  A    between atoms: P_31  and  O_35
REMARK                            x       y       z     vdW  Elec       q    Type
REMARK                         _______ _______ _______ _____ _____    ______ ____
ROOT
ATOM      1  O   UNL     1      32.765  -6.806 -22.270  0.00  0.00    -0.274 OA
ATOM      2  N   UNL     1      32.068  -9.023 -22.099  0.00  0.00    -0.217 N 
ATOM      3  N   UNL     1      31.348 -11.318 -22.053  0.00  0.00    -0.229 NA
ATOM      4  C   UNL     1      34.227  -9.668 -23.845  0.00  0.00    +0.039 C 
ATOM      5  C   UNL     1      33.239 -10.705 -23.414  0.00  0.00    +0.010 C 
ATOM      6  C   UNL     1      33.549  -8.315 -23.935  0.00  0.00    +0.090 C 
ATOM      7  C   UNL     1      32.205 -10.379 -22.533  0.00  0.00    +0.135 C 
ATOM      8  C   UNL     1      32.788  -7.971 -22.671  0.00  0.00    +0.233 C 
ATOM      9  C   UNL     1      33.384 -12.039 -23.809  0.00  0.00    +0.000 C 
ATOM     10  C   UNL     1      32.503 -13.003 -23.339  0.00  0.00    +0.019 C 
ATOM     11  C   UNL     1      31.512 -12.594 -22.469  0.00  0.00    +0.100 C 
ENDROOT
BRANCH  10  12
ATOM     12  C   UNL     1      32.611 -14.388 -23.756  0.00  0.00    +0.006 C 
ATOM     13  C   UNL     1      33.373 -15.331 -23.152  0.00  0.00    +0.058 C 
BRANCH  13  16
ATOM     14  O   UNL     1      32.997 -16.948 -24.830  0.00  0.00    -0.270 OA
ATOM     15  N   UNL     1      34.003 -17.685 -22.869  0.00  0.00    -0.267 N 
ATOM     16  C   UNL     1      33.427 -16.719 -23.698  0.00  0.00    +0.250 C 
ATOM     17  C   UNL     1      34.120 -19.058 -23.343  0.00  0.00    +0.116 C 
BRANCH  15  18
ATOM     18  C   UNL     1      34.551 -17.431 -21.537  0.00  0.00    +0.158 C 
BRANCH  18  20
ATOM     19  O   UNL     1      33.116 -19.040 -20.424  0.00  0.00    -0.456 OA
ATOM     20  C   UNL     1      34.390 -18.616 -20.629  0.00  0.00    +0.139 A 
ATOM     21  C   UNL     1      35.281 -19.399 -19.933  0.00  0.00    +0.013 A 
ATOM     22  C   UNL     1      34.509 -20.374 -19.249  0.00  0.00    +0.033 A 
ATOM     23  C   UNL     1      33.185 -20.110 -19.583  0.00  0.00    +0.145 A 
ATOM     24  C   UNL     1      36.749 -19.251 -19.905  0.00  0.00    +0.034 C 
ATOM     25  C   UNL     1      34.783 -21.448 -18.384  0.00  0.00    +0.003 C 
ATOM     26  C   UNL     1      32.099 -20.847 -19.115  0.00  0.00    +0.037 C 
ATOM     27  C   UNL     1      33.711 -22.209 -17.897  0.00  0.00    +0.000 C 
ATOM     28  C   UNL     1      32.394 -21.911 -18.257  0.00  0.00    +0.003 C 
ENDBRANCH  18  20
ENDBRANCH  15  18
ENDBRANCH  13  16
ENDBRANCH  10  12
BRANCH   2  29
ATOM     29  C   UNL     1      31.134  -8.763 -21.008  0.00  0.00    +0.257 C 
BRANCH  29  30
ATOM     30  O   UNL     1      31.724  -9.178 -19.791  0.00  0.00    -0.251 OA
BRANCH  30  31
ATOM     31  P   UNL     1      30.875 -10.152 -18.816  0.00  0.00    +0.475 P 
ATOM     32  O   UNL     1      30.852  -9.758 -17.368  0.00  0.00    -0.227 OA
BRANCH  31  33
ATOM     33  O   UNL     1      31.497 -11.613 -19.118  0.00  0.00    -0.303 OA
ATOM     34  H   UNL     1      32.238 -11.780 -18.514  0.00  0.00    +0.222 HD
ENDBRANCH  31  33
BRANCH  31  35
ATOM     35  O   UNL     1      29.419 -10.222 -19.520  0.00  0.00    -0.303 OA
ATOM     36  H   UNL     1      29.506 -10.019 -20.465  0.00  0.00    +0.222 HD
ENDBRANCH  31  35
ENDBRANCH  30  31
ENDBRANCH  29  30
ENDBRANCH   2  29
TORSDOF 9
ENDMDL
MODEL 8
REMARK VINA RESULT:      -9.6      4.293     10.172
REMARK  Name = 72696796
REMARK  9 active torsions:
REMARK  status: ('A' for Active; 'I' for Inactive)
REMARK    1  A    between atoms: N_2  and  C_29
REMARK    2  A    between atoms: C_10  and  C_12
REMARK    3  A    between atoms: C_13  and  C_16
REMARK    4  A    between atoms: N_15  and  C_18
REMARK    5  A    between atoms: C_18  and  C_20
REMARK    6  A    between atoms: C_29  and  O_30
REMARK    7  A    between atoms: O_30  and  P_31
REMARK    8  A    between atoms: P_31  and  O_33
REMARK    9  A    between atoms: P_31  and  O_35
REMARK                            x       y       z     vdW  Elec       q    Type
REMARK                         _______ _______ _______ _____ _____    ______ ____
ROOT
ATOM      1  O   UNL     1      31.553 -13.996 -19.554  0.00  0.00    -0.274 OA
ATOM      2  N   UNL     1      32.422 -12.989 -21.467  0.00  0.00    -0.217 N 
ATOM      3  N   UNL     1      33.200 -11.902 -23.468  0.00  0.00    -0.229 NA
ATOM      4  C   UNL     1      31.231 -10.571 -20.540  0.00  0.00    +0.039 C 
ATOM      5  C   UNL     1      31.900 -10.645 -21.876  0.00  0.00    +0.010 C 
ATOM      6  C   UNL     1      30.608 -11.909 -20.200  0.00  0.00    +0.090 C 
ATOM      7  C   UNL     1      32.507 -11.829 -22.302  0.00  0.00    +0.135 C 
ATOM      8  C   UNL     1      31.590 -13.052 -20.346  0.00  0.00    +0.233 C 
ATOM      9  C   UNL     1      32.015  -9.509 -22.683  0.00  0.00    +0.000 C 
ATOM     10  C   UNL     1      32.705  -9.577 -23.885  0.00  0.00    +0.019 C 
ATOM     11  C   UNL     1      33.276 -10.787 -24.228  0.00  0.00    +0.100 C 
ENDROOT
BRANCH  10  12
ATOM     12  C   UNL     1      32.813  -8.423 -24.757  0.00  0.00    +0.006 C 
ATOM     13  C   UNL     1      31.861  -7.473 -24.920  0.00  0.00    +0.058 C 
BRANCH  13  16
ATOM     14  O   UNL     1      31.432  -6.303 -26.925  0.00  0.00    -0.270 OA
ATOM     15  N   UNL     1      33.005  -5.378 -25.485  0.00  0.00    -0.267 N 
ATOM     16  C   UNL     1      32.076  -6.347 -25.875  0.00  0.00    +0.250 C 
ATOM     17  C   UNL     1      33.249  -4.231 -26.350  0.00  0.00    +0.116 C 
BRANCH  15  18
ATOM     18  C   UNL     1      33.755  -5.390 -24.231  0.00  0.00    +0.158 C 
BRANCH  18  20
ATOM     19  O   UNL     1      33.137  -6.323 -22.077  0.00  0.00    -0.456 OA
ATOM     20  C   UNL     1      32.847  -5.403 -23.034  0.00  0.00    +0.139 A 
ATOM     21  C   UNL     1      31.744  -4.662 -22.679  0.00  0.00    +0.013 A 
ATOM     22  C   UNL     1      31.321  -5.154 -21.416  0.00  0.00    +0.033 A 
ATOM     23  C   UNL     1      32.209  -6.174 -21.091  0.00  0.00    +0.145 A 
ATOM     24  C   UNL     1      31.128  -3.571 -23.458  0.00  0.00    +0.034 C 
ATOM     25  C   UNL     1      30.286  -4.851 -20.514  0.00  0.00    +0.003 C 
ATOM     26  C   UNL     1      32.142  -6.924 -19.918  0.00  0.00    +0.037 C 
ATOM     27  C   UNL     1      30.193  -5.588 -19.325  0.00  0.00    +0.000 C 
ATOM     28  C   UNL     1      31.105  -6.606 -19.036  0.00  0.00    +0.003 C 
ENDBRANCH  18  20
ENDBRANCH  15  18
ENDBRANCH  13  16
ENDBRANCH  10  12
BRANCH   2  29
ATOM     29  C   UNL     1      33.256 -14.131 -21.825  0.00  0.00    +0.257 C 
BRANCH  29  30
ATOM     30  O   UNL     1      32.561 -14.929 -22.765  0.00  0.00    -0.251 OA
BRANCH  30  31
ATOM     31  P   UNL     1      33.393 -15.568 -23.997  0.00  0.00    +0.475 P 
ATOM     32  O   UNL     1      33.062 -16.994 -24.330  0.00  0.00    -0.227 OA
BRANCH  31  33
ATOM     33  O   UNL     1      34.933 -15.303 -23.583  0.00  0.00    -0.303 OA
ATOM     34  H   UNL     1      35.473 -16.068 -23.836  0.00  0.00    +0.222 HD
ENDBRANCH  31  33
BRANCH  31  35
ATOM     35  O   UNL     1      33.154 -14.519 -25.205  0.00  0.00    -0.303 OA
ATOM     36  H   UNL     1      32.304 -14.705 -25.633  0.00  0.00    +0.222 HD
ENDBRANCH  31  35
ENDBRANCH  30  31
ENDBRANCH  29  30
ENDBRANCH   2  29
TORSDOF 9
ENDMDL
MODEL 9
REMARK VINA RESULT:      -9.6      3.479     10.819
REMARK  Name = 72696796
REMARK  9 active torsions:
REMARK  status: ('A' for Active; 'I' for Inactive)
REMARK    1  A    between atoms: N_2  and  C_29
REMARK    2  A    between atoms: C_10  and  C_12
REMARK    3  A    between atoms: C_13  and  C_16
REMARK    4  A    between atoms: N_15  and  C_18
REMARK    5  A    between atoms: C_18  and  C_20
REMARK    6  A    between atoms: C_29  and  O_30
REMARK    7  A    between atoms: O_30  and  P_31
REMARK    8  A    between atoms: P_31  and  O_33
REMARK    9  A    between atoms: P_31  and  O_35
REMARK                            x       y       z     vdW  Elec       q    Type
REMARK                         _______ _______ _______ _____ _____    ______ ____
ROOT
ATOM      1  O   UNL     1      34.247 -16.578 -24.696  0.00  0.00    -0.274 OA
ATOM      2  N   UNL     1      33.849 -15.562 -22.637  0.00  0.00    -0.217 N 
ATOM      3  N   UNL     1      33.456 -14.397 -20.569  0.00  0.00    -0.229 NA
ATOM      4  C   UNL     1      31.949 -13.925 -23.993  0.00  0.00    +0.039 C 
ATOM      5  C   UNL     1      32.287 -13.694 -22.555  0.00  0.00    +0.010 C 
ATOM      6  C   UNL     1      33.161 -14.460 -24.729  0.00  0.00    +0.090 C 
ATOM      7  C   UNL     1      33.197 -14.525 -21.897  0.00  0.00    +0.135 C 
ATOM      8  C   UNL     1      33.775 -15.654 -24.029  0.00  0.00    +0.233 C 
ATOM      9  C   UNL     1      31.633 -12.704 -21.816  0.00  0.00    +0.000 C 
ATOM     10  C   UNL     1      31.903 -12.552 -20.463  0.00  0.00    +0.019 C 
ATOM     11  C   UNL     1      32.815 -13.419 -19.892  0.00  0.00    +0.100 C 
ENDROOT
BRANCH  10  12
ATOM     12  C   UNL     1      31.262 -11.513 -19.679  0.00  0.00    +0.006 C 
ATOM     13  C   UNL     1      31.222 -10.200 -20.005  0.00  0.00    +0.058 C 
BRANCH  13  16
ATOM     14  O   UNL     1      29.657  -9.594 -18.344  0.00  0.00    -0.270 OA
ATOM     15  N   UNL     1      31.040  -7.908 -19.148  0.00  0.00    -0.267 N 
ATOM     16  C   UNL     1      30.558  -9.219 -19.097  0.00  0.00    +0.250 C 
ATOM     17  C   UNL     1      30.463  -6.898 -18.269  0.00  0.00    +0.116 C 
BRANCH  15  18
ATOM     18  C   UNL     1      32.129  -7.446 -20.006  0.00  0.00    +0.158 C 
BRANCH  18  20
ATOM     19  O   UNL     1      31.952  -7.819 -22.398  0.00  0.00    -0.456 OA
ATOM     20  C   UNL     1      31.634  -7.008 -21.355  0.00  0.00    +0.139 A 
ATOM     21  C   UNL     1      30.903  -5.926 -21.785  0.00  0.00    +0.013 A 
ATOM     22  C   UNL     1      30.755  -6.074 -23.189  0.00  0.00    +0.033 A 
ATOM     23  C   UNL     1      31.419  -7.252 -23.516  0.00  0.00    +0.145 A 
ATOM     24  C   UNL     1      30.376  -4.830 -20.949  0.00  0.00    +0.034 C 
ATOM     25  C   UNL     1      30.137  -5.343 -24.218  0.00  0.00    +0.003 C 
ATOM     26  C   UNL     1      31.512  -7.763 -24.809  0.00  0.00    +0.037 C 
ATOM     27  C   UNL     1      30.214  -5.832 -25.530  0.00  0.00    +0.000 C 
ATOM     28  C   UNL     1      30.890  -7.020 -25.817  0.00  0.00    +0.003 C 
ENDBRANCH  18  20
ENDBRANCH  15  18
ENDBRANCH  13  16
ENDBRANCH  10  12
BRANCH   2  29
ATOM     29  C   UNL     1      34.606 -16.550 -21.877  0.00  0.00    +0.257 C 
BRANCH  29  30
ATOM     30  O   UNL     1      33.700 -17.391 -21.187  0.00  0.00    -0.251 OA
BRANCH  30  31
ATOM     31  P   UNL     1      34.088 -18.951 -20.999  0.00  0.00    +0.475 P 
ATOM     32  O   UNL     1      33.072 -19.787 -20.277  0.00  0.00    -0.227 OA
BRANCH  31  33
ATOM     33  O   UNL     1      35.544 -18.889 -20.300  0.00  0.00    -0.303 OA
ATOM     34  H   UNL     1      35.455 -19.065 -19.350  0.00  0.00    +0.222 HD
ENDBRANCH  31  33
BRANCH  31  35
ATOM     35  O   UNL     1      34.426 -19.445 -22.503  0.00  0.00    -0.303 OA
ATOM     36  H   UNL     1      34.024 -20.314 -22.656  0.00  0.00    +0.222 HD
ENDBRANCH  31  35
ENDBRANCH  30  31
ENDBRANCH  29  30
ENDBRANCH   2  29
TORSDOF 9
ENDMDL
