MODEL 1
REMARK VINA RESULT:     -12.6      0.000      0.000
REMARK  Name = 448605
REMARK  6 active torsions:
REMARK  status: ('A' for Active; 'I' for Inactive)
REMARK    1  A    between atoms: C_3  and  N_11
REMARK    2  A    between atoms: C_4  and  C_27
REMARK    3  A    between atoms: C_9  and  C_21
REMARK    4  A    between atoms: N_26  and  C_29
REMARK    5  A    between atoms: C_30  and  C_35
REMARK    6  A    between atoms: C_35  and  N_36
REMARK                            x       y       z     vdW  Elec       q    Type
REMARK                         _______ _______ _______ _____ _____    ______ ____
ROOT
ATOM      1  C   UNL     1      33.324 -22.754 -15.589  0.00  0.00    +0.014 C 
ATOM      2  C   UNL     1      32.359 -22.458 -16.582  0.00  0.00    +0.001 C 
ATOM      3  C   UNL     1      34.664 -22.393 -15.803  0.00  0.00    +0.057 C 
ATOM      4  C   UNL     1      34.100 -21.457 -17.956  0.00  0.00    +0.055 C 
ATOM      5  C   UNL     1      32.764 -21.808 -17.760  0.00  0.00    +0.005 C 
ATOM      6  C   UNL     1      35.048 -21.748 -16.980  0.00  0.00    +0.020 C 
ATOM      7  C   UNL     1      32.920 -23.403 -14.411  0.00  0.00    +0.004 C 
ATOM      8  C   UNL     1      31.020 -22.820 -16.367  0.00  0.00    +0.000 C 
ATOM      9  C   UNL     1      31.584 -23.755 -14.214  0.00  0.00    +0.031 C 
ATOM     10  C   UNL     1      30.636 -23.463 -15.190  0.00  0.00    +0.003 C 
ENDROOT
BRANCH   3  11
ATOM     11  N   UNL     1      35.669 -22.665 -14.843  0.00  0.00    -0.257 N 
ATOM     12  N   UNL     1      35.616 -25.009 -14.758  0.00  0.00    -0.180 NA
ATOM     13  N   UNL     1      37.150 -23.756 -13.386  0.00  0.00    -0.203 NA
ATOM     14  C   UNL     1      36.167 -23.863 -14.306  0.00  0.00    +0.091 C 
ATOM     15  C   UNL     1      36.117 -26.140 -14.221  0.00  0.00    +0.108 C 
ATOM     16  C   UNL     1      37.605 -24.926 -12.891  0.00  0.00    +0.165 C 
ATOM     17  C   UNL     1      37.122 -26.160 -13.275  0.00  0.00    +0.022 C 
ATOM     18  H   UNL     1      36.102 -21.858 -14.482  0.00  0.00    +0.164 HD
ENDBRANCH   3  11
BRANCH   9  21
ATOM     19  N   UNL     1      29.843 -24.714 -12.726  0.00  0.00    -0.343 N 
ATOM     20  N   UNL     1      32.093 -24.771 -12.097  0.00  0.00    -0.285 NA
ATOM     21  C   UNL     1      31.181 -24.426 -12.988  0.00  0.00    +0.117 C 
ATOM     22  H   UNL     1      29.592 -25.168 -11.890  0.00  0.00    +0.144 HD
ATOM     23  H   UNL     1      29.148 -24.462 -13.377  0.00  0.00    +0.144 HD
ATOM     24  H   UNL     1      31.822 -25.225 -11.266  0.00  0.00    +0.188 HD
ENDBRANCH   9  21
BRANCH   4  27
ATOM     25  O   UNL     1      35.497 -21.198 -19.798  0.00  0.00    -0.270 OA
ATOM     26  N   UNL     1      33.693 -19.713 -19.584  0.00  0.00    -0.280 N 
ATOM     27  C   UNL     1      34.502 -20.785 -19.182  0.00  0.00    +0.250 C 
ATOM     28  H   UNL     1      32.938 -19.501 -18.991  0.00  0.00    +0.155 HD
BRANCH  26  29
ATOM     29  C   UNL     1      33.822 -18.895 -20.734  0.00  0.00    +0.051 C 
ATOM     30  C   UNL     1      34.072 -17.295 -22.979  0.00  0.00    -0.044 C 
ATOM     31  C   UNL     1      33.343 -19.355 -21.948  0.00  0.00    +0.014 C 
ATOM     32  C   UNL     1      34.424 -17.653 -20.616  0.00  0.00    +0.014 C 
ATOM     33  C   UNL     1      33.469 -18.549 -23.080  0.00  0.00    -0.005 C 
ATOM     34  C   UNL     1      34.550 -16.848 -21.747  0.00  0.00    -0.005 C 
BRANCH  30  35
ATOM     35  C   UNL     1      34.207 -16.434 -24.189  0.00  0.00    -0.059 C 
BRANCH  35  36
ATOM     36  N   UNL     1      33.172 -15.436 -24.269  0.00  0.00    +0.383 N 
ATOM     37  H   UNL     1      33.140 -14.907 -23.397  0.00  0.00    -0.089 HD
ATOM     38  H   UNL     1      32.272 -15.890 -24.424  0.00  0.00    -0.089 HD
ATOM     39  H   UNL     1      33.370 -14.802 -25.044  0.00  0.00    -0.089 HD
ENDBRANCH  35  36
ENDBRANCH  30  35
ENDBRANCH  26  29
ENDBRANCH   4  27
TORSDOF 6
ENDMDL
MODEL 2
REMARK VINA RESULT:     -12.5      1.703      4.487
REMARK  Name = 448605
REMARK  6 active torsions:
REMARK  status: ('A' for Active; 'I' for Inactive)
REMARK    1  A    between atoms: C_3  and  N_11
REMARK    2  A    between atoms: C_4  and  C_27
REMARK    3  A    between atoms: C_9  and  C_21
REMARK    4  A    between atoms: N_26  and  C_29
REMARK    5  A    between atoms: C_30  and  C_35
REMARK    6  A    between atoms: C_35  and  N_36
REMARK                            x       y       z     vdW  Elec       q    Type
REMARK                         _______ _______ _______ _____ _____    ______ ____
ROOT
ATOM      1  C   UNL     1      34.124 -22.844 -15.785  0.00  0.00    +0.014 C 
ATOM      2  C   UNL     1      35.097 -22.045 -16.434  0.00  0.00    +0.001 C 
ATOM      3  C   UNL     1      32.817 -22.883 -16.294  0.00  0.00    +0.057 C 
ATOM      4  C   UNL     1      33.426 -21.361 -18.066  0.00  0.00    +0.055 C 
ATOM      5  C   UNL     1      34.731 -21.310 -17.575  0.00  0.00    +0.005 C 
ATOM      6  C   UNL     1      32.470 -22.147 -17.427  0.00  0.00    +0.020 C 
ATOM      7  C   UNL     1      34.490 -23.579 -14.646  0.00  0.00    +0.004 C 
ATOM      8  C   UNL     1      36.404 -22.006 -15.925  0.00  0.00    +0.000 C 
ATOM      9  C   UNL     1      35.795 -23.528 -14.153  0.00  0.00    +0.031 C 
ATOM     10  C   UNL     1      36.750 -22.743 -14.793  0.00  0.00    +0.003 C 
ENDROOT
BRANCH   3  11
ATOM     11  N   UNL     1      31.805 -23.666 -15.683  0.00  0.00    -0.257 N 
ATOM     12  N   UNL     1      29.925 -22.287 -15.940  0.00  0.00    -0.180 NA
ATOM     13  N   UNL     1      29.749 -24.427 -14.846  0.00  0.00    -0.203 NA
ATOM     14  C   UNL     1      30.433 -23.450 -15.481  0.00  0.00    +0.091 C 
ATOM     15  C   UNL     1      28.604 -22.113 -15.730  0.00  0.00    +0.108 C 
ATOM     16  C   UNL     1      28.433 -24.187 -14.669  0.00  0.00    +0.165 C 
ATOM     17  C   UNL     1      27.800 -23.037 -15.094  0.00  0.00    +0.022 C 
ATOM     18  H   UNL     1      32.128 -24.526 -15.331  0.00  0.00    +0.164 HD
ENDBRANCH   3  11
BRANCH   9  21
ATOM     19  N   UNL     1      35.389 -25.377 -12.547  0.00  0.00    -0.343 N 
ATOM     20  N   UNL     1      37.233 -23.967 -12.279  0.00  0.00    -0.285 NA
ATOM     21  C   UNL     1      36.158 -24.295 -12.972  0.00  0.00    +0.117 C 
ATOM     22  H   UNL     1      35.652 -25.882 -11.745  0.00  0.00    +0.144 HD
ATOM     23  H   UNL     1      34.581 -25.635 -13.048  0.00  0.00    +0.144 HD
ATOM     24  H   UNL     1      37.480 -24.486 -11.479  0.00  0.00    +0.188 HD
ENDBRANCH   9  21
BRANCH   4  27
ATOM     25  O   UNL     1      31.910 -20.686 -19.696  0.00  0.00    -0.270 OA
ATOM     26  N   UNL     1      34.072 -19.778 -19.779  0.00  0.00    -0.280 N 
ATOM     27  C   UNL     1      33.064 -20.594 -19.248  0.00  0.00    +0.250 C 
ATOM     28  H   UNL     1      34.939 -19.812 -19.314  0.00  0.00    +0.155 HD
BRANCH  26  29
ATOM     29  C   UNL     1      34.007 -18.910 -20.897  0.00  0.00    +0.051 C 
ATOM     30  C   UNL     1      33.878 -17.214 -23.081  0.00  0.00    -0.044 C 
ATOM     31  C   UNL     1      33.627 -19.419 -22.126  0.00  0.00    +0.014 C 
ATOM     32  C   UNL     1      34.324 -17.572 -20.734  0.00  0.00    +0.014 C 
ATOM     33  C   UNL     1      33.563 -18.565 -23.227  0.00  0.00    -0.005 C 
ATOM     34  C   UNL     1      34.258 -16.718 -21.834  0.00  0.00    -0.005 C 
BRANCH  30  35
ATOM     35  C   UNL     1      33.808 -16.301 -24.257  0.00  0.00    -0.059 C 
BRANCH  35  36
ATOM     36  N   UNL     1      32.537 -15.631 -24.357  0.00  0.00    +0.383 N 
ATOM     37  H   UNL     1      32.656 -14.744 -24.846  0.00  0.00    -0.089 HD
ATOM     38  H   UNL     1      32.170 -15.456 -23.420  0.00  0.00    -0.089 HD
ATOM     39  H   UNL     1      31.882 -16.219 -24.873  0.00  0.00    -0.089 HD
ENDBRANCH  35  36
ENDBRANCH  30  35
ENDBRANCH  26  29
ENDBRANCH   4  27
TORSDOF 6
ENDMDL
MODEL 3
REMARK VINA RESULT:     -11.0      1.892      4.665
REMARK  Name = 448605
REMARK  6 active torsions:
REMARK  status: ('A' for Active; 'I' for Inactive)
REMARK    1  A    between atoms: C_3  and  N_11
REMARK    2  A    between atoms: C_4  and  C_27
REMARK    3  A    between atoms: C_9  and  C_21
REMARK    4  A    between atoms: N_26  and  C_29
REMARK    5  A    between atoms: C_30  and  C_35
REMARK    6  A    between atoms: C_35  and  N_36
REMARK                            x       y       z     vdW  Elec       q    Type
REMARK                         _______ _______ _______ _____ _____    ______ ____
ROOT
ATOM      1  C   UNL     1      34.109 -23.504 -14.516  0.00  0.00    +0.014 C 
ATOM      2  C   UNL     1      35.159 -22.869 -15.223  0.00  0.00    +0.001 C 
ATOM      3  C   UNL     1      32.806 -23.458 -15.034  0.00  0.00    +0.057 C 
ATOM      4  C   UNL     1      33.571 -22.170 -16.928  0.00  0.00    +0.055 C 
ATOM      5  C   UNL     1      34.873 -22.207 -16.428  0.00  0.00    +0.005 C 
ATOM      6  C   UNL     1      32.539 -22.795 -16.233  0.00  0.00    +0.020 C 
ATOM      7  C   UNL     1      34.395 -24.167 -13.311  0.00  0.00    +0.004 C 
ATOM      8  C   UNL     1      36.463 -22.916 -14.704  0.00  0.00    +0.000 C 
ATOM      9  C   UNL     1      35.698 -24.203 -12.810  0.00  0.00    +0.031 C 
ATOM     10  C   UNL     1      36.729 -23.579 -13.506  0.00  0.00    +0.003 C 
ENDROOT
BRANCH   3  11
ATOM     11  N   UNL     1      31.719 -24.076 -14.368  0.00  0.00    -0.257 N 
ATOM     12  N   UNL     1      29.885 -23.154 -15.504  0.00  0.00    -0.180 NA
ATOM     13  N   UNL     1      29.564 -24.727 -13.707  0.00  0.00    -0.203 NA
ATOM     14  C   UNL     1      30.328 -23.982 -14.534  0.00  0.00    +0.091 C 
ATOM     15  C   UNL     1      28.544 -23.087 -15.636  0.00  0.00    +0.108 C 
ATOM     16  C   UNL     1      28.232 -24.611 -13.893  0.00  0.00    +0.165 C 
ATOM     17  C   UNL     1      27.660 -23.800 -14.851  0.00  0.00    +0.022 C 
ATOM     18  H   UNL     1      31.993 -24.691 -13.649  0.00  0.00    +0.164 HD
ENDBRANCH   3  11
BRANCH   9  21
ATOM     19  N   UNL     1      36.155 -26.276 -11.522  0.00  0.00    -0.343 N 
ATOM     20  N   UNL     1      36.064 -24.210 -10.436  0.00  0.00    -0.285 NA
ATOM     21  C   UNL     1      35.978 -24.894 -11.562  0.00  0.00    +0.117 C 
ATOM     22  H   UNL     1      36.344 -26.724 -10.666  0.00  0.00    +0.144 HD
ATOM     23  H   UNL     1      36.092 -26.805 -12.351  0.00  0.00    +0.144 HD
ATOM     24  H   UNL     1      36.254 -24.676  -9.589  0.00  0.00    +0.188 HD
ENDBRANCH   9  21
BRANCH   4  27
ATOM     25  O   UNL     1      32.183 -21.631 -18.715  0.00  0.00    -0.270 OA
ATOM     26  N   UNL     1      34.320 -20.663 -18.667  0.00  0.00    -0.280 N 
ATOM     27  C   UNL     1      33.291 -21.480 -18.177  0.00  0.00    +0.250 C 
ATOM     28  H   UNL     1      35.144 -20.645 -18.130  0.00  0.00    +0.155 HD
BRANCH  26  29
ATOM     29  C   UNL     1      34.328 -19.859 -19.834  0.00  0.00    +0.051 C 
ATOM     30  C   UNL     1      34.342 -18.290 -22.114  0.00  0.00    -0.044 C 
ATOM     31  C   UNL     1      35.520 -19.304 -20.264  0.00  0.00    +0.014 C 
ATOM     32  C   UNL     1      33.142 -19.648 -20.517  0.00  0.00    +0.014 C 
ATOM     33  C   UNL     1      35.528 -18.512 -21.413  0.00  0.00    -0.005 C 
ATOM     34  C   UNL     1      33.150 -18.857 -21.666  0.00  0.00    -0.005 C 
BRANCH  30  35
ATOM     35  C   UNL     1      34.351 -17.444 -23.343  0.00  0.00    -0.059 C 
BRANCH  35  36
ATOM     36  N   UNL     1      33.387 -17.885 -24.318  0.00  0.00    +0.383 N 
ATOM     37  H   UNL     1      33.434 -18.900 -24.409  0.00  0.00    -0.089 HD
ATOM     38  H   UNL     1      33.593 -17.453 -25.219  0.00  0.00    -0.089 HD
ATOM     39  H   UNL     1      32.451 -17.613 -24.017  0.00  0.00    -0.089 HD
ENDBRANCH  35  36
ENDBRANCH  30  35
ENDBRANCH  26  29
ENDBRANCH   4  27
TORSDOF 6
ENDMDL
MODEL 4
REMARK VINA RESULT:     -10.6      9.458     17.117
REMARK  Name = 448605
REMARK  6 active torsions:
REMARK  status: ('A' for Active; 'I' for Inactive)
REMARK    1  A    between atoms: C_3  and  N_11
REMARK    2  A    between atoms: C_4  and  C_27
REMARK    3  A    between atoms: C_9  and  C_21
REMARK    4  A    between atoms: N_26  and  C_29
REMARK    5  A    between atoms: C_30  and  C_35
REMARK    6  A    between atoms: C_35  and  N_36
REMARK                            x       y       z     vdW  Elec       q    Type
REMARK                         _______ _______ _______ _____ _____    ______ ____
ROOT
ATOM      1  C   UNL     1      32.198  -6.397 -23.040  0.00  0.00    +0.014 C 
ATOM      2  C   UNL     1      31.485  -7.498 -22.508  0.00  0.00    +0.001 C 
ATOM      3  C   UNL     1      33.315  -6.631 -23.858  0.00  0.00    +0.057 C 
ATOM      4  C   UNL     1      33.025  -9.016 -23.625  0.00  0.00    +0.055 C 
ATOM      5  C   UNL     1      31.912  -8.803 -22.811  0.00  0.00    +0.005 C 
ATOM      6  C   UNL     1      33.725  -7.933 -24.148  0.00  0.00    +0.020 C 
ATOM      7  C   UNL     1      31.772  -5.093 -22.738  0.00  0.00    +0.004 C 
ATOM      8  C   UNL     1      30.369  -7.264 -21.690  0.00  0.00    +0.000 C 
ATOM      9  C   UNL     1      30.659  -4.878 -21.923  0.00  0.00    +0.031 C 
ATOM     10  C   UNL     1      29.959  -5.962 -21.401  0.00  0.00    +0.003 C 
ENDROOT
BRANCH   3  11
ATOM     11  N   UNL     1      34.063  -5.565 -24.416  0.00  0.00    -0.257 N 
ATOM     12  N   UNL     1      33.357  -5.616 -26.653  0.00  0.00    -0.180 NA
ATOM     13  N   UNL     1      34.973  -3.994 -25.902  0.00  0.00    -0.203 NA
ATOM     14  C   UNL     1      34.134  -5.035 -25.714  0.00  0.00    +0.091 C 
ATOM     15  C   UNL     1      33.450  -5.082 -27.888  0.00  0.00    +0.108 C 
ATOM     16  C   UNL     1      35.017  -3.509 -27.161  0.00  0.00    +0.165 C 
ATOM     17  C   UNL     1      34.270  -4.018 -28.204  0.00  0.00    +0.022 C 
ATOM     18  H   UNL     1      34.647  -5.109 -23.768  0.00  0.00    +0.164 HD
ENDBRANCH   3  11
BRANCH   9  21
ATOM     19  N   UNL     1      30.920  -2.417 -22.113  0.00  0.00    -0.343 N 
ATOM     20  N   UNL     1      29.168  -3.323 -20.860  0.00  0.00    -0.285 NA
ATOM     21  C   UNL     1      30.230  -3.522 -21.620  0.00  0.00    +0.117 C 
ATOM     22  H   UNL     1      30.613  -1.508 -21.895  0.00  0.00    +0.144 HD
ATOM     23  H   UNL     1      31.717  -2.545 -22.679  0.00  0.00    +0.144 HD
ATOM     24  H   UNL     1      28.876  -2.405 -20.654  0.00  0.00    +0.188 HD
ENDBRANCH   9  21
BRANCH   4  27
ATOM     25  O   UNL     1      34.334 -10.550 -24.785  0.00  0.00    -0.270 OA
ATOM     26  N   UNL     1      32.831 -11.389 -23.190  0.00  0.00    -0.280 N 
ATOM     27  C   UNL     1      33.453 -10.373 -23.928  0.00  0.00    +0.250 C 
ATOM     28  H   UNL     1      32.148 -11.094 -22.546  0.00  0.00    +0.155 HD
BRANCH  26  29
ATOM     29  C   UNL     1      33.057 -12.787 -23.249  0.00  0.00    +0.051 C 
ATOM     30  C   UNL     1      33.500 -15.517 -23.366  0.00  0.00    -0.044 C 
ATOM     31  C   UNL     1      32.692 -13.483 -24.389  0.00  0.00    +0.014 C 
ATOM     32  C   UNL     1      33.638 -13.425 -22.166  0.00  0.00    +0.014 C 
ATOM     33  C   UNL     1      32.914 -14.859 -24.447  0.00  0.00    -0.005 C 
ATOM     34  C   UNL     1      33.861 -14.800 -22.226  0.00  0.00    -0.005 C 
BRANCH  30  35
ATOM     35  C   UNL     1      33.738 -16.988 -23.429  0.00  0.00    -0.059 C 
BRANCH  35  36
ATOM     36  N   UNL     1      34.894 -17.389 -22.669  0.00  0.00    +0.383 N 
ATOM     37  H   UNL     1      34.617 -18.063 -21.956  0.00  0.00    -0.089 HD
ATOM     38  H   UNL     1      35.307 -16.571 -22.221  0.00  0.00    -0.089 HD
ATOM     39  H   UNL     1      35.579 -17.816 -23.293  0.00  0.00    -0.089 HD
ENDBRANCH  35  36
ENDBRANCH  30  35
ENDBRANCH  26  29
ENDBRANCH   4  27
TORSDOF 6
ENDMDL
MODEL 5
REMARK VINA RESULT:     -10.2      9.298     17.145
REMARK  Name = 448605
REMARK  6 active torsions:
REMARK  status: ('A' for Active; 'I' for Inactive)
REMARK    1  A    between atoms: C_3  and  N_11
REMARK    2  A    between atoms: C_4  and  C_27
REMARK    3  A    between atoms: C_9  and  C_21
REMARK    4  A    between atoms: N_26  and  C_29
REMARK    5  A    between atoms: C_30  and  C_35
REMARK    6  A    between atoms: C_35  and  N_36
REMARK                            x       y       z     vdW  Elec       q    Type
REMARK                         _______ _______ _______ _____ _____    ______ ____
ROOT
ATOM      1  C   UNL     1      31.442  -6.696 -23.209  0.00  0.00    +0.014 C 
ATOM      2  C   UNL     1      31.992  -7.399 -22.110  0.00  0.00    +0.001 C 
ATOM      3  C   UNL     1      31.472  -7.282 -24.484  0.00  0.00    +0.057 C 
ATOM      4  C   UNL     1      32.579  -9.235 -23.596  0.00  0.00    +0.055 C 
ATOM      5  C   UNL     1      32.557  -8.669 -22.321  0.00  0.00    +0.005 C 
ATOM      6  C   UNL     1      32.038  -8.543 -24.676  0.00  0.00    +0.020 C 
ATOM      7  C   UNL     1      30.877  -5.428 -22.998  0.00  0.00    +0.004 C 
ATOM      8  C   UNL     1      31.962  -6.814 -20.835  0.00  0.00    +0.000 C 
ATOM      9  C   UNL     1      30.854  -4.861 -21.723  0.00  0.00    +0.031 C 
ATOM     10  C   UNL     1      31.395  -5.553 -20.643  0.00  0.00    +0.003 C 
ENDROOT
BRANCH   3  11
ATOM     11  N   UNL     1      30.936  -6.622 -25.617  0.00  0.00    -0.257 N 
ATOM     12  N   UNL     1      32.880  -5.834 -26.667  0.00  0.00    -0.180 NA
ATOM     13  N   UNL     1      30.705  -5.407 -27.612  0.00  0.00    -0.203 NA
ATOM     14  C   UNL     1      31.533  -5.924 -26.679  0.00  0.00    +0.091 C 
ATOM     15  C   UNL     1      33.421  -5.157 -27.701  0.00  0.00    +0.108 C 
ATOM     16  C   UNL     1      31.312  -4.742 -28.617  0.00  0.00    +0.165 C 
ATOM     17  C   UNL     1      32.679  -4.584 -28.715  0.00  0.00    +0.022 C 
ATOM     18  H   UNL     1      29.953  -6.660 -25.670  0.00  0.00    +0.164 HD
ENDBRANCH   3  11
BRANCH   9  21
ATOM     19  N   UNL     1      30.820  -2.407 -22.100  0.00  0.00    -0.343 N 
ATOM     20  N   UNL     1      29.184  -3.418 -20.773  0.00  0.00    -0.285 NA
ATOM     21  C   UNL     1      30.265  -3.547 -21.521  0.00  0.00    +0.117 C 
ATOM     22  H   UNL     1      30.405  -1.527 -21.950  0.00  0.00    +0.144 HD
ATOM     23  H   UNL     1      31.628  -2.481 -22.659  0.00  0.00    +0.144 HD
ATOM     24  H   UNL     1      28.784  -2.529 -20.635  0.00  0.00    +0.188 HD
ENDBRANCH   9  21
BRANCH   4  27
ATOM     25  O   UNL     1      34.136 -10.666 -24.566  0.00  0.00    -0.270 OA
ATOM     26  N   UNL     1      32.588 -11.596 -23.067  0.00  0.00    -0.280 N 
ATOM     27  C   UNL     1      33.168 -10.549 -23.797  0.00  0.00    +0.250 C 
ATOM     28  H   UNL     1      31.824 -11.350 -22.498  0.00  0.00    +0.155 HD
BRANCH  26  29
ATOM     29  C   UNL     1      32.960 -12.964 -23.040  0.00  0.00    +0.051 C 
ATOM     30  C   UNL     1      33.684 -15.635 -22.988  0.00  0.00    -0.044 C 
ATOM     31  C   UNL     1      33.559 -13.479 -21.904  0.00  0.00    +0.014 C 
ATOM     32  C   UNL     1      32.714 -13.753 -24.151  0.00  0.00    +0.014 C 
ATOM     33  C   UNL     1      33.925 -14.825 -21.878  0.00  0.00    -0.005 C 
ATOM     34  C   UNL     1      33.079 -15.098 -24.124  0.00  0.00    -0.005 C 
BRANCH  30  35
ATOM     35  C   UNL     1      34.074 -17.074 -22.959  0.00  0.00    -0.059 C 
BRANCH  35  36
ATOM     36  N   UNL     1      33.410 -17.842 -23.981  0.00  0.00    +0.383 N 
ATOM     37  H   UNL     1      33.086 -17.219 -24.720  0.00  0.00    -0.089 HD
ATOM     38  H   UNL     1      32.612 -18.331 -23.574  0.00  0.00    -0.089 HD
ATOM     39  H   UNL     1      34.061 -18.523 -24.371  0.00  0.00    -0.089 HD
ENDBRANCH  35  36
ENDBRANCH  30  35
ENDBRANCH  26  29
ENDBRANCH   4  27
TORSDOF 6
ENDMDL
MODEL 6
REMARK VINA RESULT:     -10.0      8.263     15.529
REMARK  Name = 448605
REMARK  6 active torsions:
REMARK  status: ('A' for Active; 'I' for Inactive)
REMARK    1  A    between atoms: C_3  and  N_11
REMARK    2  A    between atoms: C_4  and  C_27
REMARK    3  A    between atoms: C_9  and  C_21
REMARK    4  A    between atoms: N_26  and  C_29
REMARK    5  A    between atoms: C_30  and  C_35
REMARK    6  A    between atoms: C_35  and  N_36
REMARK                            x       y       z     vdW  Elec       q    Type
REMARK                         _______ _______ _______ _____ _____    ______ ____
ROOT
ATOM      1  C   UNL     1      32.263  -8.250 -22.115  0.00  0.00    +0.014 C 
ATOM      2  C   UNL     1      31.748  -9.301 -21.318  0.00  0.00    +0.001 C 
ATOM      3  C   UNL     1      32.985  -8.560 -23.277  0.00  0.00    +0.057 C 
ATOM      4  C   UNL     1      32.694 -10.921 -22.868  0.00  0.00    +0.055 C 
ATOM      5  C   UNL     1      31.972 -10.632 -21.709  0.00  0.00    +0.005 C 
ATOM      6  C   UNL     1      33.199  -9.888 -23.651  0.00  0.00    +0.020 C 
ATOM      7  C   UNL     1      32.038  -6.920 -21.725  0.00  0.00    +0.004 C 
ATOM      8  C   UNL     1      31.025  -8.991 -20.155  0.00  0.00    +0.000 C 
ATOM      9  C   UNL     1      31.317  -6.630 -20.565  0.00  0.00    +0.031 C 
ATOM     10  C   UNL     1      30.811  -7.664 -19.782  0.00  0.00    +0.003 C 
ENDROOT
BRANCH   3  11
ATOM     11  N   UNL     1      33.522  -7.548 -24.111  0.00  0.00    -0.257 N 
ATOM     12  N   UNL     1      31.688  -7.051 -25.487  0.00  0.00    -0.180 NA
ATOM     13  N   UNL     1      33.785  -5.895 -25.756  0.00  0.00    -0.203 NA
ATOM     14  C   UNL     1      32.974  -6.798 -25.164  0.00  0.00    +0.091 C 
ATOM     15  C   UNL     1      31.194  -6.314 -26.503  0.00  0.00    +0.108 C 
ATOM     16  C   UNL     1      33.227  -5.193 -26.764  0.00  0.00    +0.165 C 
ATOM     17  C   UNL     1      31.924  -5.361 -27.185  0.00  0.00    +0.022 C 
ATOM     18  H   UNL     1      34.461  -7.328 -23.913  0.00  0.00    +0.164 HD
ENDBRANCH   3  11
BRANCH   9  21
ATOM     19  N   UNL     1      31.487  -4.774 -18.925  0.00  0.00    -0.343 N 
ATOM     20  N   UNL     1      30.500  -4.415 -21.012  0.00  0.00    -0.285 NA
ATOM     21  C   UNL     1      31.093  -5.247 -20.175  0.00  0.00    +0.117 C 
ATOM     22  H   UNL     1      31.325  -3.834 -18.681  0.00  0.00    +0.144 HD
ATOM     23  H   UNL     1      31.928  -5.380 -18.285  0.00  0.00    +0.144 HD
ATOM     24  H   UNL     1      30.348  -3.478 -20.749  0.00  0.00    +0.188 HD
ENDBRANCH   9  21
BRANCH   4  27
ATOM     25  O   UNL     1      32.762 -12.629 -24.446  0.00  0.00    -0.270 OA
ATOM     26  N   UNL     1      33.320 -13.171 -22.233  0.00  0.00    -0.280 N 
ATOM     27  C   UNL     1      32.917 -12.305 -23.258  0.00  0.00    +0.250 C 
ATOM     28  H   UNL     1      33.398 -12.769 -21.338  0.00  0.00    +0.155 HD
BRANCH  26  29
ATOM     29  C   UNL     1      33.630 -14.552 -22.316  0.00  0.00    +0.051 C 
ATOM     30  C   UNL     1      34.237 -17.248 -22.479  0.00  0.00    -0.044 C 
ATOM     31  C   UNL     1      33.664 -15.163 -23.557  0.00  0.00    +0.014 C 
ATOM     32  C   UNL     1      33.892 -15.257 -21.154  0.00  0.00    +0.014 C 
ATOM     33  C   UNL     1      33.970 -16.522 -23.639  0.00  0.00    -0.005 C 
ATOM     34  C   UNL     1      34.198 -16.615 -21.236  0.00  0.00    -0.005 C 
BRANCH  30  35
ATOM     35  C   UNL     1      34.564 -18.700 -22.567  0.00  0.00    -0.059 C 
BRANCH  35  36
ATOM     36  N   UNL     1      33.837 -19.362 -23.619  0.00  0.00    +0.383 N 
ATOM     37  H   UNL     1      33.238 -20.084 -23.218  0.00  0.00    -0.089 HD
ATOM     38  H   UNL     1      34.495 -19.790 -24.271  0.00  0.00    -0.089 HD
ATOM     39  H   UNL     1      33.262 -18.681 -24.116  0.00  0.00    -0.089 HD
ENDBRANCH  35  36
ENDBRANCH  30  35
ENDBRANCH  26  29
ENDBRANCH   4  27
TORSDOF 6
ENDMDL
MODEL 7
REMARK VINA RESULT:      -9.9      7.670     15.383
REMARK  Name = 448605
REMARK  6 active torsions:
REMARK  status: ('A' for Active; 'I' for Inactive)
REMARK    1  A    between atoms: C_3  and  N_11
REMARK    2  A    between atoms: C_4  and  C_27
REMARK    3  A    between atoms: C_9  and  C_21
REMARK    4  A    between atoms: N_26  and  C_29
REMARK    5  A    between atoms: C_30  and  C_35
REMARK    6  A    between atoms: C_35  and  N_36
REMARK                            x       y       z     vdW  Elec       q    Type
REMARK                         _______ _______ _______ _____ _____    ______ ____
ROOT
ATOM      1  C   UNL     1      32.863  -8.666 -23.606  0.00  0.00    +0.014 C 
ATOM      2  C   UNL     1      33.728  -9.656 -24.131  0.00  0.00    +0.001 C 
ATOM      3  C   UNL     1      31.925  -9.023 -22.624  0.00  0.00    +0.057 C 
ATOM      4  C   UNL     1      32.691 -11.313 -22.682  0.00  0.00    +0.055 C 
ATOM      5  C   UNL     1      33.629 -10.975 -23.658  0.00  0.00    +0.005 C 
ATOM      6  C   UNL     1      31.841 -10.339 -22.166  0.00  0.00    +0.020 C 
ATOM      7  C   UNL     1      32.962  -7.347 -24.079  0.00  0.00    +0.004 C 
ATOM      8  C   UNL     1      34.666  -9.298 -25.113  0.00  0.00    +0.000 C 
ATOM      9  C   UNL     1      33.900  -7.009 -25.055  0.00  0.00    +0.031 C 
ATOM     10  C   UNL     1      34.751  -7.983 -25.571  0.00  0.00    +0.003 C 
ENDROOT
BRANCH   3  11
ATOM     11  N   UNL     1      31.036  -8.073 -22.065  0.00  0.00    -0.257 N 
ATOM     12  N   UNL     1      32.314  -7.221 -20.291  0.00  0.00    -0.180 NA
ATOM     13  N   UNL     1      30.085  -6.408 -20.712  0.00  0.00    -0.203 NA
ATOM     14  C   UNL     1      31.150  -7.195 -20.975  0.00  0.00    +0.091 C 
ATOM     15  C   UNL     1      32.389  -6.366 -19.251  0.00  0.00    +0.108 C 
ATOM     16  C   UNL     1      30.228  -5.578 -19.658  0.00  0.00    +0.165 C 
ATOM     17  C   UNL     1      31.368  -5.513 -18.884  0.00  0.00    +0.022 C 
ATOM     18  H   UNL     1      30.171  -8.017 -22.531  0.00  0.00    +0.164 HD
ENDBRANCH   3  11
BRANCH   9  21
ATOM     19  N   UNL     1      34.564  -5.339 -26.768  0.00  0.00    -0.343 N 
ATOM     20  N   UNL     1      33.527  -4.650 -24.791  0.00  0.00    -0.285 NA
ATOM     21  C   UNL     1      33.991  -5.639 -25.534  0.00  0.00    +0.117 C 
ATOM     22  H   UNL     1      34.616  -4.405 -27.073  0.00  0.00    +0.144 HD
ATOM     23  H   UNL     1      34.919  -6.062 -27.336  0.00  0.00    +0.144 HD
ATOM     24  H   UNL     1      33.588  -3.722 -25.113  0.00  0.00    +0.188 HD
ENDBRANCH   9  21
BRANCH   4  27
ATOM     25  O   UNL     1      31.612 -13.026 -21.537  0.00  0.00    -0.270 OA
ATOM     26  N   UNL     1      33.661 -13.527 -22.565  0.00  0.00    -0.280 N 
ATOM     27  C   UNL     1      32.601 -12.683 -22.203  0.00  0.00    +0.250 C 
ATOM     28  H   UNL     1      34.378 -13.111 -23.095  0.00  0.00    +0.155 HD
BRANCH  26  29
ATOM     29  C   UNL     1      33.834 -14.901 -22.267  0.00  0.00    +0.051 C 
ATOM     30  C   UNL     1      34.174 -17.586 -21.685  0.00  0.00    -0.044 C 
ATOM     31  C   UNL     1      33.877 -15.817 -23.304  0.00  0.00    +0.014 C 
ATOM     32  C   UNL     1      33.956 -15.297 -20.946  0.00  0.00    +0.014 C 
ATOM     33  C   UNL     1      34.048 -17.170 -23.011  0.00  0.00    -0.005 C 
ATOM     34  C   UNL     1      34.128 -16.649 -20.653  0.00  0.00    -0.005 C 
BRANCH  30  35
ATOM     35  C   UNL     1      34.357 -19.033 -21.373  0.00  0.00    -0.059 C 
BRANCH  35  36
ATOM     36  N   UNL     1      34.807 -19.249 -20.022  0.00  0.00    +0.383 N 
ATOM     37  H   UNL     1      34.192 -18.756 -19.374  0.00  0.00    -0.089 HD
ATOM     38  H   UNL     1      35.760 -18.897 -19.920  0.00  0.00    -0.089 HD
ATOM     39  H   UNL     1      34.790 -20.247 -19.813  0.00  0.00    -0.089 HD
ENDBRANCH  35  36
ENDBRANCH  30  35
ENDBRANCH  26  29
ENDBRANCH   4  27
TORSDOF 6
ENDMDL
