MODEL 1
REMARK VINA RESULT:     -12.2      0.000      0.000
REMARK  Name = 10267580
REMARK  2 active torsions:
REMARK  status: ('A' for Active; 'I' for Inactive)
REMARK    1  A    between atoms: N_1  and  C_21
REMARK    2  A    between atoms: C_7  and  C_14
REMARK                            x       y       z     vdW  Elec       q    Type
REMARK                         _______ _______ _______ _____ _____    ______ ____
ROOT
ATOM      1  N   UNL     1      31.881 -22.150 -17.631  0.00  0.00    -0.290 N 
ATOM      2  N   UNL     1      33.369 -22.943 -15.990  0.00  0.00    -0.327 NA
ATOM      3  N   UNL     1      32.547 -23.766 -13.880  0.00  0.00    -0.342 NA
ATOM      4  C   UNL     1      30.997 -22.967 -15.526  0.00  0.00    +0.143 C 
ATOM      5  C   UNL     1      32.092 -22.703 -16.344  0.00  0.00    +0.184 C 
ATOM      6  C   UNL     1      31.283 -23.515 -14.265  0.00  0.00    +0.133 C 
ATOM      7  C   UNL     1      33.521 -23.467 -14.763  0.00  0.00    +0.165 C 
ATOM      8  C   UNL     1      29.672 -22.707 -15.918  0.00  0.00    -0.011 C 
ATOM      9  C   UNL     1      30.213 -23.791 -13.419  0.00  0.00    +0.029 C 
ATOM     10  C   UNL     1      28.622 -22.993 -15.051  0.00  0.00    -0.004 C 
ATOM     11  C   UNL     1      28.893 -23.536 -13.801  0.00  0.00    +0.002 C 
ATOM     12  H   UNL     1      30.990 -22.298 -18.023  0.00  0.00    +0.154 HD
ENDROOT
BRANCH   7  14
ATOM     13  N   UNL     1      34.993 -24.672 -13.370  0.00  0.00    -0.398 NA
ATOM     14  C   UNL     1      34.871 -23.739 -14.344  0.00  0.00    +0.197 C 
ATOM     15  C   UNL     1      35.948 -23.076 -14.917  0.00  0.00    +0.098 C 
ATOM     16  C   UNL     1      36.250 -24.949 -12.954  0.00  0.00    +0.110 C 
ATOM     17  C   UNL     1      37.225 -23.389 -14.462  0.00  0.00    -0.016 C 
ATOM     18  C   UNL     1      37.386 -24.342 -13.463  0.00  0.00    +0.023 C 
ATOM     19  C   UNL     1      36.386 -25.977 -11.881  0.00  0.00    +0.066 C 
ENDBRANCH   7  14
BRANCH   1  21
ATOM     20  N   UNL     1      34.578 -19.950 -19.991  0.00  0.00    -0.242 NA
ATOM     21  C   UNL     1      32.768 -21.427 -18.407  0.00  0.00    +0.053 C 
ATOM     22  C   UNL     1      32.311 -20.474 -19.332  0.00  0.00    +0.035 C 
ATOM     23  C   UNL     1      34.154 -21.621 -18.296  0.00  0.00    +0.035 C 
ATOM     24  C   UNL     1      33.240 -19.775 -20.086  0.00  0.00    +0.100 C 
ATOM     25  C   UNL     1      35.001 -20.871 -19.097  0.00  0.00    +0.100 C 
ENDBRANCH   1  21
TORSDOF 2
ENDMDL
MODEL 2
REMARK VINA RESULT:     -12.1      1.486      6.783
REMARK  Name = 10267580
REMARK  2 active torsions:
REMARK  status: ('A' for Active; 'I' for Inactive)
REMARK    1  A    between atoms: N_1  and  C_21
REMARK    2  A    between atoms: C_7  and  C_14
REMARK                            x       y       z     vdW  Elec       q    Type
REMARK                         _______ _______ _______ _____ _____    ______ ____
ROOT
ATOM      1  N   UNL     1      34.890 -23.160 -15.676  0.00  0.00    -0.290 N 
ATOM      2  N   UNL     1      32.538 -23.109 -15.658  0.00  0.00    -0.327 NA
ATOM      3  N   UNL     1      31.321 -21.910 -17.356  0.00  0.00    -0.342 NA
ATOM      4  C   UNL     1      33.718 -21.937 -17.411  0.00  0.00    +0.143 C 
ATOM      5  C   UNL     1      33.677 -22.724 -16.264  0.00  0.00    +0.184 C 
ATOM      6  C   UNL     1      32.477 -21.543 -17.937  0.00  0.00    +0.133 C 
ATOM      7  C   UNL     1      31.414 -22.673 -16.249  0.00  0.00    +0.165 C 
ATOM      8  C   UNL     1      34.921 -21.546 -18.026  0.00  0.00    -0.011 C 
ATOM      9  C   UNL     1      32.479 -20.754 -19.085  0.00  0.00    +0.029 C 
ATOM     10  C   UNL     1      34.892 -20.758 -19.172  0.00  0.00    -0.004 C 
ATOM     11  C   UNL     1      33.670 -20.362 -19.701  0.00  0.00    +0.002 C 
ATOM     12  H   UNL     1      35.672 -23.190 -16.274  0.00  0.00    +0.154 HD
ENDROOT
BRANCH   7  14
ATOM     13  N   UNL     1      29.069 -22.459 -16.135  0.00  0.00    -0.398 NA
ATOM     14  C   UNL     1      30.172 -23.063 -15.634  0.00  0.00    +0.197 C 
ATOM     15  C   UNL     1      30.142 -23.992 -14.603  0.00  0.00    +0.098 C 
ATOM     16  C   UNL     1      27.886 -22.803 -15.576  0.00  0.00    +0.110 C 
ATOM     17  C   UNL     1      28.907 -24.320 -14.054  0.00  0.00    -0.016 C 
ATOM     18  C   UNL     1      27.754 -23.719 -14.545  0.00  0.00    +0.023 C 
ATOM     19  C   UNL     1      26.669 -22.140 -16.128  0.00  0.00    +0.066 C 
ENDBRANCH   7  14
BRANCH   1  21
ATOM     20  N   UNL     1      35.575 -24.340 -11.699  0.00  0.00    -0.242 NA
ATOM     21  C   UNL     1      35.116 -23.547 -14.368  0.00  0.00    +0.053 C 
ATOM     22  C   UNL     1      35.389 -24.887 -14.046  0.00  0.00    +0.035 C 
ATOM     23  C   UNL     1      35.079 -22.616 -13.319  0.00  0.00    +0.035 C 
ATOM     24  C   UNL     1      35.607 -25.225 -12.721  0.00  0.00    +0.100 C 
ATOM     25  C   UNL     1      35.311 -23.055 -12.025  0.00  0.00    +0.100 C 
ENDBRANCH   1  21
TORSDOF 2
ENDMDL
MODEL 3
REMARK VINA RESULT:     -12.0      1.342      5.739
REMARK  Name = 10267580
REMARK  2 active torsions:
REMARK  status: ('A' for Active; 'I' for Inactive)
REMARK    1  A    between atoms: N_1  and  C_21
REMARK    2  A    between atoms: C_7  and  C_14
REMARK                            x       y       z     vdW  Elec       q    Type
REMARK                         _______ _______ _______ _____ _____    ______ ____
ROOT
ATOM      1  N   UNL     1      33.966 -24.545 -13.289  0.00  0.00    -0.290 N 
ATOM      2  N   UNL     1      33.722 -23.268 -15.251  0.00  0.00    -0.327 NA
ATOM      3  N   UNL     1      31.534 -22.662 -16.058  0.00  0.00    -0.342 NA
ATOM      4  C   UNL     1      31.740 -23.964 -14.055  0.00  0.00    +0.143 C 
ATOM      5  C   UNL     1      33.119 -23.905 -14.229  0.00  0.00    +0.184 C 
ATOM      6  C   UNL     1      30.965 -23.307 -15.025  0.00  0.00    +0.133 C 
ATOM      7  C   UNL     1      32.881 -22.677 -16.115  0.00  0.00    +0.165 C 
ATOM      8  C   UNL     1      31.134 -24.636 -12.979  0.00  0.00    -0.011 C 
ATOM      9  C   UNL     1      29.580 -23.344 -14.884  0.00  0.00    +0.029 C 
ATOM     10  C   UNL     1      29.747 -24.657 -12.864  0.00  0.00    -0.004 C 
ATOM     11  C   UNL     1      28.970 -24.011 -13.818  0.00  0.00    +0.002 C 
ATOM     12  H   UNL     1      33.581 -24.695 -12.395  0.00  0.00    +0.154 HD
ENDROOT
BRANCH   7  14
ATOM     13  N   UNL     1      32.610 -21.403 -18.080  0.00  0.00    -0.398 NA
ATOM     14  C   UNL     1      33.483 -21.984 -17.224  0.00  0.00    +0.197 C 
ATOM     15  C   UNL     1      34.862 -21.934 -17.376  0.00  0.00    +0.098 C 
ATOM     16  C   UNL     1      33.146 -20.745 -19.134  0.00  0.00    +0.110 C 
ATOM     17  C   UNL     1      35.374 -21.248 -18.472  0.00  0.00    -0.016 C 
ATOM     18  C   UNL     1      34.507 -20.639 -19.371  0.00  0.00    +0.023 C 
ATOM     19  C   UNL     1      32.185 -20.104 -20.078  0.00  0.00    +0.066 C 
ENDBRANCH   7  14
BRANCH   1  21
ATOM     20  N   UNL     1      37.912 -25.889 -13.840  0.00  0.00    -0.242 NA
ATOM     21  C   UNL     1      35.264 -24.986 -13.470  0.00  0.00    +0.053 C 
ATOM     22  C   UNL     1      35.533 -26.179 -14.161  0.00  0.00    +0.035 C 
ATOM     23  C   UNL     1      36.354 -24.258 -12.970  0.00  0.00    +0.035 C 
ATOM     24  C   UNL     1      36.851 -26.579 -14.315  0.00  0.00    +0.100 C 
ATOM     25  C   UNL     1      37.635 -24.743 -13.178  0.00  0.00    +0.100 C 
ENDBRANCH   1  21
TORSDOF 2
ENDMDL
MODEL 4
REMARK VINA RESULT:     -11.3      1.857      6.112
REMARK  Name = 10267580
REMARK  2 active torsions:
REMARK  status: ('A' for Active; 'I' for Inactive)
REMARK    1  A    between atoms: N_1  and  C_21
REMARK    2  A    between atoms: C_7  and  C_14
REMARK                            x       y       z     vdW  Elec       q    Type
REMARK                         _______ _______ _______ _____ _____    ______ ____
ROOT
ATOM      1  N   UNL     1      31.861 -24.252 -13.088  0.00  0.00    -0.290 N 
ATOM      2  N   UNL     1      33.179 -23.183 -14.718  0.00  0.00    -0.327 NA
ATOM      3  N   UNL     1      35.478 -22.625 -14.267  0.00  0.00    -0.342 NA
ATOM      4  C   UNL     1      34.170 -23.714 -12.579  0.00  0.00    +0.143 C 
ATOM      5  C   UNL     1      33.106 -23.699 -13.476  0.00  0.00    +0.184 C 
ATOM      6  C   UNL     1      35.373 -23.149 -13.033  0.00  0.00    +0.133 C 
ATOM      7  C   UNL     1      34.377 -22.670 -15.042  0.00  0.00    +0.165 C 
ATOM      8  C   UNL     1      34.069 -24.259 -11.286  0.00  0.00    -0.011 C 
ATOM      9  C   UNL     1      36.459 -23.146 -12.162  0.00  0.00    +0.029 C 
ATOM     10  C   UNL     1      35.172 -24.242 -10.437  0.00  0.00    -0.004 C 
ATOM     11  C   UNL     1      36.367 -23.685 -10.876  0.00  0.00    +0.002 C 
ATOM     12  H   UNL     1      31.893 -24.918 -12.363  0.00  0.00    +0.154 HD
ENDROOT
BRANCH   7  14
ATOM     13  N   UNL     1      33.339 -22.014 -17.055  0.00  0.00    -0.398 NA
ATOM     14  C   UNL     1      34.499 -22.107 -16.361  0.00  0.00    +0.197 C 
ATOM     15  C   UNL     1      35.730 -21.700 -16.857  0.00  0.00    +0.098 C 
ATOM     16  C   UNL     1      33.421 -21.490 -18.299  0.00  0.00    +0.110 C 
ATOM     17  C   UNL     1      35.773 -21.166 -18.141  0.00  0.00    -0.016 C 
ATOM     18  C   UNL     1      34.601 -21.056 -18.881  0.00  0.00    +0.023 C 
ATOM     19  C   UNL     1      32.145 -21.386 -19.065  0.00  0.00    +0.066 C 
ENDBRANCH   7  14
BRANCH   1  21
ATOM     20  N   UNL     1      28.044 -23.407 -14.637  0.00  0.00    -0.242 NA
ATOM     21  C   UNL     1      30.606 -23.973 -13.597  0.00  0.00    +0.053 C 
ATOM     22  C   UNL     1      29.688 -25.003 -13.864  0.00  0.00    +0.035 C 
ATOM     23  C   UNL     1      30.208 -22.654 -13.864  0.00  0.00    +0.035 C 
ATOM     24  C   UNL     1      28.443 -24.672 -14.375  0.00  0.00    +0.100 C 
ATOM     25  C   UNL     1      28.939 -22.429 -14.375  0.00  0.00    +0.100 C 
ENDBRANCH   1  21
TORSDOF 2
ENDMDL
MODEL 5
REMARK VINA RESULT:     -11.1      1.503      5.102
REMARK  Name = 10267580
REMARK  2 active torsions:
REMARK  status: ('A' for Active; 'I' for Inactive)
REMARK    1  A    between atoms: N_1  and  C_21
REMARK    2  A    between atoms: C_7  and  C_14
REMARK                            x       y       z     vdW  Elec       q    Type
REMARK                         _______ _______ _______ _____ _____    ______ ____
ROOT
ATOM      1  N   UNL     1      30.791 -22.471 -16.004  0.00  0.00    -0.290 N 
ATOM      2  N   UNL     1      32.796 -23.071 -14.929  0.00  0.00    -0.327 NA
ATOM      3  N   UNL     1      34.926 -22.613 -15.956  0.00  0.00    -0.342 NA
ATOM      4  C   UNL     1      32.906 -21.985 -17.085  0.00  0.00    +0.143 C 
ATOM      5  C   UNL     1      32.207 -22.512 -16.003  0.00  0.00    +0.184 C 
ATOM      6  C   UNL     1      34.307 -22.061 -17.014  0.00  0.00    +0.133 C 
ATOM      7  C   UNL     1      34.138 -23.088 -14.971  0.00  0.00    +0.165 C 
ATOM      8  C   UNL     1      32.268 -21.407 -18.197  0.00  0.00    -0.011 C 
ATOM      9  C   UNL     1      35.040 -21.544 -18.079  0.00  0.00    +0.029 C 
ATOM     10  C   UNL     1      33.027 -20.898 -19.247  0.00  0.00    -0.004 C 
ATOM     11  C   UNL     1      34.414 -20.968 -19.187  0.00  0.00    +0.002 C 
ATOM     12  H   UNL     1      30.380 -21.783 -16.576  0.00  0.00    +0.154 HD
ENDROOT
BRANCH   7  14
ATOM     13  N   UNL     1      36.072 -24.102 -14.082  0.00  0.00    -0.398 NA
ATOM     14  C   UNL     1      34.809 -23.677 -13.842  0.00  0.00    +0.197 C 
ATOM     15  C   UNL     1      34.178 -23.787 -12.610  0.00  0.00    +0.098 C 
ATOM     16  C   UNL     1      36.728 -24.662 -13.040  0.00  0.00    +0.110 C 
ATOM     17  C   UNL     1      34.886 -24.369 -11.563  0.00  0.00    -0.016 C 
ATOM     18  C   UNL     1      36.185 -24.816 -11.774  0.00  0.00    +0.023 C 
ATOM     19  C   UNL     1      38.120 -25.131 -13.302  0.00  0.00    +0.066 C 
ENDBRANCH   7  14
BRANCH   1  21
ATOM     20  N   UNL     1      28.120 -24.924 -13.875  0.00  0.00    -0.242 NA
ATOM     21  C   UNL     1      29.912 -23.277 -15.304  0.00  0.00    +0.053 C 
ATOM     22  C   UNL     1      30.370 -24.146 -14.299  0.00  0.00    +0.035 C 
ATOM     23  C   UNL     1      28.535 -23.255 -15.574  0.00  0.00    +0.035 C 
ATOM     24  C   UNL     1      29.450 -24.934 -13.627  0.00  0.00    +0.100 C 
ATOM     25  C   UNL     1      27.696 -24.083 -14.844  0.00  0.00    +0.100 C 
ENDBRANCH   1  21
TORSDOF 2
ENDMDL
MODEL 6
REMARK VINA RESULT:     -11.0      1.535      6.382
REMARK  Name = 10267580
REMARK  2 active torsions:
REMARK  status: ('A' for Active; 'I' for Inactive)
REMARK    1  A    between atoms: N_1  and  C_21
REMARK    2  A    between atoms: C_7  and  C_14
REMARK                            x       y       z     vdW  Elec       q    Type
REMARK                         _______ _______ _______ _____ _____    ______ ____
ROOT
ATOM      1  N   UNL     1      31.702 -24.081 -14.323  0.00  0.00    -0.290 N 
ATOM      2  N   UNL     1      32.634 -22.798 -16.062  0.00  0.00    -0.327 NA
ATOM      3  N   UNL     1      34.996 -22.332 -16.115  0.00  0.00    -0.342 NA
ATOM      4  C   UNL     1      34.087 -23.644 -14.326  0.00  0.00    +0.143 C 
ATOM      5  C   UNL     1      32.840 -23.488 -14.924  0.00  0.00    +0.184 C 
ATOM      6  C   UNL     1      35.169 -23.029 -14.978  0.00  0.00    +0.133 C 
ATOM      7  C   UNL     1      33.740 -22.255 -16.595  0.00  0.00    +0.165 C 
ATOM      8  C   UNL     1      34.278 -24.369 -13.136  0.00  0.00    -0.011 C 
ATOM      9  C   UNL     1      36.432 -23.162 -14.408  0.00  0.00    +0.029 C 
ATOM     10  C   UNL     1      35.552 -24.485 -12.589  0.00  0.00    -0.004 C 
ATOM     11  C   UNL     1      36.629 -23.881 -13.226  0.00  0.00    +0.002 C 
ATOM     12  H   UNL     1      31.878 -24.845 -13.727  0.00  0.00    +0.154 HD
ENDROOT
BRANCH   7  14
ATOM     13  N   UNL     1      34.699 -20.989 -18.338  0.00  0.00    -0.398 NA
ATOM     14  C   UNL     1      33.564 -21.508 -17.814  0.00  0.00    +0.197 C 
ATOM     15  C   UNL     1      32.308 -21.349 -18.383  0.00  0.00    +0.098 C 
ATOM     16  C   UNL     1      34.567 -20.280 -19.482  0.00  0.00    +0.110 C 
ATOM     17  C   UNL     1      32.213 -20.614 -19.560  0.00  0.00    -0.016 C 
ATOM     18  C   UNL     1      33.358 -20.067 -20.126  0.00  0.00    +0.023 C 
ATOM     19  C   UNL     1      35.817 -19.708 -20.061  0.00  0.00    +0.066 C 
ENDBRANCH   7  14
BRANCH   1  21
ATOM     20  N   UNL     1      27.666 -22.986 -14.757  0.00  0.00    -0.242 NA
ATOM     21  C   UNL     1      30.375 -23.720 -14.465  0.00  0.00    +0.053 C 
ATOM     22  C   UNL     1      29.419 -24.642 -14.924  0.00  0.00    +0.035 C 
ATOM     23  C   UNL     1      29.938 -22.422 -14.157  0.00  0.00    +0.035 C 
ATOM     24  C   UNL     1      28.102 -24.232 -15.050  0.00  0.00    +0.100 C 
ATOM     25  C   UNL     1      28.598 -22.111 -14.318  0.00  0.00    +0.100 C 
ENDBRANCH   1  21
TORSDOF 2
ENDMDL
MODEL 7
REMARK VINA RESULT:     -10.6      1.742      5.506
REMARK  Name = 10267580
REMARK  2 active torsions:
REMARK  status: ('A' for Active; 'I' for Inactive)
REMARK    1  A    between atoms: N_1  and  C_21
REMARK    2  A    between atoms: C_7  and  C_14
REMARK                            x       y       z     vdW  Elec       q    Type
REMARK                         _______ _______ _______ _____ _____    ______ ____
ROOT
ATOM      1  N   UNL     1      34.986 -22.045 -15.087  0.00  0.00    -0.290 N 
ATOM      2  N   UNL     1      32.924 -22.962 -14.421  0.00  0.00    -0.327 NA
ATOM      3  N   UNL     1      32.716 -24.120 -12.318  0.00  0.00    -0.342 NA
ATOM      4  C   UNL     1      34.835 -23.199 -12.960  0.00  0.00    +0.143 C 
ATOM      5  C   UNL     1      34.222 -22.757 -14.129  0.00  0.00    +0.184 C 
ATOM      6  C   UNL     1      34.016 -23.898 -12.057  0.00  0.00    +0.133 C 
ATOM      7  C   UNL     1      32.240 -23.641 -13.485  0.00  0.00    +0.165 C 
ATOM      8  C   UNL     1      36.194 -22.973 -12.678  0.00  0.00    -0.011 C 
ATOM      9  C   UNL     1      34.594 -24.356 -10.877  0.00  0.00    +0.029 C 
ATOM     10  C   UNL     1      36.745 -23.444 -11.490  0.00  0.00    -0.004 C 
ATOM     11  C   UNL     1      35.944 -24.136 -10.589  0.00  0.00    +0.002 C 
ATOM     12  H   UNL     1      35.795 -21.598 -14.747  0.00  0.00    +0.154 HD
ENDROOT
BRANCH   7  14
ATOM     13  N   UNL     1      30.270 -23.008 -14.614  0.00  0.00    -0.398 NA
ATOM     14  C   UNL     1      30.847 -23.882 -13.757  0.00  0.00    +0.197 C 
ATOM     15  C   UNL     1      30.174 -24.943 -13.166  0.00  0.00    +0.098 C 
ATOM     16  C   UNL     1      28.960 -23.208 -14.888  0.00  0.00    +0.110 C 
ATOM     17  C   UNL     1      28.829 -25.116 -13.474  0.00  0.00    -0.016 C 
ATOM     18  C   UNL     1      28.204 -24.237 -14.350  0.00  0.00    +0.023 C 
ATOM     19  C   UNL     1      28.322 -22.246 -15.833  0.00  0.00    +0.066 C 
ENDBRANCH   7  14
BRANCH   1  21
ATOM     20  N   UNL     1      34.238 -21.603 -19.201  0.00  0.00    -0.242 NA
ATOM     21  C   UNL     1      34.739 -21.900 -16.439  0.00  0.00    +0.053 C 
ATOM     22  C   UNL     1      35.702 -21.339 -17.295  0.00  0.00    +0.035 C 
ATOM     23  C   UNL     1      33.520 -22.308 -17.003  0.00  0.00    +0.035 C 
ATOM     24  C   UNL     1      35.407 -21.215 -18.643  0.00  0.00    +0.100 C 
ATOM     25  C   UNL     1      33.323 -22.141 -18.364  0.00  0.00    +0.100 C 
ENDBRANCH   1  21
TORSDOF 2
ENDMDL
MODEL 8
REMARK VINA RESULT:     -10.6      1.685      5.561
REMARK  Name = 10267580
REMARK  2 active torsions:
REMARK  status: ('A' for Active; 'I' for Inactive)
REMARK    1  A    between atoms: N_1  and  C_21
REMARK    2  A    between atoms: C_7  and  C_14
REMARK                            x       y       z     vdW  Elec       q    Type
REMARK                         _______ _______ _______ _____ _____    ______ ____
ROOT
ATOM      1  N   UNL     1      33.113 -23.830 -12.384  0.00  0.00    -0.290 N 
ATOM      2  N   UNL     1      33.079 -23.053 -14.604  0.00  0.00    -0.327 NA
ATOM      3  N   UNL     1      31.068 -23.192 -15.924  0.00  0.00    -0.342 NA
ATOM      4  C   UNL     1      31.061 -23.995 -13.665  0.00  0.00    +0.143 C 
ATOM      5  C   UNL     1      32.399 -23.619 -13.589  0.00  0.00    +0.184 C 
ATOM      6  C   UNL     1      30.418 -23.754 -14.891  0.00  0.00    +0.133 C 
ATOM      7  C   UNL     1      32.362 -22.872 -15.725  0.00  0.00    +0.165 C 
ATOM      8  C   UNL     1      30.372 -24.585 -12.590  0.00  0.00    -0.011 C 
ATOM      9  C   UNL     1      29.079 -24.118 -15.004  0.00  0.00    +0.029 C 
ATOM     10  C   UNL     1      29.033 -24.939 -12.733  0.00  0.00    -0.004 C 
ATOM     11  C   UNL     1      28.387 -24.705 -13.941  0.00  0.00    +0.002 C 
ATOM     12  H   UNL     1      32.567 -23.903 -11.567  0.00  0.00    +0.154 HD
ENDROOT
BRANCH   7  14
ATOM     13  N   UNL     1      34.372 -22.046 -16.641  0.00  0.00    -0.398 NA
ATOM     14  C   UNL     1      33.051 -22.269 -16.837  0.00  0.00    +0.197 C 
ATOM     15  C   UNL     1      32.381 -21.953 -18.011  0.00  0.00    +0.098 C 
ATOM     16  C   UNL     1      35.047 -21.479 -17.667  0.00  0.00    +0.110 C 
ATOM     17  C   UNL     1      33.109 -21.371 -19.043  0.00  0.00    -0.016 C 
ATOM     18  C   UNL     1      34.468 -21.128 -18.876  0.00  0.00    +0.023 C 
ATOM     19  C   UNL     1      36.502 -21.233 -17.453  0.00  0.00    +0.066 C 
ENDBRANCH   7  14
BRANCH   1  21
ATOM     20  N   UNL     1      37.268 -24.192 -11.853  0.00  0.00    -0.242 NA
ATOM     21  C   UNL     1      34.479 -23.950 -12.210  0.00  0.00    +0.053 C 
ATOM     22  C   UNL     1      35.169 -23.125 -11.306  0.00  0.00    +0.035 C 
ATOM     23  C   UNL     1      35.222 -24.898 -12.929  0.00  0.00    +0.035 C 
ATOM     24  C   UNL     1      36.538 -23.283 -11.168  0.00  0.00    +0.100 C 
ATOM     25  C   UNL     1      36.590 -24.977 -12.719  0.00  0.00    +0.100 C 
ENDBRANCH   1  21
TORSDOF 2
ENDMDL
MODEL 9
REMARK VINA RESULT:      -9.4      1.090      5.141
REMARK  Name = 10267580
REMARK  2 active torsions:
REMARK  status: ('A' for Active; 'I' for Inactive)
REMARK    1  A    between atoms: N_1  and  C_21
REMARK    2  A    between atoms: C_7  and  C_14
REMARK                            x       y       z     vdW  Elec       q    Type
REMARK                         _______ _______ _______ _____ _____    ______ ____
ROOT
ATOM      1  N   UNL     1      35.865 -21.842 -16.429  0.00  0.00    -0.290 N 
ATOM      2  N   UNL     1      33.873 -22.608 -15.439  0.00  0.00    -0.327 NA
ATOM      3  N   UNL     1      33.928 -24.242 -13.670  0.00  0.00    -0.342 NA
ATOM      4  C   UNL     1      35.982 -23.488 -14.652  0.00  0.00    +0.143 C 
ATOM      5  C   UNL     1      35.217 -22.670 -15.479  0.00  0.00    +0.184 C 
ATOM      6  C   UNL     1      35.271 -24.280 -13.736  0.00  0.00    +0.133 C 
ATOM      7  C   UNL     1      33.302 -23.409 -14.525  0.00  0.00    +0.165 C 
ATOM      8  C   UNL     1      37.386 -23.536 -14.713  0.00  0.00    -0.011 C 
ATOM      9  C   UNL     1      36.002 -25.112 -12.892  0.00  0.00    +0.029 C 
ATOM     10  C   UNL     1      38.090 -24.377 -13.857  0.00  0.00    -0.004 C 
ATOM     11  C   UNL     1      37.397 -25.165 -12.946  0.00  0.00    +0.002 C 
ATOM     12  H   UNL     1      36.805 -21.618 -16.236  0.00  0.00    +0.154 HD
ENDROOT
BRANCH   7  14
ATOM     13  N   UNL     1      31.332 -23.995 -13.370  0.00  0.00    -0.398 NA
ATOM     14  C   UNL     1      31.865 -23.373 -14.448  0.00  0.00    +0.197 C 
ATOM     15  C   UNL     1      31.109 -22.740 -15.426  0.00  0.00    +0.098 C 
ATOM     16  C   UNL     1      29.983 -23.980 -13.270  0.00  0.00    +0.110 C 
ATOM     17  C   UNL     1      29.725 -22.746 -15.288  0.00  0.00    -0.016 C 
ATOM     18  C   UNL     1      29.144 -23.375 -14.193  0.00  0.00    +0.023 C 
ATOM     19  C   UNL     1      29.394 -24.664 -12.082  0.00  0.00    +0.066 C 
ENDBRANCH   7  14
BRANCH   1  21
ATOM     20  N   UNL     1      34.287 -20.223 -19.974  0.00  0.00    -0.242 NA
ATOM     21  C   UNL     1      35.346 -21.310 -17.595  0.00  0.00    +0.053 C 
ATOM     22  C   UNL     1      36.103 -20.437 -18.393  0.00  0.00    +0.035 C 
ATOM     23  C   UNL     1      34.046 -21.625 -18.020  0.00  0.00    +0.035 C 
ATOM     24  C   UNL     1      35.537 -19.930 -19.551  0.00  0.00    +0.100 C 
ATOM     25  C   UNL     1      33.572 -21.065 -19.196  0.00  0.00    +0.100 C 
ENDBRANCH   1  21
TORSDOF 2
ENDMDL
