MODEL 1
REMARK VINA RESULT:     -11.8      0.000      0.000
REMARK  Name = 5289109
REMARK  6 active torsions:
REMARK  status: ('A' for Active; 'I' for Inactive)
REMARK    1  A    between atoms: C_3  and  C_9
REMARK    2  A    between atoms: C_4  and  C_21
REMARK    3  A    between atoms: N_8  and  C_11
REMARK    4  A    between atoms: C_11  and  C_12
REMARK    5  A    between atoms: N_20  and  C_23
REMARK    6  A    between atoms: C_23  and  C_24
REMARK                            x       y       z     vdW  Elec       q    Type
REMARK                         _______ _______ _______ _____ _____    ______ ____
ROOT
ATOM      1  N   UNL     1      33.745 -15.298 -20.495  0.00  0.00    -0.244 NA
ATOM      2  N   UNL     1      33.191 -13.094 -21.294  0.00  0.00    -0.244 NA
ATOM      3  C   UNL     1      33.941 -15.673 -21.776  0.00  0.00    +0.115 C 
ATOM      4  C   UNL     1      33.408 -13.558 -22.526  0.00  0.00    +0.115 C 
ATOM      5  C   UNL     1      33.783 -14.827 -22.856  0.00  0.00    +0.100 C 
ATOM      6  C   UNL     1      33.378 -14.014 -20.329  0.00  0.00    +0.250 C 
ENDROOT
BRANCH   3   9
ATOM      7  O   UNL     1      34.287 -17.571 -23.110  0.00  0.00    -0.269 OA
ATOM      8  N   UNL     1      34.797 -17.756 -20.855  0.00  0.00    -0.296 N 
ATOM      9  C   UNL     1      34.339 -17.056 -21.978  0.00  0.00    +0.260 C 
ATOM     10  H   UNL     1      34.812 -17.289 -19.989  0.00  0.00    +0.150 HD
BRANCH   8  11
ATOM     11  C   UNL     1      35.249 -19.128 -20.898  0.00  0.00    +0.117 C 
BRANCH  11  12
ATOM     12  C   UNL     1      34.525 -19.990 -19.905  0.00  0.00    -0.003 C 
ATOM     13  C   UNL     1      35.236 -20.606 -18.883  0.00  0.00    -0.007 C 
ATOM     14  C   UNL     1      34.563 -21.405 -17.959  0.00  0.00    -0.022 C 
ATOM     15  C   UNL     1      33.150 -20.163 -20.018  0.00  0.00    -0.003 C 
ATOM     16  C   UNL     1      33.184 -21.585 -18.065  0.00  0.00    -0.004 C 
ATOM     17  C   UNL     1      32.478 -20.963 -19.095  0.00  0.00    -0.001 C 
ATOM     18  C   UNL     1      35.318 -22.071 -16.858  0.00  0.00    +0.031 C 
ENDBRANCH  11  12
ENDBRANCH   8  11
ENDBRANCH   3   9
BRANCH   4  21
ATOM     19  O   UNL     1      32.737 -12.923 -24.682  0.00  0.00    -0.269 OA
ATOM     20  N   UNL     1      33.553 -11.250 -23.297  0.00  0.00    -0.296 N 
ATOM     21  C   UNL     1      33.207 -12.558 -23.606  0.00  0.00    +0.260 C 
ATOM     22  H   UNL     1      33.922 -11.057 -22.405  0.00  0.00    +0.150 HD
BRANCH  20  23
ATOM     23  C   UNL     1      33.393 -10.164 -24.231  0.00  0.00    +0.117 C 
BRANCH  23  24
ATOM     24  C   UNL     1      33.237  -8.848 -23.547  0.00  0.00    -0.003 C 
ATOM     25  C   UNL     1      31.973  -8.417 -23.145  0.00  0.00    -0.007 C 
ATOM     26  C   UNL     1      31.826  -7.185 -22.504  0.00  0.00    -0.022 C 
ATOM     27  C   UNL     1      34.354  -8.048 -23.309  0.00  0.00    -0.003 C 
ATOM     28  C   UNL     1      32.944  -6.387 -22.267  0.00  0.00    -0.004 C 
ATOM     29  C   UNL     1      34.208  -6.817 -22.669  0.00  0.00    -0.001 C 
ATOM     30  C   UNL     1      30.474  -6.724 -22.075  0.00  0.00    +0.031 C 
ENDBRANCH  23  24
ENDBRANCH  20  23
ENDBRANCH   4  21
TORSDOF 6
ENDMDL
MODEL 2
REMARK VINA RESULT:     -11.8      0.049     10.895
REMARK  Name = 5289109
REMARK  6 active torsions:
REMARK  status: ('A' for Active; 'I' for Inactive)
REMARK    1  A    between atoms: C_3  and  C_9
REMARK    2  A    between atoms: C_4  and  C_21
REMARK    3  A    between atoms: N_8  and  C_11
REMARK    4  A    between atoms: C_11  and  C_12
REMARK    5  A    between atoms: N_20  and  C_23
REMARK    6  A    between atoms: C_23  and  C_24
REMARK                            x       y       z     vdW  Elec       q    Type
REMARK                         _______ _______ _______ _____ _____    ______ ____
ROOT
ATOM      1  N   UNL     1      33.198 -13.110 -21.299  0.00  0.00    -0.244 NA
ATOM      2  N   UNL     1      33.732 -15.321 -20.506  0.00  0.00    -0.244 NA
ATOM      3  C   UNL     1      33.409 -13.551 -22.557  0.00  0.00    +0.115 C 
ATOM      4  C   UNL     1      33.918 -15.663 -21.782  0.00  0.00    +0.115 C 
ATOM      5  C   UNL     1      33.780 -14.844 -22.864  0.00  0.00    +0.100 C 
ATOM      6  C   UNL     1      33.374 -14.035 -20.336  0.00  0.00    +0.250 C 
ENDROOT
BRANCH   3   9
ATOM      7  O   UNL     1      32.760 -12.904 -24.715  0.00  0.00    -0.269 OA
ATOM      8  N   UNL     1      33.570 -11.244 -23.314  0.00  0.00    -0.296 N 
ATOM      9  C   UNL     1      33.224 -12.568 -23.611  0.00  0.00    +0.260 C 
ATOM     10  H   UNL     1      33.933 -11.046 -22.421  0.00  0.00    +0.150 HD
BRANCH   8  11
ATOM     11  C   UNL     1      33.422 -10.150 -24.248  0.00  0.00    +0.117 C 
BRANCH  11  12
ATOM     12  C   UNL     1      33.237  -8.835 -23.548  0.00  0.00    -0.003 C 
ATOM     13  C   UNL     1      31.963  -8.429 -23.174  0.00  0.00    -0.007 C 
ATOM     14  C   UNL     1      31.791  -7.207 -22.522  0.00  0.00    -0.022 C 
ATOM     15  C   UNL     1      34.344  -8.037 -23.282  0.00  0.00    -0.003 C 
ATOM     16  C   UNL     1      32.896  -6.400 -22.251  0.00  0.00    -0.004 C 
ATOM     17  C   UNL     1      34.173  -6.816 -22.630  0.00  0.00    -0.001 C 
ATOM     18  C   UNL     1      30.426  -6.762 -22.117  0.00  0.00    +0.031 C 
ENDBRANCH  11  12
ENDBRANCH   8  11
ENDBRANCH   3   9
BRANCH   4  21
ATOM     19  O   UNL     1      34.208 -17.573 -23.111  0.00  0.00    -0.269 OA
ATOM     20  N   UNL     1      34.810 -17.743 -20.877  0.00  0.00    -0.296 N 
ATOM     21  C   UNL     1      34.315 -17.079 -21.991  0.00  0.00    +0.260 C 
ATOM     22  H   UNL     1      34.857 -17.260 -20.021  0.00  0.00    +0.150 HD
BRANCH  20  23
ATOM     23  C   UNL     1      35.259 -19.111 -20.926  0.00  0.00    +0.117 C 
BRANCH  23  24
ATOM     24  C   UNL     1      34.562 -19.972 -19.927  0.00  0.00    -0.003 C 
ATOM     25  C   UNL     1      35.288 -20.573 -18.899  0.00  0.00    -0.007 C 
ATOM     26  C   UNL     1      34.636 -21.378 -17.963  0.00  0.00    -0.022 C 
ATOM     27  C   UNL     1      33.186 -20.176 -20.020  0.00  0.00    -0.003 C 
ATOM     28  C   UNL     1      33.259 -21.581 -18.057  0.00  0.00    -0.004 C 
ATOM     29  C   UNL     1      32.534 -20.980 -19.085  0.00  0.00    -0.001 C 
ATOM     30  C   UNL     1      35.411 -22.022 -16.864  0.00  0.00    +0.031 C 
ENDBRANCH  23  24
ENDBRANCH  20  23
ENDBRANCH   4  21
TORSDOF 6
ENDMDL
MODEL 3
REMARK VINA RESULT:     -11.4      8.127     13.989
REMARK  Name = 5289109
REMARK  6 active torsions:
REMARK  status: ('A' for Active; 'I' for Inactive)
REMARK    1  A    between atoms: C_3  and  C_9
REMARK    2  A    between atoms: C_4  and  C_21
REMARK    3  A    between atoms: N_8  and  C_11
REMARK    4  A    between atoms: C_11  and  C_12
REMARK    5  A    between atoms: N_20  and  C_23
REMARK    6  A    between atoms: C_23  and  C_24
REMARK                            x       y       z     vdW  Elec       q    Type
REMARK                         _______ _______ _______ _____ _____    ______ ____
ROOT
ATOM      1  N   UNL     1      29.649 -24.060 -14.440  0.00  0.00    -0.244 NA
ATOM      2  N   UNL     1      30.980 -24.744 -12.552  0.00  0.00    -0.244 NA
ATOM      3  C   UNL     1      30.681 -23.288 -14.840  0.00  0.00    +0.115 C 
ATOM      4  C   UNL     1      31.943 -23.951 -13.027  0.00  0.00    +0.115 C 
ATOM      5  C   UNL     1      31.877 -23.192 -14.158  0.00  0.00    +0.100 C 
ATOM      6  C   UNL     1      29.865 -24.752 -13.305  0.00  0.00    +0.250 C 
ENDROOT
BRANCH   3   9
ATOM      7  O   UNL     1      29.353 -22.052 -16.326  0.00  0.00    -0.269 OA
ATOM      8  N   UNL     1      31.577 -22.361 -16.904  0.00  0.00    -0.296 N 
ATOM      9  C   UNL     1      30.470 -22.533 -16.064  0.00  0.00    +0.260 C 
ATOM     10  H   UNL     1      32.433 -22.768 -16.637  0.00  0.00    +0.150 HD
BRANCH   8  11
ATOM     11  C   UNL     1      31.533 -21.616 -18.142  0.00  0.00    +0.117 C 
BRANCH  11  12
ATOM     12  C   UNL     1      32.901 -21.188 -18.589  0.00  0.00    -0.003 C 
ATOM     13  C   UNL     1      33.030 -20.280 -19.632  0.00  0.00    -0.007 C 
ATOM     14  C   UNL     1      34.301 -19.881 -20.046  0.00  0.00    -0.022 C 
ATOM     15  C   UNL     1      34.025 -21.706 -17.955  0.00  0.00    -0.003 C 
ATOM     16  C   UNL     1      35.434 -20.395 -19.416  0.00  0.00    -0.004 C 
ATOM     17  C   UNL     1      35.296 -21.307 -18.369  0.00  0.00    -0.001 C 
ATOM     18  C   UNL     1      34.449 -18.906 -21.166  0.00  0.00    +0.031 C 
ENDBRANCH  11  12
ENDBRANCH   8  11
ENDBRANCH   3   9
BRANCH   4  21
ATOM     19  O   UNL     1      33.237 -23.200 -11.221  0.00  0.00    -0.269 OA
ATOM     20  N   UNL     1      34.203 -24.771 -12.628  0.00  0.00    -0.296 N 
ATOM     21  C   UNL     1      33.183 -23.928 -12.210  0.00  0.00    +0.260 C 
ATOM     22  H   UNL     1      34.065 -25.317 -13.435  0.00  0.00    +0.150 HD
BRANCH  20  23
ATOM     23  C   UNL     1      35.457 -24.879 -11.925  0.00  0.00    +0.117 C 
BRANCH  23  24
ATOM     24  C   UNL     1      36.630 -24.747 -12.837  0.00  0.00    -0.003 C 
ATOM     25  C   UNL     1      37.758 -25.542 -12.640  0.00  0.00    -0.007 C 
ATOM     26  C   UNL     1      38.857 -25.420 -13.493  0.00  0.00    -0.022 C 
ATOM     27  C   UNL     1      36.599 -23.829 -13.886  0.00  0.00    -0.003 C 
ATOM     28  C   UNL     1      38.824 -24.501 -14.541  0.00  0.00    -0.004 C 
ATOM     29  C   UNL     1      37.696 -23.706 -14.739  0.00  0.00    -0.001 C 
ATOM     30  C   UNL     1      40.064 -26.270 -13.282  0.00  0.00    +0.031 C 
ENDBRANCH  23  24
ENDBRANCH  20  23
ENDBRANCH   4  21
TORSDOF 6
ENDMDL
MODEL 4
REMARK VINA RESULT:     -11.3      2.310     10.499
REMARK  Name = 5289109
REMARK  6 active torsions:
REMARK  status: ('A' for Active; 'I' for Inactive)
REMARK    1  A    between atoms: C_3  and  C_9
REMARK    2  A    between atoms: C_4  and  C_21
REMARK    3  A    between atoms: N_8  and  C_11
REMARK    4  A    between atoms: C_11  and  C_12
REMARK    5  A    between atoms: N_20  and  C_23
REMARK    6  A    between atoms: C_23  and  C_24
REMARK                            x       y       z     vdW  Elec       q    Type
REMARK                         _______ _______ _______ _____ _____    ______ ____
ROOT
ATOM      1  N   UNL     1      33.184 -17.659 -24.188  0.00  0.00    -0.244 NA
ATOM      2  N   UNL     1      34.146 -19.393 -22.820  0.00  0.00    -0.244 NA
ATOM      3  C   UNL     1      33.756 -16.750 -23.372  0.00  0.00    +0.115 C 
ATOM      4  C   UNL     1      34.670 -18.421 -22.071  0.00  0.00    +0.115 C 
ATOM      5  C   UNL     1      34.525 -17.080 -22.274  0.00  0.00    +0.100 C 
ATOM      6  C   UNL     1      33.418 -18.944 -23.859  0.00  0.00    +0.250 C 
ENDROOT
BRANCH   3   9
ATOM      7  O   UNL     1      33.208 -15.031 -24.870  0.00  0.00    -0.269 OA
ATOM      8  N   UNL     1      33.631 -14.422 -22.673  0.00  0.00    -0.296 N 
ATOM      9  C   UNL     1      33.518 -15.357 -23.710  0.00  0.00    +0.260 C 
ATOM     10  H   UNL     1      33.880 -14.747 -21.778  0.00  0.00    +0.150 HD
BRANCH   8  11
ATOM     11  C   UNL     1      33.401 -13.006 -22.845  0.00  0.00    +0.117 C 
BRANCH  11  12
ATOM     12  C   UNL     1      32.440 -12.465 -21.826  0.00  0.00    -0.003 C 
ATOM     13  C   UNL     1      31.989 -11.155 -21.934  0.00  0.00    -0.007 C 
ATOM     14  C   UNL     1      31.094 -10.653 -20.990  0.00  0.00    -0.022 C 
ATOM     15  C   UNL     1      32.009 -13.280 -20.786  0.00  0.00    -0.003 C 
ATOM     16  C   UNL     1      30.657 -11.464 -19.942  0.00  0.00    -0.004 C 
ATOM     17  C   UNL     1      31.115 -12.778 -19.841  0.00  0.00    -0.001 C 
ATOM     18  C   UNL     1      30.606  -9.247 -21.097  0.00  0.00    +0.031 C 
ENDBRANCH  11  12
ENDBRANCH   8  11
ENDBRANCH   3   9
BRANCH   4  21
ATOM     19  O   UNL     1      36.525 -18.318 -20.640  0.00  0.00    -0.269 OA
ATOM     20  N   UNL     1      34.955 -19.972 -20.213  0.00  0.00    -0.296 N 
ATOM     21  C   UNL     1      35.477 -18.896 -20.918  0.00  0.00    +0.260 C 
ATOM     22  H   UNL     1      34.106 -20.369 -20.514  0.00  0.00    +0.150 HD
BRANCH  20  23
ATOM     23  C   UNL     1      35.608 -20.531 -19.056  0.00  0.00    +0.117 C 
BRANCH  23  24
ATOM     24  C   UNL     1      34.662 -21.273 -18.174  0.00  0.00    -0.003 C 
ATOM     25  C   UNL     1      35.086 -21.733 -16.928  0.00  0.00    -0.007 C 
ATOM     26  C   UNL     1      34.200 -22.427 -16.101  0.00  0.00    -0.022 C 
ATOM     27  C   UNL     1      33.353 -21.506 -18.595  0.00  0.00    -0.003 C 
ATOM     28  C   UNL     1      32.892 -22.660 -16.523  0.00  0.00    -0.004 C 
ATOM     29  C   UNL     1      32.467 -22.199 -17.769  0.00  0.00    -0.001 C 
ATOM     30  C   UNL     1      34.654 -22.920 -14.769  0.00  0.00    +0.031 C 
ENDBRANCH  23  24
ENDBRANCH  20  23
ENDBRANCH   4  21
TORSDOF 6
ENDMDL
MODEL 5
REMARK VINA RESULT:     -11.3      2.302      3.744
REMARK  Name = 5289109
REMARK  6 active torsions:
REMARK  status: ('A' for Active; 'I' for Inactive)
REMARK    1  A    between atoms: C_3  and  C_9
REMARK    2  A    between atoms: C_4  and  C_21
REMARK    3  A    between atoms: N_8  and  C_11
REMARK    4  A    between atoms: C_11  and  C_12
REMARK    5  A    between atoms: N_20  and  C_23
REMARK    6  A    between atoms: C_23  and  C_24
REMARK                            x       y       z     vdW  Elec       q    Type
REMARK                         _______ _______ _______ _____ _____    ______ ____
ROOT
ATOM      1  N   UNL     1      34.174 -19.434 -22.606  0.00  0.00    -0.244 NA
ATOM      2  N   UNL     1      33.252 -17.727 -24.034  0.00  0.00    -0.244 NA
ATOM      3  C   UNL     1      34.721 -18.456 -21.853  0.00  0.00    +0.115 C 
ATOM      4  C   UNL     1      33.832 -16.833 -23.230  0.00  0.00    +0.115 C 
ATOM      5  C   UNL     1      34.580 -17.110 -22.124  0.00  0.00    +0.100 C 
ATOM      6  C   UNL     1      33.462 -19.004 -23.665  0.00  0.00    +0.250 C 
ENDROOT
BRANCH   3   9
ATOM      7  O   UNL     1      36.534 -18.303 -20.374  0.00  0.00    -0.269 OA
ATOM      8  N   UNL     1      34.997 -19.997 -19.989  0.00  0.00    -0.296 N 
ATOM      9  C   UNL     1      35.493 -18.899 -20.704  0.00  0.00    +0.260 C 
ATOM     10  H   UNL     1      34.168 -20.423 -20.305  0.00  0.00    +0.150 HD
BRANCH   8  11
ATOM     11  C   UNL     1      35.637 -20.539 -18.813  0.00  0.00    +0.117 C 
BRANCH  11  12
ATOM     12  C   UNL     1      34.685 -21.343 -17.975  0.00  0.00    -0.003 C 
ATOM     13  C   UNL     1      35.053 -21.725 -16.691  0.00  0.00    -0.007 C 
ATOM     14  C   UNL     1      34.168 -22.470 -15.913  0.00  0.00    -0.022 C 
ATOM     15  C   UNL     1      33.445 -21.698 -18.493  0.00  0.00    -0.003 C 
ATOM     16  C   UNL     1      32.921 -22.830 -16.425  0.00  0.00    -0.004 C 
ATOM     17  C   UNL     1      32.560 -22.443 -17.715  0.00  0.00    -0.001 C 
ATOM     18  C   UNL     1      34.555 -22.886 -14.533  0.00  0.00    +0.031 C 
ENDBRANCH  11  12
ENDBRANCH   8  11
ENDBRANCH   3   9
BRANCH   4  21
ATOM     19  O   UNL     1      33.407 -15.144 -24.801  0.00  0.00    -0.269 OA
ATOM     20  N   UNL     1      33.634 -14.491 -22.587  0.00  0.00    -0.296 N 
ATOM     21  C   UNL     1      33.612 -15.417 -23.620  0.00  0.00    +0.260 C 
ATOM     22  H   UNL     1      33.807 -14.808 -21.671  0.00  0.00    +0.150 HD
BRANCH  20  23
ATOM     23  C   UNL     1      33.413 -13.083 -22.802  0.00  0.00    +0.117 C 
BRANCH  23  24
ATOM     24  C   UNL     1      32.460 -12.502 -21.813  0.00  0.00    -0.003 C 
ATOM     25  C   UNL     1      32.028 -11.183 -21.954  0.00  0.00    -0.007 C 
ATOM     26  C   UNL     1      31.135 -10.638 -21.029  0.00  0.00    -0.022 C 
ATOM     27  C   UNL     1      32.000 -13.276 -20.748  0.00  0.00    -0.003 C 
ATOM     28  C   UNL     1      30.676 -11.414 -19.964  0.00  0.00    -0.004 C 
ATOM     29  C   UNL     1      31.108 -12.732 -19.823  0.00  0.00    -0.001 C 
ATOM     30  C   UNL     1      30.674  -9.228 -21.179  0.00  0.00    +0.031 C 
ENDBRANCH  23  24
ENDBRANCH  20  23
ENDBRANCH   4  21
TORSDOF 6
ENDMDL
MODEL 6
REMARK VINA RESULT:     -11.1      3.871      6.834
REMARK  Name = 5289109
REMARK  6 active torsions:
REMARK  status: ('A' for Active; 'I' for Inactive)
REMARK    1  A    between atoms: C_3  and  C_9
REMARK    2  A    between atoms: C_4  and  C_21
REMARK    3  A    between atoms: N_8  and  C_11
REMARK    4  A    between atoms: C_11  and  C_12
REMARK    5  A    between atoms: N_20  and  C_23
REMARK    6  A    between atoms: C_23  and  C_24
REMARK                            x       y       z     vdW  Elec       q    Type
REMARK                         _______ _______ _______ _____ _____    ______ ____
ROOT
ATOM      1  N   UNL     1      32.121 -21.112 -18.888  0.00  0.00    -0.244 NA
ATOM      2  N   UNL     1      32.377 -19.569 -20.721  0.00  0.00    -0.244 NA
ATOM      3  C   UNL     1      33.455 -21.042 -18.692  0.00  0.00    +0.115 C 
ATOM      4  C   UNL     1      33.684 -19.566 -20.450  0.00  0.00    +0.115 C 
ATOM      5  C   UNL     1      34.303 -20.270 -19.460  0.00  0.00    +0.100 C 
ATOM      6  C   UNL     1      31.657 -20.360 -19.904  0.00  0.00    +0.250 C 
ENDROOT
BRANCH   3   9
ATOM      7  O   UNL     1      35.204 -21.965 -17.433  0.00  0.00    -0.269 OA
ATOM      8  N   UNL     1      33.041 -22.448 -16.750  0.00  0.00    -0.296 N 
ATOM      9  C   UNL     1      33.977 -21.846 -17.601  0.00  0.00    +0.260 C 
ATOM     10  H   UNL     1      32.085 -22.314 -16.940  0.00  0.00    +0.150 HD
BRANCH   8  11
ATOM     11  C   UNL     1      33.403 -23.256 -15.608  0.00  0.00    +0.117 C 
BRANCH  11  12
ATOM     12  C   UNL     1      32.249 -23.449 -14.667  0.00  0.00    -0.003 C 
ATOM     13  C   UNL     1      31.024 -22.861 -14.953  0.00  0.00    -0.007 C 
ATOM     14  C   UNL     1      29.950 -23.042 -14.081  0.00  0.00    -0.022 C 
ATOM     15  C   UNL     1      32.418 -24.215 -13.519  0.00  0.00    -0.003 C 
ATOM     16  C   UNL     1      30.111 -23.808 -12.926  0.00  0.00    -0.004 C 
ATOM     17  C   UNL     1      31.345 -24.396 -12.646  0.00  0.00    -0.001 C 
ATOM     18  C   UNL     1      28.631 -22.413 -14.379  0.00  0.00    +0.031 C 
ENDBRANCH  11  12
ENDBRANCH   8  11
ENDBRANCH   3   9
BRANCH   4  21
ATOM     19  O   UNL     1      35.718 -18.674 -21.202  0.00  0.00    -0.269 OA
ATOM     20  N   UNL     1      33.795 -17.984 -22.301  0.00  0.00    -0.296 N 
ATOM     21  C   UNL     1      34.497 -18.699 -21.340  0.00  0.00    +0.260 C 
ATOM     22  H   UNL     1      32.815 -18.070 -22.332  0.00  0.00    +0.150 HD
BRANCH  20  23
ATOM     23  C   UNL     1      34.445 -17.120 -23.254  0.00  0.00    +0.117 C 
BRANCH  23  24
ATOM     24  C   UNL     1      33.860 -15.748 -23.265  0.00  0.00    -0.003 C 
ATOM     25  C   UNL     1      33.265 -15.254 -24.425  0.00  0.00    -0.007 C 
ATOM     26  C   UNL     1      32.717 -13.970 -24.437  0.00  0.00    -0.022 C 
ATOM     27  C   UNL     1      33.908 -14.959 -22.116  0.00  0.00    -0.003 C 
ATOM     28  C   UNL     1      32.765 -13.182 -23.287  0.00  0.00    -0.004 C 
ATOM     29  C   UNL     1      33.360 -13.676 -22.126  0.00  0.00    -0.001 C 
ATOM     30  C   UNL     1      32.081 -13.441 -25.677  0.00  0.00    +0.031 C 
ENDBRANCH  23  24
ENDBRANCH  20  23
ENDBRANCH   4  21
TORSDOF 6
ENDMDL
MODEL 7
REMARK VINA RESULT:     -11.1      2.031      2.542
REMARK  Name = 5289109
REMARK  6 active torsions:
REMARK  status: ('A' for Active; 'I' for Inactive)
REMARK    1  A    between atoms: C_3  and  C_9
REMARK    2  A    between atoms: C_4  and  C_21
REMARK    3  A    between atoms: N_8  and  C_11
REMARK    4  A    between atoms: C_11  and  C_12
REMARK    5  A    between atoms: N_20  and  C_23
REMARK    6  A    between atoms: C_23  and  C_24
REMARK                            x       y       z     vdW  Elec       q    Type
REMARK                         _______ _______ _______ _____ _____    ______ ____
ROOT
ATOM      1  N   UNL     1      33.295 -14.800 -24.709  0.00  0.00    -0.244 NA
ATOM      2  N   UNL     1      32.267 -12.863 -23.712  0.00  0.00    -0.244 NA
ATOM      3  C   UNL     1      33.387 -15.340 -23.476  0.00  0.00    +0.115 C 
ATOM      4  C   UNL     1      32.401 -13.478 -22.535  0.00  0.00    +0.115 C 
ATOM      5  C   UNL     1      32.948 -14.711 -22.328  0.00  0.00    +0.100 C 
ATOM      6  C   UNL     1      32.732 -13.578 -24.753  0.00  0.00    +0.250 C 
ENDROOT
BRANCH   3   9
ATOM      7  O   UNL     1      33.890 -17.454 -24.357  0.00  0.00    -0.269 OA
ATOM      8  N   UNL     1      34.701 -16.972 -22.239  0.00  0.00    -0.296 N 
ATOM      9  C   UNL     1      33.991 -16.659 -23.405  0.00  0.00    +0.260 C 
ATOM     10  H   UNL     1      34.742 -16.298 -21.523  0.00  0.00    +0.150 HD
BRANCH   8  11
ATOM     11  C   UNL     1      35.377 -18.232 -22.028  0.00  0.00    +0.117 C 
BRANCH  11  12
ATOM     12  C   UNL     1      34.671 -19.087 -21.016  0.00  0.00    -0.003 C 
ATOM     13  C   UNL     1      35.408 -19.761 -20.051  0.00  0.00    -0.007 C 
ATOM     14  C   UNL     1      34.752 -20.553 -19.109  0.00  0.00    -0.022 C 
ATOM     15  C   UNL     1      33.285 -19.195 -21.054  0.00  0.00    -0.003 C 
ATOM     16  C   UNL     1      33.362 -20.667 -19.140  0.00  0.00    -0.004 C 
ATOM     17  C   UNL     1      32.629 -19.987 -20.113  0.00  0.00    -0.001 C 
ATOM     18  C   UNL     1      35.536 -21.281 -18.069  0.00  0.00    +0.031 C 
ENDBRANCH  11  12
ENDBRANCH   8  11
ENDBRANCH   3   9
BRANCH   4  21
ATOM     19  O   UNL     1      31.879 -13.232 -20.262  0.00  0.00    -0.269 OA
ATOM     20  N   UNL     1      31.488 -11.405 -21.637  0.00  0.00    -0.296 N 
ATOM     21  C   UNL     1      31.894 -12.706 -21.373  0.00  0.00    +0.260 C 
ATOM     22  H   UNL     1      31.538 -11.073 -22.562  0.00  0.00    +0.150 HD
BRANCH  20  23
ATOM     23  C   UNL     1      30.996 -10.523 -20.610  0.00  0.00    +0.117 C 
BRANCH  23  24
ATOM     24  C   UNL     1      31.397  -9.105 -20.841  0.00  0.00    -0.003 C 
ATOM     25  C   UNL     1      31.270  -8.169 -19.815  0.00  0.00    -0.007 C 
ATOM     26  C   UNL     1      31.646  -6.842 -20.030  0.00  0.00    -0.022 C 
ATOM     27  C   UNL     1      31.898  -8.715 -22.082  0.00  0.00    -0.003 C 
ATOM     28  C   UNL     1      32.148  -6.453 -21.272  0.00  0.00    -0.004 C 
ATOM     29  C   UNL     1      32.274  -7.389 -22.298  0.00  0.00    -0.001 C 
ATOM     30  C   UNL     1      31.510  -5.840 -18.934  0.00  0.00    +0.031 C 
ENDBRANCH  23  24
ENDBRANCH  20  23
ENDBRANCH   4  21
TORSDOF 6
ENDMDL
MODEL 8
REMARK VINA RESULT:     -11.1      3.867     11.810
REMARK  Name = 5289109
REMARK  6 active torsions:
REMARK  status: ('A' for Active; 'I' for Inactive)
REMARK    1  A    between atoms: C_3  and  C_9
REMARK    2  A    between atoms: C_4  and  C_21
REMARK    3  A    between atoms: N_8  and  C_11
REMARK    4  A    between atoms: C_11  and  C_12
REMARK    5  A    between atoms: N_20  and  C_23
REMARK    6  A    between atoms: C_23  and  C_24
REMARK                            x       y       z     vdW  Elec       q    Type
REMARK                         _______ _______ _______ _____ _____    ______ ____
ROOT
ATOM      1  N   UNL     1      32.410 -19.579 -20.670  0.00  0.00    -0.244 NA
ATOM      2  N   UNL     1      32.138 -21.120 -18.838  0.00  0.00    -0.244 NA
ATOM      3  C   UNL     1      33.734 -19.561 -20.410  0.00  0.00    +0.115 C 
ATOM      4  C   UNL     1      33.458 -21.037 -18.658  0.00  0.00    +0.115 C 
ATOM      5  C   UNL     1      34.326 -20.285 -19.394  0.00  0.00    +0.100 C 
ATOM      6  C   UNL     1      31.683 -20.368 -19.857  0.00  0.00    +0.250 C 
ENDROOT
BRANCH   3   9
ATOM      7  O   UNL     1      35.778 -18.706 -21.176  0.00  0.00    -0.269 OA
ATOM      8  N   UNL     1      33.855 -17.944 -22.224  0.00  0.00    -0.296 N 
ATOM      9  C   UNL     1      34.538 -18.715 -21.275  0.00  0.00    +0.260 C 
ATOM     10  H   UNL     1      32.873 -17.998 -22.248  0.00  0.00    +0.150 HD
BRANCH   8  11
ATOM     11  C   UNL     1      34.514 -17.072 -23.170  0.00  0.00    +0.117 C 
BRANCH  11  12
ATOM     12  C   UNL     1      33.890 -15.707 -23.206  0.00  0.00    -0.003 C 
ATOM     13  C   UNL     1      33.299 -15.252 -24.377  0.00  0.00    -0.007 C 
ATOM     14  C   UNL     1      32.717 -13.985 -24.410  0.00  0.00    -0.022 C 
ATOM     15  C   UNL     1      33.910 -14.912 -22.065  0.00  0.00    -0.003 C 
ATOM     16  C   UNL     1      32.732 -13.180 -23.270  0.00  0.00    -0.004 C 
ATOM     17  C   UNL     1      33.329 -13.645 -22.098  0.00  0.00    -0.001 C 
ATOM     18  C   UNL     1      32.080 -13.488 -25.664  0.00  0.00    +0.031 C 
ENDBRANCH  11  12
ENDBRANCH   8  11
ENDBRANCH   3   9
BRANCH   4  21
ATOM     19  O   UNL     1      35.197 -21.974 -17.394  0.00  0.00    -0.269 OA
ATOM     20  N   UNL     1      33.029 -22.428 -16.704  0.00  0.00    -0.296 N 
ATOM     21  C   UNL     1      33.982 -21.859 -17.538  0.00  0.00    +0.260 C 
ATOM     22  H   UNL     1      32.077 -22.278 -16.902  0.00  0.00    +0.150 HD
BRANCH  20  23
ATOM     23  C   UNL     1      33.380 -23.231 -15.560  0.00  0.00    +0.117 C 
BRANCH  23  24
ATOM     24  C   UNL     1      32.224 -23.446 -14.642  0.00  0.00    -0.003 C 
ATOM     25  C   UNL     1      30.984 -22.882 -14.941  0.00  0.00    -0.007 C 
ATOM     26  C   UNL     1      29.901 -23.083 -14.083  0.00  0.00    -0.022 C 
ATOM     27  C   UNL     1      32.383 -24.210 -13.487  0.00  0.00    -0.003 C 
ATOM     28  C   UNL     1      30.061 -23.848 -12.928  0.00  0.00    -0.004 C 
ATOM     29  C   UNL     1      31.301 -24.412 -12.629  0.00  0.00    -0.001 C 
ATOM     30  C   UNL     1      28.575 -22.480 -14.401  0.00  0.00    +0.031 C 
ENDBRANCH  23  24
ENDBRANCH  20  23
ENDBRANCH   4  21
TORSDOF 6
ENDMDL
MODEL 9
REMARK VINA RESULT:     -11.0      1.766      2.857
REMARK  Name = 5289109
REMARK  6 active torsions:
REMARK  status: ('A' for Active; 'I' for Inactive)
REMARK    1  A    between atoms: C_3  and  C_9
REMARK    2  A    between atoms: C_4  and  C_21
REMARK    3  A    between atoms: N_8  and  C_11
REMARK    4  A    between atoms: C_11  and  C_12
REMARK    5  A    between atoms: N_20  and  C_23
REMARK    6  A    between atoms: C_23  and  C_24
REMARK                            x       y       z     vdW  Elec       q    Type
REMARK                         _______ _______ _______ _____ _____    ______ ____
ROOT
ATOM      1  N   UNL     1      32.216 -13.768 -22.123  0.00  0.00    -0.244 NA
ATOM      2  N   UNL     1      32.355 -11.363 -22.158  0.00  0.00    -0.244 NA
ATOM      3  C   UNL     1      33.033 -13.793 -23.196  0.00  0.00    +0.115 C 
ATOM      4  C   UNL     1      33.157 -11.490 -23.218  0.00  0.00    +0.115 C 
ATOM      5  C   UNL     1      33.544 -12.661 -23.799  0.00  0.00    +0.100 C 
ATOM      6  C   UNL     1      31.923 -12.537 -21.662  0.00  0.00    +0.250 C 
ENDROOT
BRANCH   3   9
ATOM      7  O   UNL     1      33.354 -15.335 -24.934  0.00  0.00    -0.269 OA
ATOM      8  N   UNL     1      33.706 -16.093 -22.771  0.00  0.00    -0.296 N 
ATOM      9  C   UNL     1      33.362 -15.112 -23.710  0.00  0.00    +0.260 C 
ATOM     10  H   UNL     1      33.692 -15.850 -21.817  0.00  0.00    +0.150 HD
BRANCH   8  11
ATOM     11  C   UNL     1      34.081 -17.443 -23.125  0.00  0.00    +0.117 C 
BRANCH  11  12
ATOM     12  C   UNL     1      34.447 -18.260 -21.920  0.00  0.00    -0.003 C 
ATOM     13  C   UNL     1      33.472 -19.011 -21.276  0.00  0.00    -0.007 C 
ATOM     14  C   UNL     1      33.813 -19.771 -20.158  0.00  0.00    -0.022 C 
ATOM     15  C   UNL     1      35.759 -18.257 -21.460  0.00  0.00    -0.003 C 
ATOM     16  C   UNL     1      35.127 -19.774 -19.690  0.00  0.00    -0.004 C 
ATOM     17  C   UNL     1      36.100 -19.016 -20.342  0.00  0.00    -0.001 C 
ATOM     18  C   UNL     1      32.772 -20.580 -19.459  0.00  0.00    +0.031 C 
ENDBRANCH  11  12
ENDBRANCH   8  11
ENDBRANCH   3   9
BRANCH   4  21
ATOM     19  O   UNL     1      34.213 -10.205 -24.871  0.00  0.00    -0.269 OA
ATOM     20  N   UNL     1      33.392  -9.072 -23.020  0.00  0.00    -0.296 N 
ATOM     21  C   UNL     1      33.645 -10.206 -23.781  0.00  0.00    +0.260 C 
ATOM     22  H   UNL     1      32.929  -9.175 -22.158  0.00  0.00    +0.150 HD
BRANCH  20  23
ATOM     23  C   UNL     1      33.781  -7.751 -23.444  0.00  0.00    +0.117 C 
BRANCH  23  24
ATOM     24  C   UNL     1      32.927  -6.688 -22.840  0.00  0.00    -0.003 C 
ATOM     25  C   UNL     1      32.586  -6.752 -21.489  0.00  0.00    -0.007 C 
ATOM     26  C   UNL     1      31.787  -5.757 -20.923  0.00  0.00    -0.022 C 
ATOM     27  C   UNL     1      32.468  -5.630 -23.625  0.00  0.00    -0.003 C 
ATOM     28  C   UNL     1      31.330  -4.700 -21.709  0.00  0.00    -0.004 C 
ATOM     29  C   UNL     1      31.670  -4.636 -23.060  0.00  0.00    -0.001 C 
ATOM     30  C   UNL     1      31.423  -5.824 -19.479  0.00  0.00    +0.031 C 
ENDBRANCH  23  24
ENDBRANCH  20  23
ENDBRANCH   4  21
TORSDOF 6
ENDMDL
