MODEL 1
REMARK VINA RESULT:     -12.0      0.000      0.000
REMARK  Name = 71360
REMARK  8 active torsions:
REMARK  status: ('A' for Active; 'I' for Inactive)
REMARK    1  A    between atoms: N_1  and  C_18
REMARK    2  A    between atoms: C_2  and  C_11
REMARK    3  A    between atoms: C_18  and  C_19
REMARK    4  A    between atoms: C_19  and  C_20
REMARK    5  A    between atoms: C_20  and  O_21
REMARK    6  A    between atoms: O_21  and  C_22
REMARK    7  A    between atoms: C_23  and  O_31
REMARK    8  A    between atoms: C_27  and  C_29
REMARK                            x       y       z     vdW  Elec       q    Type
REMARK                         _______ _______ _______ _____ _____    ______ ____
ROOT
ATOM      1  N   UNL     1      34.938 -19.504 -19.789  0.00  0.00    +0.387 N 
ATOM      2  C   UNL     1      34.525 -18.070 -22.315  0.00  0.00    +0.039 C 
ATOM      3  C   UNL     1      35.577 -17.636 -21.282  0.00  0.00    -0.017 C 
ATOM      4  C   UNL     1      33.402 -18.854 -21.617  0.00  0.00    -0.017 C 
ATOM      5  C   UNL     1      36.062 -18.825 -20.448  0.00  0.00    -0.077 C 
ATOM      6  C   UNL     1      33.965 -20.000 -20.773  0.00  0.00    -0.077 C 
ATOM      7  H   UNL     1      34.465 -18.823 -19.194  0.00  0.00    -0.080 HD
ENDROOT
BRANCH   2  11
ATOM      8  F   UNL     1      32.543 -11.655 -22.695  0.00  0.00    -0.204 F 
ATOM      9  O   UNL     1      33.320 -15.862 -24.894  0.00  0.00    -0.354 OA
ATOM     10  N   UNL     1      33.781 -17.091 -24.440  0.00  0.00    -0.081 NA
ATOM     11  C   UNL     1      34.005 -16.914 -23.140  0.00  0.00    +0.100 A 
ATOM     12  C   UNL     1      33.714 -15.614 -22.704  0.00  0.00    +0.054 A 
ATOM     13  C   UNL     1      33.280 -14.982 -23.856  0.00  0.00    +0.179 A 
ATOM     14  C   UNL     1      33.754 -14.889 -21.503  0.00  0.00    +0.007 C 
ATOM     15  C   UNL     1      32.875 -13.653 -23.916  0.00  0.00    +0.070 C 
ATOM     16  C   UNL     1      33.352 -13.546 -21.527  0.00  0.00    +0.030 C 
ATOM     17  C   UNL     1      32.920 -12.941 -22.712  0.00  0.00    +0.143 C 
ENDBRANCH   2  11
BRANCH   1  18
ATOM     18  C   UNL     1      35.423 -20.602 -18.952  0.00  0.00    -0.074 C 
BRANCH  18  19
ATOM     19  C   UNL     1      34.467 -21.787 -19.028  0.00  0.00    +0.025 C 
BRANCH  19  20
ATOM     20  C   UNL     1      33.411 -21.725 -17.934  0.00  0.00    +0.203 C 
BRANCH  20  21
ATOM     21  O   UNL     1      33.837 -22.522 -16.837  0.00  0.00    -0.472 OA
BRANCH  21  22
ATOM     22  C   UNL     1      32.875 -22.905 -15.940  0.00  0.00    +0.172 C 
ATOM     23  C   UNL     1      33.239 -23.476 -14.725  0.00  0.00    +0.172 C 
ATOM     24  C   UNL     1      31.535 -22.718 -16.261  0.00  0.00    +0.040 C 
ATOM     25  C   UNL     1      32.250 -23.863 -13.820  0.00  0.00    +0.043 C 
ATOM     26  C   UNL     1      30.546 -23.105 -15.356  0.00  0.00    +0.006 C 
ATOM     27  C   UNL     1      30.904 -23.678 -14.136  0.00  0.00    +0.038 C 
BRANCH  27  29
ATOM     28  O   UNL     1      29.984 -23.851 -11.970  0.00  0.00    -0.291 OA
ATOM     29  C   UNL     1      29.873 -24.080 -13.192  0.00  0.00    +0.174 C 
ATOM     30  C   UNL     1      28.621 -24.799 -13.682  0.00  0.00    +0.077 C 
ENDBRANCH  27  29
BRANCH  23  31
ATOM     31  O   UNL     1      34.550 -23.661 -14.404  0.00  0.00    -0.468 OA
ATOM     32  C   UNL     1      34.963 -24.993 -14.107  0.00  0.00    +0.253 C 
ENDBRANCH  23  31
ENDBRANCH  21  22
ENDBRANCH  20  21
ENDBRANCH  19  20
ENDBRANCH  18  19
ENDBRANCH   1  18
TORSDOF 8
ENDMDL
MODEL 2
REMARK VINA RESULT:     -11.5      4.585     12.609
REMARK  Name = 71360
REMARK  8 active torsions:
REMARK  status: ('A' for Active; 'I' for Inactive)
REMARK    1  A    between atoms: N_1  and  C_18
REMARK    2  A    between atoms: C_2  and  C_11
REMARK    3  A    between atoms: C_18  and  C_19
REMARK    4  A    between atoms: C_19  and  C_20
REMARK    5  A    between atoms: C_20  and  O_21
REMARK    6  A    between atoms: O_21  and  C_22
REMARK    7  A    between atoms: C_23  and  O_31
REMARK    8  A    between atoms: C_27  and  C_29
REMARK                            x       y       z     vdW  Elec       q    Type
REMARK                         _______ _______ _______ _____ _____    ______ ____
ROOT
ATOM      1  N   UNL     1      33.210 -15.731 -23.384  0.00  0.00    +0.387 N 
ATOM      2  C   UNL     1      34.876 -17.528 -21.772  0.00  0.00    +0.039 C 
ATOM      3  C   UNL     1      34.116 -18.005 -23.019  0.00  0.00    -0.017 C 
ATOM      4  C   UNL     1      34.180 -16.292 -21.178  0.00  0.00    -0.017 C 
ATOM      5  C   UNL     1      33.907 -16.860 -24.015  0.00  0.00    -0.077 C 
ATOM      6  C   UNL     1      33.970 -15.210 -22.239  0.00  0.00    -0.077 C 
ATOM      7  H   UNL     1      32.312 -16.068 -23.038  0.00  0.00    -0.080 HD
ENDROOT
BRANCH   2  11
ATOM      8  F   UNL     1      32.294 -22.390 -17.909  0.00  0.00    -0.204 F 
ATOM      9  O   UNL     1      36.147 -19.932 -19.408  0.00  0.00    -0.354 OA
ATOM     10  N   UNL     1      36.305 -18.887 -20.309  0.00  0.00    -0.081 NA
ATOM     11  C   UNL     1      35.078 -18.629 -20.755  0.00  0.00    +0.100 A 
ATOM     12  C   UNL     1      34.102 -19.462 -20.189  0.00  0.00    +0.054 A 
ATOM     13  C   UNL     1      34.831 -20.273 -19.337  0.00  0.00    +0.179 A 
ATOM     14  C   UNL     1      32.713 -19.640 -20.277  0.00  0.00    +0.007 C 
ATOM     15  C   UNL     1      34.280 -21.276 -18.546  0.00  0.00    +0.070 C 
ATOM     16  C   UNL     1      32.123 -20.642 -19.492  0.00  0.00    +0.030 C 
ATOM     17  C   UNL     1      32.894 -21.443 -18.643  0.00  0.00    +0.143 C 
ENDBRANCH   2  11
BRANCH   1  18
ATOM     18  C   UNL     1      32.968 -14.669 -24.362  0.00  0.00    -0.074 C 
BRANCH  18  19
ATOM     19  C   UNL     1      32.315 -13.468 -23.688  0.00  0.00    +0.025 C 
BRANCH  19  20
ATOM     20  C   UNL     1      32.985 -12.164 -24.099  0.00  0.00    +0.203 C 
BRANCH  20  21
ATOM     21  O   UNL     1      33.108 -11.330 -22.955  0.00  0.00    -0.472 OA
BRANCH  21  22
ATOM     22  C   UNL     1      33.132  -9.977 -23.175  0.00  0.00    +0.172 C 
ATOM     23  C   UNL     1      32.246  -9.143 -22.502  0.00  0.00    +0.172 C 
ATOM     24  C   UNL     1      34.050  -9.453 -24.079  0.00  0.00    +0.040 C 
ATOM     25  C   UNL     1      32.279  -7.768 -22.734  0.00  0.00    +0.043 C 
ATOM     26  C   UNL     1      34.083  -8.078 -24.311  0.00  0.00    +0.006 C 
ATOM     27  C   UNL     1      33.198  -7.236 -23.639  0.00  0.00    +0.038 C 
BRANCH  27  29
ATOM     28  O   UNL     1      32.488  -5.018 -23.259  0.00  0.00    -0.291 OA
ATOM     29  C   UNL     1      33.233  -5.801 -23.881  0.00  0.00    +0.174 C 
ATOM     30  C   UNL     1      34.194  -5.220 -24.913  0.00  0.00    +0.077 C 
ENDBRANCH  27  29
BRANCH  23  31
ATOM     31  O   UNL     1      31.345  -9.651 -21.615  0.00  0.00    -0.468 OA
ATOM     32  C   UNL     1      30.954  -8.807 -20.534  0.00  0.00    +0.253 C 
ENDBRANCH  23  31
ENDBRANCH  21  22
ENDBRANCH  20  21
ENDBRANCH  19  20
ENDBRANCH  18  19
ENDBRANCH   1  18
TORSDOF 8
ENDMDL
MODEL 3
REMARK VINA RESULT:     -11.4      4.380     12.342
REMARK  Name = 71360
REMARK  8 active torsions:
REMARK  status: ('A' for Active; 'I' for Inactive)
REMARK    1  A    between atoms: N_1  and  C_18
REMARK    2  A    between atoms: C_2  and  C_11
REMARK    3  A    between atoms: C_18  and  C_19
REMARK    4  A    between atoms: C_19  and  C_20
REMARK    5  A    between atoms: C_20  and  O_21
REMARK    6  A    between atoms: O_21  and  C_22
REMARK    7  A    between atoms: C_23  and  O_31
REMARK    8  A    between atoms: C_27  and  C_29
REMARK                            x       y       z     vdW  Elec       q    Type
REMARK                         _______ _______ _______ _____ _____    ______ ____
ROOT
ATOM      1  N   UNL     1      33.963 -15.913 -23.787  0.00  0.00    +0.387 N 
ATOM      2  C   UNL     1      33.825 -17.823 -21.565  0.00  0.00    +0.039 C 
ATOM      3  C   UNL     1      34.429 -16.419 -21.409  0.00  0.00    -0.017 C 
ATOM      4  C   UNL     1      33.914 -18.270 -23.033  0.00  0.00    -0.017 C 
ATOM      5  C   UNL     1      33.812 -15.434 -22.406  0.00  0.00    -0.077 C 
ATOM      6  C   UNL     1      33.315 -17.219 -23.971  0.00  0.00    -0.077 C 
ATOM      7  H   UNL     1      34.960 -16.028 -23.973  0.00  0.00    -0.080 HD
ENDROOT
BRANCH   2  11
ATOM      8  F   UNL     1      33.043 -22.985 -17.325  0.00  0.00    -0.204 F 
ATOM      9  O   UNL     1      35.971 -19.845 -19.494  0.00  0.00    -0.354 OA
ATOM     10  N   UNL     1      35.745 -18.818 -20.402  0.00  0.00    -0.081 NA
ATOM     11  C   UNL     1      34.431 -18.829 -20.611  0.00  0.00    +0.100 A 
ATOM     12  C   UNL     1      33.765 -19.824 -19.880  0.00  0.00    +0.054 A 
ATOM     13  C   UNL     1      34.788 -20.444 -19.184  0.00  0.00    +0.179 A 
ATOM     14  C   UNL     1      32.450 -20.282 -19.710  0.00  0.00    +0.007 C 
ATOM     15  C   UNL     1      34.608 -21.512 -18.311  0.00  0.00    +0.070 C 
ATOM     16  C   UNL     1      32.232 -21.357 -18.837  0.00  0.00    +0.030 C 
ATOM     17  C   UNL     1      33.292 -21.959 -18.151  0.00  0.00    +0.143 C 
ENDBRANCH   2  11
BRANCH   1  18
ATOM     18  C   UNL     1      33.419 -14.935 -24.730  0.00  0.00    -0.074 C 
BRANCH  18  19
ATOM     19  C   UNL     1      32.454 -13.994 -24.017  0.00  0.00    +0.025 C 
BRANCH  19  20
ATOM     20  C   UNL     1      32.708 -12.541 -24.396  0.00  0.00    +0.203 C 
BRANCH  20  21
ATOM     21  O   UNL     1      33.317 -11.879 -23.295  0.00  0.00    -0.472 OA
BRANCH  21  22
ATOM     22  C   UNL     1      33.286 -10.509 -23.303  0.00  0.00    +0.172 C 
ATOM     23  C   UNL     1      32.386  -9.825 -22.493  0.00  0.00    +0.172 C 
ATOM     24  C   UNL     1      34.162  -9.816 -24.131  0.00  0.00    +0.040 C 
ATOM     25  C   UNL     1      32.364  -8.430 -22.510  0.00  0.00    +0.043 C 
ATOM     26  C   UNL     1      34.140  -8.421 -24.148  0.00  0.00    +0.006 C 
ATOM     27  C   UNL     1      33.241  -7.728 -23.338  0.00  0.00    +0.038 C 
BRANCH  27  29
ATOM     28  O   UNL     1      32.507  -5.625 -22.562  0.00  0.00    -0.291 OA
ATOM     29  C   UNL     1      33.218  -6.274 -23.355  0.00  0.00    +0.174 C 
ATOM     30  C   UNL     1      34.073  -5.504 -24.356  0.00  0.00    +0.077 C 
ENDBRANCH  27  29
BRANCH  23  31
ATOM     31  O   UNL     1      31.525 -10.498 -21.680  0.00  0.00    -0.468 OA
ATOM     32  C   UNL     1      30.851  -9.739 -20.679  0.00  0.00    +0.253 C 
ENDBRANCH  23  31
ENDBRANCH  21  22
ENDBRANCH  20  21
ENDBRANCH  19  20
ENDBRANCH  18  19
ENDBRANCH   1  18
TORSDOF 8
ENDMDL
MODEL 4
REMARK VINA RESULT:     -11.3      1.504      2.610
REMARK  Name = 71360
REMARK  8 active torsions:
REMARK  status: ('A' for Active; 'I' for Inactive)
REMARK    1  A    between atoms: N_1  and  C_18
REMARK    2  A    between atoms: C_2  and  C_11
REMARK    3  A    between atoms: C_18  and  C_19
REMARK    4  A    between atoms: C_19  and  C_20
REMARK    5  A    between atoms: C_20  and  O_21
REMARK    6  A    between atoms: O_21  and  C_22
REMARK    7  A    between atoms: C_23  and  O_31
REMARK    8  A    between atoms: C_27  and  C_29
REMARK                            x       y       z     vdW  Elec       q    Type
REMARK                         _______ _______ _______ _____ _____    ______ ____
ROOT
ATOM      1  N   UNL     1      34.874 -19.747 -19.574  0.00  0.00    +0.387 N 
ATOM      2  C   UNL     1      34.516 -18.343 -22.125  0.00  0.00    +0.039 C 
ATOM      3  C   UNL     1      35.625 -17.973 -21.127  0.00  0.00    -0.017 C 
ATOM      4  C   UNL     1      33.350 -19.016 -21.382  0.00  0.00    -0.017 C 
ATOM      5  C   UNL     1      36.032 -19.178 -20.276  0.00  0.00    -0.077 C 
ATOM      6  C   UNL     1      33.839 -20.184 -20.523  0.00  0.00    -0.077 C 
ATOM      7  H   UNL     1      34.472 -19.017 -18.986  0.00  0.00    -0.080 HD
ENDROOT
BRANCH   2  11
ATOM      8  F   UNL     1      32.757 -11.866 -22.558  0.00  0.00    -0.204 F 
ATOM      9  O   UNL     1      33.500 -16.086 -24.744  0.00  0.00    -0.354 OA
ATOM     10  N   UNL     1      33.901 -17.331 -24.276  0.00  0.00    -0.081 NA
ATOM     11  C   UNL     1      34.071 -17.167 -22.966  0.00  0.00    +0.100 A 
ATOM     12  C   UNL     1      33.801 -15.860 -22.536  0.00  0.00    +0.054 A 
ATOM     13  C   UNL     1      33.440 -15.210 -23.703  0.00  0.00    +0.179 A 
ATOM     14  C   UNL     1      33.809 -15.142 -21.330  0.00  0.00    +0.007 C 
ATOM     15  C   UNL     1      33.080 -13.868 -23.774  0.00  0.00    +0.070 C 
ATOM     16  C   UNL     1      33.451 -13.787 -21.365  0.00  0.00    +0.030 C 
ATOM     17  C   UNL     1      33.093 -13.163 -22.565  0.00  0.00    +0.143 C 
ENDBRANCH   2  11
BRANCH   1  18
ATOM     18  C   UNL     1      35.289 -20.862 -18.722  0.00  0.00    -0.074 C 
BRANCH  18  19
ATOM     19  C   UNL     1      34.148 -21.862 -18.566  0.00  0.00    +0.025 C 
BRANCH  19  20
ATOM     20  C   UNL     1      33.518 -21.780 -17.183  0.00  0.00    +0.203 C 
BRANCH  20  21
ATOM     21  O   UNL     1      33.390 -23.093 -16.657  0.00  0.00    -0.472 OA
BRANCH  21  22
ATOM     22  C   UNL     1      33.724 -23.267 -15.339  0.00  0.00    +0.172 C 
ATOM     23  C   UNL     1      32.733 -23.506 -14.392  0.00  0.00    +0.172 C 
ATOM     24  C   UNL     1      35.060 -23.200 -14.963  0.00  0.00    +0.040 C 
ATOM     25  C   UNL     1      33.084 -23.682 -13.054  0.00  0.00    +0.043 C 
ATOM     26  C   UNL     1      35.412 -23.375 -13.624  0.00  0.00    +0.006 C 
ATOM     27  C   UNL     1      34.424 -23.615 -12.670  0.00  0.00    +0.038 C 
BRANCH  27  29
ATOM     28  O   UNL     1      34.239 -24.664 -10.564  0.00  0.00    -0.291 OA
ATOM     29  C   UNL     1      34.791 -23.798 -11.274  0.00  0.00    +0.174 C 
ATOM     30  C   UNL     1      35.870 -22.926 -10.642  0.00  0.00    +0.077 C 
ENDBRANCH  27  29
BRANCH  23  31
ATOM     31  O   UNL     1      31.422 -23.574 -14.755  0.00  0.00    -0.468 OA
ATOM     32  C   UNL     1      30.556 -22.561 -14.248  0.00  0.00    +0.253 C 
ENDBRANCH  23  31
ENDBRANCH  21  22
ENDBRANCH  20  21
ENDBRANCH  19  20
ENDBRANCH  18  19
ENDBRANCH   1  18
TORSDOF 8
ENDMDL
MODEL 5
REMARK VINA RESULT:     -11.3      3.557     10.709
REMARK  Name = 71360
REMARK  8 active torsions:
REMARK  status: ('A' for Active; 'I' for Inactive)
REMARK    1  A    between atoms: N_1  and  C_18
REMARK    2  A    between atoms: C_2  and  C_11
REMARK    3  A    between atoms: C_18  and  C_19
REMARK    4  A    between atoms: C_19  and  C_20
REMARK    5  A    between atoms: C_20  and  O_21
REMARK    6  A    between atoms: O_21  and  C_22
REMARK    7  A    between atoms: C_23  and  O_31
REMARK    8  A    between atoms: C_27  and  C_29
REMARK                            x       y       z     vdW  Elec       q    Type
REMARK                         _______ _______ _______ _____ _____    ______ ____
ROOT
ATOM      1  N   UNL     1      34.358 -19.450 -19.964  0.00  0.00    +0.387 N 
ATOM      2  C   UNL     1      33.195 -21.672 -18.443  0.00  0.00    +0.039 C 
ATOM      3  C   UNL     1      32.341 -20.535 -19.026  0.00  0.00    -0.017 C 
ATOM      4  C   UNL     1      34.634 -21.180 -18.216  0.00  0.00    -0.017 C 
ATOM      5  C   UNL     1      33.001 -19.924 -20.265  0.00  0.00    -0.077 C 
ATOM      6  C   UNL     1      35.210 -20.547 -19.484  0.00  0.00    -0.077 C 
ATOM      7  H   UNL     1      34.290 -18.756 -19.219  0.00  0.00    -0.080 HD
ENDROOT
BRANCH   2  11
ATOM      8  F   UNL     1      33.965 -24.283 -12.293  0.00  0.00    -0.204 F 
ATOM      9  O   UNL     1      31.035 -23.021 -15.893  0.00  0.00    -0.354 OA
ATOM     10  N   UNL     1      31.266 -22.451 -17.138  0.00  0.00    -0.081 NA
ATOM     11  C   UNL     1      32.584 -22.283 -17.201  0.00  0.00    +0.100 A 
ATOM     12  C   UNL     1      33.249 -22.717 -16.045  0.00  0.00    +0.054 A 
ATOM     13  C   UNL     1      32.221 -23.180 -15.242  0.00  0.00    +0.179 A 
ATOM     14  C   UNL     1      34.568 -22.785 -15.570  0.00  0.00    +0.007 C 
ATOM     15  C   UNL     1      32.399 -23.716 -13.971  0.00  0.00    +0.070 C 
ATOM     16  C   UNL     1      34.784 -23.321 -14.292  0.00  0.00    +0.030 C 
ATOM     17  C   UNL     1      33.719 -23.778 -13.509  0.00  0.00    +0.143 C 
ENDBRANCH   2  11
BRANCH   1  18
ATOM     18  C   UNL     1      34.952 -18.818 -21.142  0.00  0.00    -0.074 C 
BRANCH  18  19
ATOM     19  C   UNL     1      34.149 -19.165 -22.390  0.00  0.00    +0.025 C 
BRANCH  19  20
ATOM     20  C   UNL     1      33.777 -17.918 -23.180  0.00  0.00    +0.203 C 
BRANCH  20  21
ATOM     21  O   UNL     1      34.568 -16.830 -22.723  0.00  0.00    -0.472 OA
BRANCH  21  22
ATOM     22  C   UNL     1      33.900 -15.695 -22.345  0.00  0.00    +0.172 C 
ATOM     23  C   UNL     1      33.314 -14.876 -23.304  0.00  0.00    +0.172 C 
ATOM     24  C   UNL     1      33.819 -15.374 -20.994  0.00  0.00    +0.040 C 
ATOM     25  C   UNL     1      32.637 -13.723 -22.906  0.00  0.00    +0.043 C 
ATOM     26  C   UNL     1      33.142 -14.221 -20.597  0.00  0.00    +0.006 C 
ATOM     27  C   UNL     1      32.551 -13.395 -21.553  0.00  0.00    +0.038 C 
BRANCH  27  29
ATOM     28  O   UNL     1      31.917 -11.136 -21.798  0.00  0.00    -0.291 OA
ATOM     29  C   UNL     1      31.845 -12.193 -21.139  0.00  0.00    +0.174 C 
ATOM     30  C   UNL     1      30.991 -12.200 -19.875  0.00  0.00    +0.077 C 
ENDBRANCH  27  29
BRANCH  23  31
ATOM     31  O   UNL     1      33.390 -15.185 -24.628  0.00  0.00    -0.468 OA
ATOM     32  C   UNL     1      32.468 -14.534 -25.500  0.00  0.00    +0.253 C 
ENDBRANCH  23  31
ENDBRANCH  21  22
ENDBRANCH  20  21
ENDBRANCH  19  20
ENDBRANCH  18  19
ENDBRANCH   1  18
TORSDOF 8
ENDMDL
MODEL 6
REMARK VINA RESULT:     -11.2      5.033     12.423
REMARK  Name = 71360
REMARK  8 active torsions:
REMARK  status: ('A' for Active; 'I' for Inactive)
REMARK    1  A    between atoms: N_1  and  C_18
REMARK    2  A    between atoms: C_2  and  C_11
REMARK    3  A    between atoms: C_18  and  C_19
REMARK    4  A    between atoms: C_19  and  C_20
REMARK    5  A    between atoms: C_20  and  O_21
REMARK    6  A    between atoms: O_21  and  C_22
REMARK    7  A    between atoms: C_23  and  O_31
REMARK    8  A    between atoms: C_27  and  C_29
REMARK                            x       y       z     vdW  Elec       q    Type
REMARK                         _______ _______ _______ _____ _____    ______ ____
ROOT
ATOM      1  N   UNL     1      33.763 -14.443 -23.286  0.00  0.00    +0.387 N 
ATOM      2  C   UNL     1      33.899 -16.952 -21.772  0.00  0.00    +0.039 C 
ATOM      3  C   UNL     1      34.036 -15.576 -21.102  0.00  0.00    -0.017 C 
ATOM      4  C   UNL     1      34.311 -16.856 -23.250  0.00  0.00    -0.017 C 
ATOM      5  C   UNL     1      33.295 -14.495 -21.895  0.00  0.00    -0.077 C 
ATOM      6  C   UNL     1      33.559 -15.731 -23.965  0.00  0.00    -0.077 C 
ATOM      7  H   UNL     1      34.765 -14.250 -23.274  0.00  0.00    -0.080 HD
ENDROOT
BRANCH   2  11
ATOM      8  F   UNL     1      33.765 -22.571 -18.079  0.00  0.00    -0.204 F 
ATOM      9  O   UNL     1      36.332 -19.131 -20.251  0.00  0.00    -0.354 OA
ATOM     10  N   UNL     1      35.971 -18.017 -20.997  0.00  0.00    -0.081 NA
ATOM     11  C   UNL     1      34.641 -18.040 -21.028  0.00  0.00    +0.100 A 
ATOM     12  C   UNL     1      34.094 -19.128 -20.333  0.00  0.00    +0.054 A 
ATOM     13  C   UNL     1      35.209 -19.793 -19.854  0.00  0.00    +0.179 A 
ATOM     14  C   UNL     1      32.819 -19.638 -20.041  0.00  0.00    +0.007 C 
ATOM     15  C   UNL     1      35.163 -20.956 -19.092  0.00  0.00    +0.070 C 
ATOM     16  C   UNL     1      32.735 -20.809 -19.274  0.00  0.00    +0.030 C 
ATOM     17  C   UNL     1      33.886 -21.454 -18.809  0.00  0.00    +0.143 C 
ENDBRANCH   2  11
BRANCH   1  18
ATOM     18  C   UNL     1      33.086 -13.369 -24.014  0.00  0.00    -0.074 C 
BRANCH  18  19
ATOM     19  C   UNL     1      32.778 -12.207 -23.076  0.00  0.00    +0.025 C 
BRANCH  19  20
ATOM     20  C   UNL     1      33.540 -10.951 -23.474  0.00  0.00    +0.203 C 
BRANCH  20  21
ATOM     21  O   UNL     1      32.607  -9.913 -23.742  0.00  0.00    -0.472 OA
BRANCH  21  22
ATOM     22  C   UNL     1      32.363  -9.024 -22.728  0.00  0.00    +0.172 C 
ATOM     23  C   UNL     1      33.045  -7.813 -22.679  0.00  0.00    +0.172 C 
ATOM     24  C   UNL     1      31.427  -9.349 -21.752  0.00  0.00    +0.040 C 
ATOM     25  C   UNL     1      32.787  -6.916 -21.641  0.00  0.00    +0.043 C 
ATOM     26  C   UNL     1      31.169  -8.453 -20.714  0.00  0.00    +0.006 C 
ATOM     27  C   UNL     1      31.850  -7.237 -20.659  0.00  0.00    +0.038 C 
BRANCH  27  29
ATOM     28  O   UNL     1      32.235  -6.329 -18.516  0.00  0.00    -0.291 OA
ATOM     29  C   UNL     1      31.581  -6.302 -19.578  0.00  0.00    +0.174 C 
ATOM     30  C   UNL     1      30.480  -5.256 -19.722  0.00  0.00    +0.077 C 
ENDBRANCH  27  29
BRANCH  23  31
ATOM     31  O   UNL     1      33.962  -7.488 -23.632  0.00  0.00    -0.468 OA
ATOM     32  C   UNL     1      34.123  -6.104 -23.932  0.00  0.00    +0.253 C 
ENDBRANCH  23  31
ENDBRANCH  21  22
ENDBRANCH  20  21
ENDBRANCH  19  20
ENDBRANCH  18  19
ENDBRANCH   1  18
TORSDOF 8
ENDMDL
MODEL 7
REMARK VINA RESULT:     -10.9      2.735      3.245
REMARK  Name = 71360
REMARK  8 active torsions:
REMARK  status: ('A' for Active; 'I' for Inactive)
REMARK    1  A    between atoms: N_1  and  C_18
REMARK    2  A    between atoms: C_2  and  C_11
REMARK    3  A    between atoms: C_18  and  C_19
REMARK    4  A    between atoms: C_19  and  C_20
REMARK    5  A    between atoms: C_20  and  O_21
REMARK    6  A    between atoms: O_21  and  C_22
REMARK    7  A    between atoms: C_23  and  O_31
REMARK    8  A    between atoms: C_27  and  C_29
REMARK                            x       y       z     vdW  Elec       q    Type
REMARK                         _______ _______ _______ _____ _____    ______ ____
ROOT
ATOM      1  N   UNL     1      34.894 -19.955 -19.589  0.00  0.00    +0.387 N 
ATOM      2  C   UNL     1      34.546 -18.421 -22.065  0.00  0.00    +0.039 C 
ATOM      3  C   UNL     1      35.720 -18.180 -21.104  0.00  0.00    -0.017 C 
ATOM      4  C   UNL     1      33.361 -19.032 -21.299  0.00  0.00    -0.017 C 
ATOM      5  C   UNL     1      36.065 -19.449 -20.319  0.00  0.00    -0.077 C 
ATOM      6  C   UNL     1      33.791 -20.270 -20.508  0.00  0.00    -0.077 C 
ATOM      7  H   UNL     1      34.576 -19.222 -18.956  0.00  0.00    -0.080 HD
ENDROOT
BRANCH   2  11
ATOM      8  F   UNL     1      32.848 -11.914 -22.108  0.00  0.00    -0.204 F 
ATOM      9  O   UNL     1      33.713 -15.960 -24.562  0.00  0.00    -0.354 OA
ATOM     10  N   UNL     1      34.077 -17.240 -24.167  0.00  0.00    -0.081 NA
ATOM     11  C   UNL     1      34.162 -17.180 -22.840  0.00  0.00    +0.100 A 
ATOM     12  C   UNL     1      33.870 -15.907 -22.328  0.00  0.00    +0.054 A 
ATOM     13  C   UNL     1      33.589 -15.165 -23.462  0.00  0.00    +0.179 A 
ATOM     14  C   UNL     1      33.803 -15.284 -21.073  0.00  0.00    +0.007 C 
ATOM     15  C   UNL     1      33.241 -13.819 -23.452  0.00  0.00    +0.070 C 
ATOM     16  C   UNL     1      33.454 -13.927 -21.025  0.00  0.00    +0.030 C 
ATOM     17  C   UNL     1      33.178 -13.209 -22.194  0.00  0.00    +0.143 C 
ENDBRANCH   2  11
BRANCH   1  18
ATOM     18  C   UNL     1      35.254 -21.134 -18.800  0.00  0.00    -0.074 C 
BRANCH  18  19
ATOM     19  C   UNL     1      36.067 -20.724 -17.578  0.00  0.00    +0.025 C 
BRANCH  19  20
ATOM     20  C   UNL     1      35.579 -21.429 -16.320  0.00  0.00    +0.203 C 
BRANCH  20  21
ATOM     21  O   UNL     1      36.677 -22.094 -15.710  0.00  0.00    -0.472 OA
BRANCH  21  22
ATOM     22  C   UNL     1      36.418 -22.785 -14.556  0.00  0.00    +0.172 C 
ATOM     23  C   UNL     1      37.333 -23.718 -14.078  0.00  0.00    +0.172 C 
ATOM     24  C   UNL     1      35.232 -22.543 -13.872  0.00  0.00    +0.040 C 
ATOM     25  C   UNL     1      37.059 -24.416 -12.902  0.00  0.00    +0.043 C 
ATOM     26  C   UNL     1      34.958 -23.241 -12.695  0.00  0.00    +0.006 C 
ATOM     27  C   UNL     1      35.870 -24.177 -12.211  0.00  0.00    +0.038 C 
BRANCH  27  29
ATOM     28  O   UNL     1      35.984 -26.074 -10.812  0.00  0.00    -0.291 OA
ATOM     29  C   UNL     1      35.584 -24.905 -10.984  0.00  0.00    +0.174 C 
ATOM     30  C   UNL     1      34.781 -24.244  -9.869  0.00  0.00    +0.077 C 
ENDBRANCH  27  29
BRANCH  23  31
ATOM     31  O   UNL     1      38.497 -23.959 -14.744  0.00  0.00    -0.468 OA
ATOM     32  C   UNL     1      39.314 -25.021 -14.257  0.00  0.00    +0.253 C 
ENDBRANCH  23  31
ENDBRANCH  21  22
ENDBRANCH  20  21
ENDBRANCH  19  20
ENDBRANCH  18  19
ENDBRANCH   1  18
TORSDOF 8
ENDMDL
MODEL 8
REMARK VINA RESULT:     -10.9      3.674     11.125
REMARK  Name = 71360
REMARK  8 active torsions:
REMARK  status: ('A' for Active; 'I' for Inactive)
REMARK    1  A    between atoms: N_1  and  C_18
REMARK    2  A    between atoms: C_2  and  C_11
REMARK    3  A    between atoms: C_18  and  C_19
REMARK    4  A    between atoms: C_19  and  C_20
REMARK    5  A    between atoms: C_20  and  O_21
REMARK    6  A    between atoms: O_21  and  C_22
REMARK    7  A    between atoms: C_23  and  O_31
REMARK    8  A    between atoms: C_27  and  C_29
REMARK                            x       y       z     vdW  Elec       q    Type
REMARK                         _______ _______ _______ _____ _____    ______ ____
ROOT
ATOM      1  N   UNL     1      34.527 -21.363 -19.193  0.00  0.00    +0.387 N 
ATOM      2  C   UNL     1      33.645 -22.025 -16.474  0.00  0.00    +0.039 C 
ATOM      3  C   UNL     1      35.127 -22.001 -16.878  0.00  0.00    -0.017 C 
ATOM      4  C   UNL     1      32.772 -22.287 -17.712  0.00  0.00    -0.017 C 
ATOM      5  C   UNL     1      35.372 -21.032 -18.038  0.00  0.00    -0.077 C 
ATOM      6  C   UNL     1      33.101 -21.307 -18.841  0.00  0.00    -0.077 C 
ATOM      7  H   UNL     1      34.743 -22.319 -19.477  0.00  0.00    -0.080 HD
ENDROOT
BRANCH   2  11
ATOM      8  F   UNL     1      29.398 -24.469 -11.868  0.00  0.00    -0.204 F 
ATOM      9  O   UNL     1      33.744 -24.571 -13.927  0.00  0.00    -0.354 OA
ATOM     10  N   UNL     1      34.314 -23.838 -14.959  0.00  0.00    -0.081 NA
ATOM     11  C   UNL     1      33.362 -22.992 -15.346  0.00  0.00    +0.100 A 
ATOM     12  C   UNL     1      32.174 -23.130 -14.614  0.00  0.00    +0.054 A 
ATOM     13  C   UNL     1      32.466 -24.147 -13.722  0.00  0.00    +0.179 A 
ATOM     14  C   UNL     1      30.901 -22.539 -14.581  0.00  0.00    +0.007 C 
ATOM     15  C   UNL     1      31.574 -24.641 -12.776  0.00  0.00    +0.070 C 
ATOM     16  C   UNL     1      29.976 -23.012 -13.639  0.00  0.00    +0.030 C 
ATOM     17  C   UNL     1      30.309 -24.044 -12.754  0.00  0.00    +0.143 C 
ENDBRANCH   2  11
BRANCH   1  18
ATOM     18  C   UNL     1      34.813 -20.464 -20.311  0.00  0.00    -0.074 C 
BRANCH  18  19
ATOM     19  C   UNL     1      35.637 -19.273 -19.834  0.00  0.00    +0.025 C 
BRANCH  19  20
ATOM     20  C   UNL     1      35.788 -18.224 -20.927  0.00  0.00    +0.203 C 
BRANCH  20  21
ATOM     21  O   UNL     1      34.911 -17.141 -20.650  0.00  0.00    -0.472 OA
BRANCH  21  22
ATOM     22  C   UNL     1      34.340 -16.516 -21.727  0.00  0.00    +0.172 C 
ATOM     23  C   UNL     1      33.752 -15.264 -21.579  0.00  0.00    +0.172 C 
ATOM     24  C   UNL     1      34.355 -17.149 -22.965  0.00  0.00    +0.040 C 
ATOM     25  C   UNL     1      33.173 -14.638 -22.683  0.00  0.00    +0.043 C 
ATOM     26  C   UNL     1      33.777 -16.522 -24.070  0.00  0.00    +0.006 C 
ATOM     27  C   UNL     1      33.186 -15.267 -23.928  0.00  0.00    +0.038 C 
BRANCH  27  29
ATOM     28  O   UNL     1      32.030 -15.270 -25.985  0.00  0.00    -0.291 OA
ATOM     29  C   UNL     1      32.583 -14.613 -25.080  0.00  0.00    +0.174 C 
ATOM     30  C   UNL     1      32.616 -13.094 -25.205  0.00  0.00    +0.077 C 
ENDBRANCH  27  29
BRANCH  23  31
ATOM     31  O   UNL     1      33.734 -14.639 -20.369  0.00  0.00    -0.468 OA
ATOM     32  C   UNL     1      32.829 -13.548 -20.216  0.00  0.00    +0.253 C 
ENDBRANCH  23  31
ENDBRANCH  21  22
ENDBRANCH  20  21
ENDBRANCH  19  20
ENDBRANCH  18  19
ENDBRANCH   1  18
TORSDOF 8
ENDMDL
MODEL 9
REMARK VINA RESULT:     -10.8      1.575      2.395
REMARK  Name = 71360
REMARK  8 active torsions:
REMARK  status: ('A' for Active; 'I' for Inactive)
REMARK    1  A    between atoms: N_1  and  C_18
REMARK    2  A    between atoms: C_2  and  C_11
REMARK    3  A    between atoms: C_18  and  C_19
REMARK    4  A    between atoms: C_19  and  C_20
REMARK    5  A    between atoms: C_20  and  O_21
REMARK    6  A    between atoms: O_21  and  C_22
REMARK    7  A    between atoms: C_23  and  O_31
REMARK    8  A    between atoms: C_27  and  C_29
REMARK                            x       y       z     vdW  Elec       q    Type
REMARK                         _______ _______ _______ _____ _____    ______ ____
ROOT
ATOM      1  N   UNL     1      34.654 -18.438 -21.560  0.00  0.00    +0.387 N 
ATOM      2  C   UNL     1      33.130 -16.353 -22.952  0.00  0.00    +0.039 C 
ATOM      3  C   UNL     1      33.353 -17.751 -23.550  0.00  0.00    -0.017 C 
ATOM      4  C   UNL     1      34.254 -16.027 -21.954  0.00  0.00    -0.017 C 
ATOM      5  C   UNL     1      33.546 -18.801 -22.453  0.00  0.00    -0.077 C 
ATOM      6  C   UNL     1      34.413 -17.139 -20.914  0.00  0.00    -0.077 C 
ATOM      7  H   UNL     1      35.500 -18.356 -22.124  0.00  0.00    -0.080 HD
ENDROOT
BRANCH   2  11
ATOM      8  F   UNL     1      32.990  -9.845 -24.642  0.00  0.00    -0.204 F 
ATOM      9  O   UNL     1      32.619 -14.453 -25.971  0.00  0.00    -0.354 OA
ATOM     10  N   UNL     1      32.718 -15.647 -25.267  0.00  0.00    -0.081 NA
ATOM     11  C   UNL     1      32.961 -15.285 -24.010  0.00  0.00    +0.100 A 
ATOM     12  C   UNL     1      33.030 -13.895 -23.841  0.00  0.00    +0.054 A 
ATOM     13  C   UNL     1      32.805 -13.409 -25.117  0.00  0.00    +0.179 A 
ATOM     14  C   UNL     1      33.248 -12.986 -22.794  0.00  0.00    +0.007 C 
ATOM     15  C   UNL     1      32.781 -12.058 -25.449  0.00  0.00    +0.070 C 
ATOM     16  C   UNL     1      33.230 -11.616 -23.093  0.00  0.00    +0.030 C 
ATOM     17  C   UNL     1      33.000 -11.162 -24.396  0.00  0.00    +0.143 C 
ENDBRANCH   2  11
BRANCH   1  18
ATOM     18  C   UNL     1      34.861 -19.478 -20.552  0.00  0.00    -0.074 C 
BRANCH  18  19
ATOM     19  C   UNL     1      33.560 -19.763 -19.811  0.00  0.00    +0.025 C 
BRANCH  19  20
ATOM     20  C   UNL     1      33.385 -21.251 -19.539  0.00  0.00    +0.203 C 
BRANCH  20  21
ATOM     21  O   UNL     1      34.234 -21.625 -18.463  0.00  0.00    -0.472 OA
BRANCH  21  22
ATOM     22  C   UNL     1      33.625 -22.099 -17.330  0.00  0.00    +0.172 C 
ATOM     23  C   UNL     1      34.385 -22.430 -16.213  0.00  0.00    +0.172 C 
ATOM     24  C   UNL     1      32.243 -22.244 -17.314  0.00  0.00    +0.040 C 
ATOM     25  C   UNL     1      33.754 -22.912 -15.066  0.00  0.00    +0.043 C 
ATOM     26  C   UNL     1      31.611 -22.726 -16.167  0.00  0.00    +0.006 C 
ATOM     27  C   UNL     1      32.367 -23.060 -15.043  0.00  0.00    +0.038 C 
BRANCH  27  29
ATOM     28  O   UNL     1      32.255 -24.407 -13.110  0.00  0.00    -0.291 OA
ATOM     29  C   UNL     1      31.709 -23.562 -13.847  0.00  0.00    +0.174 C 
ATOM     30  C   UNL     1      30.321 -23.059 -13.466  0.00  0.00    +0.077 C 
ENDBRANCH  27  29
BRANCH  23  31
ATOM     31  O   UNL     1      35.740 -22.289 -16.223  0.00  0.00    -0.468 OA
ATOM     32  C   UNL     1      36.262 -21.017 -15.847  0.00  0.00    +0.253 C 
ENDBRANCH  23  31
ENDBRANCH  21  22
ENDBRANCH  20  21
ENDBRANCH  19  20
ENDBRANCH  18  19
ENDBRANCH   1  18
TORSDOF 8
ENDMDL
