MODEL 1
REMARK VINA RESULT:     -13.5      0.000      0.000
REMARK  Name = 4887
REMARK  9 active torsions:
REMARK  status: ('A' for Active; 'I' for Inactive)
REMARK    1  A    between atoms: N_2  and  C_8
REMARK    2  A    between atoms: C_3  and  C_23
REMARK    3  A    between atoms: C_14  and  C_20
REMARK    4  A    between atoms: C_22  and  O_28
REMARK    5  A    between atoms: O_28  and  C_29
REMARK    6  A    between atoms: C_29  and  C_30
REMARK    7  A    between atoms: C_30  and  C_31
REMARK    8  A    between atoms: C_31  and  C_32
REMARK    9  A    between atoms: C_32  and  C_33
REMARK                            x       y       z     vdW  Elec       q    Type
REMARK                         _______ _______ _______ _____ _____    ______ ____
ROOT
ATOM      1  O   UNL     1      32.715 -23.746 -17.725  0.00  0.00    -0.270 OA
ATOM      2  N   UNL     1      33.131 -22.151 -16.049  0.00  0.00    -0.278 N 
ATOM      3  C   UNL     1      32.960 -22.600 -17.364  0.00  0.00    +0.250 C 
ATOM      4  H   UNL     1      33.323 -21.191 -15.942  0.00  0.00    +0.155 HD
ENDROOT
BRANCH   2   8
ATOM      5  O   UNL     1      30.723 -23.088 -15.128  0.00  0.00    -0.442 OA
ATOM      6  O   UNL     1      30.394 -25.280 -11.712  0.00  0.00    -0.286 OA
ATOM      7  C   UNL     1      31.844 -23.381 -14.393  0.00  0.00    +0.163 C 
ATOM      8  C   UNL     1      33.063 -22.899 -14.870  0.00  0.00    +0.086 C 
ATOM      9  C   UNL     1      31.803 -24.124 -13.215  0.00  0.00    +0.075 C 
ATOM     10  C   UNL     1      34.238 -23.163 -14.166  0.00  0.00    +0.018 C 
ATOM     11  C   UNL     1      32.977 -24.392 -12.507  0.00  0.00    +0.006 C 
ATOM     12  C   UNL     1      30.505 -24.619 -12.736  0.00  0.00    +0.202 C 
ATOM     13  C   UNL     1      34.195 -23.909 -12.987  0.00  0.00    +0.002 C 
ATOM     14  C   UNL     1      29.490 -23.550 -14.682  0.00  0.00    +0.213 C 
ATOM     15  C   UNL     1      29.331 -24.276 -13.563  0.00  0.00    +0.090 C 
BRANCH  14  20
ATOM     16  N   UNL     1      28.153 -21.944 -16.023  0.00  0.00    -0.107 NA
ATOM     17  N   UNL     1      27.503 -24.113 -15.954  0.00  0.00    -0.084 NA
ATOM     18  N   UNL     1      27.051 -22.207 -16.740  0.00  0.00    -0.140 N 
ATOM     19  N   UNL     1      26.630 -23.479 -16.727  0.00  0.00    -0.022 NA
ATOM     20  C   UNL     1      28.400 -23.168 -15.549  0.00  0.00    +0.109 C 
ATOM     21  H   UNL     1      26.579 -21.508 -17.245  0.00  0.00    +0.197 HD
ENDBRANCH  14  20
ENDBRANCH   2   8
BRANCH   3  23
ATOM     22  C   UNL     1      33.421 -19.615 -20.391  0.00  0.00    +0.139 C 
ATOM     23  C   UNL     1      33.121 -21.562 -18.416  0.00  0.00    +0.054 C 
ATOM     24  C   UNL     1      32.145 -19.988 -19.967  0.00  0.00    +0.037 C 
ATOM     25  C   UNL     1      34.547 -20.216 -19.827  0.00  0.00    +0.037 C 
ATOM     26  C   UNL     1      31.995 -20.962 -18.980  0.00  0.00    +0.008 C 
ATOM     27  C   UNL     1      34.397 -21.190 -18.840  0.00  0.00    +0.008 C 
BRANCH  22  28
ATOM     28  O   UNL     1      33.567 -18.664 -21.352  0.00  0.00    -0.475 OA
BRANCH  28  29
ATOM     29  C   UNL     1      34.490 -18.941 -22.405  0.00  0.00    +0.205 C 
BRANCH  29  30
ATOM     30  C   UNL     1      33.733 -18.971 -23.726  0.00  0.00    +0.048 C 
BRANCH  30  31
ATOM     31  C   UNL     1      33.014 -17.650 -23.993  0.00  0.00    +0.009 C 
BRANCH  31  32
ATOM     32  C   UNL     1      33.997 -16.477 -24.008  0.00  0.00    +0.026 C 
BRANCH  32  33
ATOM     33  C   UNL     1      33.529 -15.346 -23.126  0.00  0.00    -0.022 C 
ATOM     34  C   UNL     1      32.710 -14.347 -23.651  0.00  0.00    -0.004 C 
ATOM     35  C   UNL     1      33.914 -15.300 -21.788  0.00  0.00    -0.004 C 
ATOM     36  C   UNL     1      32.277 -13.300 -22.837  0.00  0.00    -0.000 C 
ATOM     37  C   UNL     1      33.482 -14.254 -20.972  0.00  0.00    -0.000 C 
ATOM     38  C   UNL     1      32.663 -13.255 -21.497  0.00  0.00    -0.000 C 
ENDBRANCH  32  33
ENDBRANCH  31  32
ENDBRANCH  30  31
ENDBRANCH  29  30
ENDBRANCH  28  29
ENDBRANCH  22  28
ENDBRANCH   3  23
TORSDOF 9
ENDMDL
MODEL 2
REMARK VINA RESULT:     -13.3      1.718      4.037
REMARK  Name = 4887
REMARK  9 active torsions:
REMARK  status: ('A' for Active; 'I' for Inactive)
REMARK    1  A    between atoms: N_2  and  C_8
REMARK    2  A    between atoms: C_3  and  C_23
REMARK    3  A    between atoms: C_14  and  C_20
REMARK    4  A    between atoms: C_22  and  O_28
REMARK    5  A    between atoms: O_28  and  C_29
REMARK    6  A    between atoms: C_29  and  C_30
REMARK    7  A    between atoms: C_30  and  C_31
REMARK    8  A    between atoms: C_31  and  C_32
REMARK    9  A    between atoms: C_32  and  C_33
REMARK                            x       y       z     vdW  Elec       q    Type
REMARK                         _______ _______ _______ _____ _____    ______ ____
ROOT
ATOM      1  O   UNL     1      32.715 -23.483 -17.830  0.00  0.00    -0.270 OA
ATOM      2  N   UNL     1      31.346 -21.796 -16.932  0.00  0.00    -0.278 N 
ATOM      3  C   UNL     1      32.322 -22.322 -17.787  0.00  0.00    +0.250 C 
ATOM      4  H   UNL     1      31.153 -20.836 -17.035  0.00  0.00    +0.155 HD
ENDROOT
BRANCH   2   8
ATOM      5  O   UNL     1      32.619 -23.012 -14.829  0.00  0.00    -0.442 OA
ATOM      6  O   UNL     1      30.597 -24.995 -11.903  0.00  0.00    -0.286 OA
ATOM      7  C   UNL     1      31.250 -23.089 -14.875  0.00  0.00    +0.163 C 
ATOM      8  C   UNL     1      30.613 -22.467 -15.949  0.00  0.00    +0.086 C 
ATOM      9  C   UNL     1      30.496 -23.751 -13.908  0.00  0.00    +0.075 C 
ATOM     10  C   UNL     1      29.223 -22.510 -16.051  0.00  0.00    +0.018 C 
ATOM     11  C   UNL     1      29.104 -23.797 -14.006  0.00  0.00    +0.006 C 
ATOM     12  C   UNL     1      31.194 -24.397 -12.788  0.00  0.00    +0.202 C 
ATOM     13  C   UNL     1      28.469 -23.173 -15.082  0.00  0.00    +0.002 C 
ATOM     14  C   UNL     1      33.289 -23.622 -13.774  0.00  0.00    +0.213 C 
ATOM     15  C   UNL     1      32.666 -24.287 -12.786  0.00  0.00    +0.090 C 
BRANCH  14  20
ATOM     16  N   UNL     1      35.488 -23.682 -14.926  0.00  0.00    -0.107 NA
ATOM     17  N   UNL     1      35.413 -23.059 -12.749  0.00  0.00    -0.084 NA
ATOM     18  N   UNL     1      36.685 -23.380 -14.402  0.00  0.00    -0.140 N 
ATOM     19  N   UNL     1      36.688 -23.006 -13.116  0.00  0.00    -0.022 NA
ATOM     20  C   UNL     1      34.722 -23.465 -13.853  0.00  0.00    +0.109 C 
ATOM     21  H   UNL     1      37.512 -23.430 -14.932  0.00  0.00    +0.197 HD
ENDBRANCH  14  20
ENDBRANCH   2   8
BRANCH   3  23
ATOM     22  C   UNL     1      34.127 -19.508 -20.453  0.00  0.00    +0.139 C 
ATOM     23  C   UNL     1      32.949 -21.344 -18.714  0.00  0.00    +0.054 C 
ATOM     24  C   UNL     1      34.927 -20.354 -19.685  0.00  0.00    +0.037 C 
ATOM     25  C   UNL     1      32.737 -19.579 -20.351  0.00  0.00    +0.037 C 
ATOM     26  C   UNL     1      34.338 -21.271 -18.815  0.00  0.00    +0.008 C 
ATOM     27  C   UNL     1      32.148 -20.497 -19.482  0.00  0.00    +0.008 C 
BRANCH  22  28
ATOM     28  O   UNL     1      34.701 -18.614 -21.303  0.00  0.00    -0.475 OA
BRANCH  28  29
ATOM     29  C   UNL     1      34.289 -18.659 -22.668  0.00  0.00    +0.205 C 
BRANCH  29  30
ATOM     30  C   UNL     1      34.018 -17.240 -23.147  0.00  0.00    +0.048 C 
BRANCH  30  31
ATOM     31  C   UNL     1      34.192 -16.222 -22.020  0.00  0.00    +0.009 C 
BRANCH  31  32
ATOM     32  C   UNL     1      33.989 -14.793 -22.528  0.00  0.00    +0.026 C 
BRANCH  32  33
ATOM     33  C   UNL     1      33.004 -14.034 -21.675  0.00  0.00    -0.022 C 
ATOM     34  C   UNL     1      32.269 -12.985 -22.226  0.00  0.00    -0.004 C 
ATOM     35  C   UNL     1      32.829 -14.379 -20.336  0.00  0.00    -0.004 C 
ATOM     36  C   UNL     1      31.359 -12.281 -21.438  0.00  0.00    -0.000 C 
ATOM     37  C   UNL     1      31.919 -13.677 -19.547  0.00  0.00    -0.000 C 
ATOM     38  C   UNL     1      31.183 -12.628 -20.098  0.00  0.00    -0.000 C 
ENDBRANCH  32  33
ENDBRANCH  31  32
ENDBRANCH  30  31
ENDBRANCH  29  30
ENDBRANCH  28  29
ENDBRANCH  22  28
ENDBRANCH   3  23
TORSDOF 9
ENDMDL
MODEL 3
REMARK VINA RESULT:     -13.3      1.829      4.130
REMARK  Name = 4887
REMARK  9 active torsions:
REMARK  status: ('A' for Active; 'I' for Inactive)
REMARK    1  A    between atoms: N_2  and  C_8
REMARK    2  A    between atoms: C_3  and  C_23
REMARK    3  A    between atoms: C_14  and  C_20
REMARK    4  A    between atoms: C_22  and  O_28
REMARK    5  A    between atoms: O_28  and  C_29
REMARK    6  A    between atoms: C_29  and  C_30
REMARK    7  A    between atoms: C_30  and  C_31
REMARK    8  A    between atoms: C_31  and  C_32
REMARK    9  A    between atoms: C_32  and  C_33
REMARK                            x       y       z     vdW  Elec       q    Type
REMARK                         _______ _______ _______ _____ _____    ______ ____
ROOT
ATOM      1  O   UNL     1      32.686 -23.513 -17.913  0.00  0.00    -0.270 OA
ATOM      2  N   UNL     1      31.422 -21.782 -16.949  0.00  0.00    -0.278 N 
ATOM      3  C   UNL     1      32.366 -22.333 -17.824  0.00  0.00    +0.250 C 
ATOM      4  H   UNL     1      31.289 -20.809 -17.015  0.00  0.00    +0.155 HD
ENDROOT
BRANCH   2   8
ATOM      5  O   UNL     1      32.609 -23.073 -14.841  0.00  0.00    -0.442 OA
ATOM      6  O   UNL     1      30.462 -25.036 -11.991  0.00  0.00    -0.286 OA
ATOM      7  C   UNL     1      31.240 -23.105 -14.917  0.00  0.00    +0.163 C 
ATOM      8  C   UNL     1      30.646 -22.444 -15.994  0.00  0.00    +0.086 C 
ATOM      9  C   UNL     1      30.445 -23.757 -13.978  0.00  0.00    +0.075 C 
ATOM     10  C   UNL     1      29.258 -22.441 -16.126  0.00  0.00    +0.018 C 
ATOM     11  C   UNL     1      29.054 -23.756 -14.105  0.00  0.00    +0.006 C 
ATOM     12  C   UNL     1      31.097 -24.444 -12.854  0.00  0.00    +0.202 C 
ATOM     13  C   UNL     1      28.463 -23.095 -15.184  0.00  0.00    +0.002 C 
ATOM     14  C   UNL     1      33.236 -23.721 -13.782  0.00  0.00    +0.213 C 
ATOM     15  C   UNL     1      32.571 -24.381 -12.819  0.00  0.00    +0.090 C 
BRANCH  14  20
ATOM     16  N   UNL     1      35.464 -23.913 -14.863  0.00  0.00    -0.107 NA
ATOM     17  N   UNL     1      35.347 -23.155 -12.732  0.00  0.00    -0.084 NA
ATOM     18  N   UNL     1      36.654 -23.613 -14.324  0.00  0.00    -0.140 N 
ATOM     19  N   UNL     1      36.632 -23.161 -13.063  0.00  0.00    -0.022 NA
ATOM     20  C   UNL     1      34.675 -23.610 -13.829  0.00  0.00    +0.109 C 
ATOM     21  H   UNL     1      37.494 -23.719 -14.825  0.00  0.00    +0.197 HD
ENDBRANCH  14  20
ENDBRANCH   2   8
BRANCH   3  23
ATOM     22  C   UNL     1      34.346 -19.533 -20.378  0.00  0.00    +0.139 C 
ATOM     23  C   UNL     1      33.054 -21.360 -18.712  0.00  0.00    +0.054 C 
ATOM     24  C   UNL     1      35.094 -20.403 -19.584  0.00  0.00    +0.037 C 
ATOM     25  C   UNL     1      32.952 -19.576 -20.339  0.00  0.00    +0.037 C 
ATOM     26  C   UNL     1      34.447 -21.316 -18.750  0.00  0.00    +0.008 C 
ATOM     27  C   UNL     1      32.306 -20.489 -19.506  0.00  0.00    +0.008 C 
BRANCH  22  28
ATOM     28  O   UNL     1      34.976 -18.643 -21.192  0.00  0.00    -0.475 OA
BRANCH  28  29
ATOM     29  C   UNL     1      34.204 -17.545 -21.676  0.00  0.00    +0.205 C 
BRANCH  29  30
ATOM     30  C   UNL     1      33.828 -17.810 -23.127  0.00  0.00    +0.048 C 
BRANCH  30  31
ATOM     31  C   UNL     1      34.029 -16.570 -23.996  0.00  0.00    +0.009 C 
BRANCH  31  32
ATOM     32  C   UNL     1      32.694 -15.888 -24.306  0.00  0.00    +0.026 C 
BRANCH  32  33
ATOM     33  C   UNL     1      32.826 -14.386 -24.318  0.00  0.00    -0.022 C 
ATOM     34  C   UNL     1      33.200 -13.709 -23.158  0.00  0.00    -0.004 C 
ATOM     35  C   UNL     1      32.573 -13.674 -25.490  0.00  0.00    -0.004 C 
ATOM     36  C   UNL     1      33.321 -12.320 -23.168  0.00  0.00    -0.000 C 
ATOM     37  C   UNL     1      32.695 -12.284 -25.502  0.00  0.00    -0.000 C 
ATOM     38  C   UNL     1      33.069 -11.608 -24.341  0.00  0.00    -0.000 C 
ENDBRANCH  32  33
ENDBRANCH  31  32
ENDBRANCH  30  31
ENDBRANCH  29  30
ENDBRANCH  28  29
ENDBRANCH  22  28
ENDBRANCH   3  23
TORSDOF 9
ENDMDL
MODEL 4
REMARK VINA RESULT:     -12.9      1.318      2.038
REMARK  Name = 4887
REMARK  9 active torsions:
REMARK  status: ('A' for Active; 'I' for Inactive)
REMARK    1  A    between atoms: N_2  and  C_8
REMARK    2  A    between atoms: C_3  and  C_23
REMARK    3  A    between atoms: C_14  and  C_20
REMARK    4  A    between atoms: C_22  and  O_28
REMARK    5  A    between atoms: O_28  and  C_29
REMARK    6  A    between atoms: C_29  and  C_30
REMARK    7  A    between atoms: C_30  and  C_31
REMARK    8  A    between atoms: C_31  and  C_32
REMARK    9  A    between atoms: C_32  and  C_33
REMARK                            x       y       z     vdW  Elec       q    Type
REMARK                         _______ _______ _______ _____ _____    ______ ____
ROOT
ATOM      1  O   UNL     1      33.419 -23.148 -17.652  0.00  0.00    -0.270 OA
ATOM      2  N   UNL     1      34.801 -21.684 -16.439  0.00  0.00    -0.278 N 
ATOM      3  C   UNL     1      34.023 -22.088 -17.531  0.00  0.00    +0.250 C 
ATOM      4  H   UNL     1      35.215 -20.794 -16.510  0.00  0.00    +0.155 HD
ENDROOT
BRANCH   2   8
ATOM      5  O   UNL     1      32.740 -22.584 -14.869  0.00  0.00    -0.442 OA
ATOM      6  O   UNL     1      33.366 -24.655 -11.419  0.00  0.00    -0.286 OA
ATOM      7  C   UNL     1      34.020 -22.853 -14.455  0.00  0.00    +0.163 C 
ATOM      8  C   UNL     1      35.061 -22.390 -15.261  0.00  0.00    +0.086 C 
ATOM      9  C   UNL     1      34.306 -23.555 -13.286  0.00  0.00    +0.075 C 
ATOM     10  C   UNL     1      36.384 -22.632 -14.893  0.00  0.00    +0.018 C 
ATOM     11  C   UNL     1      35.630 -23.800 -12.914  0.00  0.00    +0.006 C 
ATOM     12  C   UNL     1      33.190 -24.031 -12.457  0.00  0.00    +0.202 C 
ATOM     13  C   UNL     1      36.668 -23.336 -13.722  0.00  0.00    +0.002 C 
ATOM     14  C   UNL     1      31.677 -23.029 -14.090  0.00  0.00    +0.213 C 
ATOM     15  C   UNL     1      31.834 -23.715 -12.945  0.00  0.00    +0.090 C 
BRANCH  14  20
ATOM     16  N   UNL     1      29.239 -22.572 -13.972  0.00  0.00    -0.107 NA
ATOM     17  N   UNL     1      30.283 -22.411 -15.975  0.00  0.00    -0.084 NA
ATOM     18  N   UNL     1      28.430 -22.229 -14.984  0.00  0.00    -0.140 N 
ATOM     19  N   UNL     1      29.006 -22.122 -16.189  0.00  0.00    -0.022 NA
ATOM     20  C   UNL     1      30.391 -22.675 -14.641  0.00  0.00    +0.109 C 
ATOM     21  H   UNL     1      27.469 -22.065 -14.849  0.00  0.00    +0.197 HD
ENDBRANCH  14  20
ENDBRANCH   2   8
BRANCH   3  23
ATOM     22  C   UNL     1      33.833 -19.305 -20.772  0.00  0.00    +0.139 C 
ATOM     23  C   UNL     1      33.957 -21.120 -18.657  0.00  0.00    +0.054 C 
ATOM     24  C   UNL     1      32.659 -19.842 -20.244  0.00  0.00    +0.037 C 
ATOM     25  C   UNL     1      35.069 -19.676 -20.242  0.00  0.00    +0.037 C 
ATOM     26  C   UNL     1      32.721 -20.750 -19.187  0.00  0.00    +0.008 C 
ATOM     27  C   UNL     1      35.132 -20.583 -19.185  0.00  0.00    +0.008 C 
BRANCH  22  28
ATOM     28  O   UNL     1      33.772 -18.418 -21.801  0.00  0.00    -0.475 OA
BRANCH  28  29
ATOM     29  C   UNL     1      33.401 -18.931 -23.080  0.00  0.00    +0.205 C 
BRANCH  29  30
ATOM     30  C   UNL     1      33.092 -17.765 -24.007  0.00  0.00    +0.048 C 
BRANCH  30  31
ATOM     31  C   UNL     1      34.090 -16.622 -23.826  0.00  0.00    +0.009 C 
BRANCH  31  32
ATOM     32  C   UNL     1      33.427 -15.264 -24.071  0.00  0.00    +0.026 C 
BRANCH  32  33
ATOM     33  C   UNL     1      33.095 -14.565 -22.776  0.00  0.00    -0.022 C 
ATOM     34  C   UNL     1      33.700 -14.975 -21.588  0.00  0.00    -0.004 C 
ATOM     35  C   UNL     1      32.185 -13.510 -22.766  0.00  0.00    -0.004 C 
ATOM     36  C   UNL     1      33.393 -14.331 -20.390  0.00  0.00    -0.000 C 
ATOM     37  C   UNL     1      31.878 -12.863 -21.569  0.00  0.00    -0.000 C 
ATOM     38  C   UNL     1      32.482 -13.274 -20.381  0.00  0.00    -0.000 C 
ENDBRANCH  32  33
ENDBRANCH  31  32
ENDBRANCH  30  31
ENDBRANCH  29  30
ENDBRANCH  28  29
ENDBRANCH  22  28
ENDBRANCH   3  23
TORSDOF 9
ENDMDL
MODEL 5
REMARK VINA RESULT:     -12.6      7.045     13.743
REMARK  Name = 4887
REMARK  9 active torsions:
REMARK  status: ('A' for Active; 'I' for Inactive)
REMARK    1  A    between atoms: N_2  and  C_8
REMARK    2  A    between atoms: C_3  and  C_23
REMARK    3  A    between atoms: C_14  and  C_20
REMARK    4  A    between atoms: C_22  and  O_28
REMARK    5  A    between atoms: O_28  and  C_29
REMARK    6  A    between atoms: C_29  and  C_30
REMARK    7  A    between atoms: C_30  and  C_31
REMARK    8  A    between atoms: C_31  and  C_32
REMARK    9  A    between atoms: C_32  and  C_33
REMARK                            x       y       z     vdW  Elec       q    Type
REMARK                         _______ _______ _______ _____ _____    ______ ____
ROOT
ATOM      1  O   UNL     1      34.558  -9.971 -24.252  0.00  0.00    -0.270 OA
ATOM      2  N   UNL     1      32.236  -9.618 -24.163  0.00  0.00    -0.278 N 
ATOM      3  C   UNL     1      33.404 -10.386 -24.234  0.00  0.00    +0.250 C 
ATOM      4  H   UNL     1      31.389 -10.119 -24.157  0.00  0.00    +0.155 HD
ENDROOT
BRANCH   2   8
ATOM      5  O   UNL     1      31.613  -8.375 -21.798  0.00  0.00    -0.442 OA
ATOM      6  O   UNL     1      31.265  -4.330 -21.481  0.00  0.00    -0.286 OA
ATOM      7  C   UNL     1      31.809  -7.583 -22.901  0.00  0.00    +0.163 C 
ATOM      8  C   UNL     1      32.125  -8.226 -24.099  0.00  0.00    +0.086 C 
ATOM      9  C   UNL     1      31.706  -6.195 -22.864  0.00  0.00    +0.075 C 
ATOM     10  C   UNL     1      32.336  -7.475 -25.255  0.00  0.00    +0.018 C 
ATOM     11  C   UNL     1      31.916  -5.438 -24.019  0.00  0.00    +0.006 C 
ATOM     12  C   UNL     1      31.371  -5.544 -21.589  0.00  0.00    +0.202 C 
ATOM     13  C   UNL     1      32.232  -6.084 -25.215  0.00  0.00    +0.002 C 
ATOM     14  C   UNL     1      31.294  -7.770 -20.587  0.00  0.00    +0.213 C 
ATOM     15  C   UNL     1      31.169  -6.441 -20.433  0.00  0.00    +0.090 C 
BRANCH  14  20
ATOM     16  N   UNL     1      31.097  -8.450 -18.207  0.00  0.00    -0.107 NA
ATOM     17  N   UNL     1      30.939 -10.040 -19.812  0.00  0.00    -0.084 NA
ATOM     18  N   UNL     1      30.901  -9.688 -17.732  0.00  0.00    -0.140 N 
ATOM     19  N   UNL     1      30.801 -10.661 -18.648  0.00  0.00    -0.022 NA
ATOM     20  C   UNL     1      31.113  -8.720 -19.515  0.00  0.00    +0.109 C 
ATOM     21  H   UNL     1      30.834  -9.872 -16.768  0.00  0.00    +0.197 HD
ENDBRANCH  14  20
ENDBRANCH   2   8
BRANCH   3  23
ATOM     22  C   UNL     1      32.801 -14.611 -24.481  0.00  0.00    +0.139 C 
ATOM     23  C   UNL     1      33.195 -11.855 -24.319  0.00  0.00    +0.054 C 
ATOM     24  C   UNL     1      32.579 -13.808 -25.600  0.00  0.00    +0.037 C 
ATOM     25  C   UNL     1      33.220 -14.036 -23.281  0.00  0.00    +0.037 C 
ATOM     26  C   UNL     1      32.775 -12.430 -25.519  0.00  0.00    +0.008 C 
ATOM     27  C   UNL     1      33.418 -12.658 -23.200  0.00  0.00    +0.008 C 
BRANCH  22  28
ATOM     28  O   UNL     1      32.612 -15.957 -24.561  0.00  0.00    -0.475 OA
BRANCH  28  29
ATOM     29  C   UNL     1      33.634 -16.790 -24.015  0.00  0.00    +0.205 C 
BRANCH  29  30
ATOM     30  C   UNL     1      33.050 -18.169 -23.743  0.00  0.00    +0.048 C 
BRANCH  30  31
ATOM     31  C   UNL     1      33.958 -18.995 -22.833  0.00  0.00    +0.009 C 
BRANCH  31  32
ATOM     32  C   UNL     1      33.967 -18.438 -21.407  0.00  0.00    +0.026 C 
BRANCH  32  33
ATOM     33  C   UNL     1      33.853 -19.537 -20.380  0.00  0.00    -0.022 C 
ATOM     34  C   UNL     1      35.005 -20.137 -19.871  0.00  0.00    -0.004 C 
ATOM     35  C   UNL     1      32.598 -19.954 -19.941  0.00  0.00    -0.004 C 
ATOM     36  C   UNL     1      34.901 -21.154 -18.923  0.00  0.00    -0.000 C 
ATOM     37  C   UNL     1      32.493 -20.971 -18.991  0.00  0.00    -0.000 C 
ATOM     38  C   UNL     1      33.644 -21.571 -18.482  0.00  0.00    -0.000 C 
ENDBRANCH  32  33
ENDBRANCH  31  32
ENDBRANCH  30  31
ENDBRANCH  29  30
ENDBRANCH  28  29
ENDBRANCH  22  28
ENDBRANCH   3  23
TORSDOF 9
ENDMDL
MODEL 6
REMARK VINA RESULT:     -12.1      6.678     13.301
REMARK  Name = 4887
REMARK  9 active torsions:
REMARK  status: ('A' for Active; 'I' for Inactive)
REMARK    1  A    between atoms: N_2  and  C_8
REMARK    2  A    between atoms: C_3  and  C_23
REMARK    3  A    between atoms: C_14  and  C_20
REMARK    4  A    between atoms: C_22  and  O_28
REMARK    5  A    between atoms: O_28  and  C_29
REMARK    6  A    between atoms: C_29  and  C_30
REMARK    7  A    between atoms: C_30  and  C_31
REMARK    8  A    between atoms: C_31  and  C_32
REMARK    9  A    between atoms: C_32  and  C_33
REMARK                            x       y       z     vdW  Elec       q    Type
REMARK                         _______ _______ _______ _____ _____    ______ ____
ROOT
ATOM      1  O   UNL     1      32.546 -11.617 -25.318  0.00  0.00    -0.270 OA
ATOM      2  N   UNL     1      33.590 -10.658 -23.443  0.00  0.00    -0.278 N 
ATOM      3  C   UNL     1      33.106 -11.709 -24.231  0.00  0.00    +0.250 C 
ATOM      4  H   UNL     1      34.016 -10.915 -22.594  0.00  0.00    +0.155 HD
ENDROOT
BRANCH   2   8
ATOM      5  O   UNL     1      32.296  -8.941 -21.740  0.00  0.00    -0.442 OA
ATOM      6  O   UNL     1      32.089  -4.931 -22.421  0.00  0.00    -0.286 OA
ATOM      7  C   UNL     1      32.887  -8.405 -22.856  0.00  0.00    +0.163 C 
ATOM      8  C   UNL     1      33.542  -9.288 -23.716  0.00  0.00    +0.086 C 
ATOM      9  C   UNL     1      32.854  -7.044 -23.151  0.00  0.00    +0.075 C 
ATOM     10  C   UNL     1      34.162  -8.803 -24.867  0.00  0.00    +0.018 C 
ATOM     11  C   UNL     1      33.474  -6.554 -24.302  0.00  0.00    +0.006 C 
ATOM     12  C   UNL     1      32.157  -6.138 -22.227  0.00  0.00    +0.202 C 
ATOM     13  C   UNL     1      34.129  -7.439 -25.160  0.00  0.00    +0.002 C 
ATOM     14  C   UNL     1      31.632  -8.092 -20.861  0.00  0.00    +0.213 C 
ATOM     15  C   UNL     1      31.537  -6.764 -21.043  0.00  0.00    +0.090 C 
BRANCH  14  20
ATOM     16  N   UNL     1      30.142  -9.760 -19.783  0.00  0.00    -0.107 NA
ATOM     17  N   UNL     1      31.451  -8.459 -18.471  0.00  0.00    -0.084 NA
ATOM     18  N   UNL     1      30.009  -9.998 -18.471  0.00  0.00    -0.140 N 
ATOM     19  N   UNL     1      30.765  -9.250 -17.656  0.00  0.00    -0.022 NA
ATOM     20  C   UNL     1      31.057  -8.788 -19.735  0.00  0.00    +0.109 C 
ATOM     21  H   UNL     1      29.391 -10.682 -18.125  0.00  0.00    +0.197 HD
ENDBRANCH  14  20
ENDBRANCH   2   8
BRANCH   3  23
ATOM     22  C   UNL     1      33.611 -15.617 -22.572  0.00  0.00    +0.139 C 
ATOM     23  C   UNL     1      33.281 -13.068 -23.654  0.00  0.00    +0.054 C 
ATOM     24  C   UNL     1      33.791 -14.490 -21.769  0.00  0.00    +0.037 C 
ATOM     25  C   UNL     1      33.267 -15.470 -23.915  0.00  0.00    +0.037 C 
ATOM     26  C   UNL     1      33.627 -13.215 -22.311  0.00  0.00    +0.008 C 
ATOM     27  C   UNL     1      33.101 -14.195 -24.457  0.00  0.00    +0.008 C 
BRANCH  22  28
ATOM     28  O   UNL     1      33.770 -16.861 -22.043  0.00  0.00    -0.475 OA
BRANCH  28  29
ATOM     29  C   UNL     1      34.408 -17.839 -22.863  0.00  0.00    +0.205 C 
BRANCH  29  30
ATOM     30  C   UNL     1      35.671 -18.319 -22.163  0.00  0.00    +0.048 C 
BRANCH  30  31
ATOM     31  C   UNL     1      35.523 -18.279 -20.643  0.00  0.00    +0.009 C 
BRANCH  31  32
ATOM     32  C   UNL     1      35.843 -19.639 -20.019  0.00  0.00    +0.026 C 
BRANCH  32  33
ATOM     33  C   UNL     1      34.606 -20.307 -19.474  0.00  0.00    -0.022 C 
ATOM     34  C   UNL     1      33.344 -19.875 -19.882  0.00  0.00    -0.004 C 
ATOM     35  C   UNL     1      34.722 -21.354 -18.561  0.00  0.00    -0.004 C 
ATOM     36  C   UNL     1      32.199 -20.491 -19.378  0.00  0.00    -0.000 C 
ATOM     37  C   UNL     1      33.578 -21.971 -18.057  0.00  0.00    -0.000 C 
ATOM     38  C   UNL     1      32.316 -21.540 -18.465  0.00  0.00    -0.000 C 
ENDBRANCH  32  33
ENDBRANCH  31  32
ENDBRANCH  30  31
ENDBRANCH  29  30
ENDBRANCH  28  29
ENDBRANCH  22  28
ENDBRANCH   3  23
TORSDOF 9
ENDMDL
MODEL 7
REMARK VINA RESULT:     -11.3      7.568     13.217
REMARK  Name = 4887
REMARK  9 active torsions:
REMARK  status: ('A' for Active; 'I' for Inactive)
REMARK    1  A    between atoms: N_2  and  C_8
REMARK    2  A    between atoms: C_3  and  C_23
REMARK    3  A    between atoms: C_14  and  C_20
REMARK    4  A    between atoms: C_22  and  O_28
REMARK    5  A    between atoms: O_28  and  C_29
REMARK    6  A    between atoms: C_29  and  C_30
REMARK    7  A    between atoms: C_30  and  C_31
REMARK    8  A    between atoms: C_31  and  C_32
REMARK    9  A    between atoms: C_32  and  C_33
REMARK                            x       y       z     vdW  Elec       q    Type
REMARK                         _______ _______ _______ _____ _____    ______ ____
ROOT
ATOM      1  O   UNL     1      30.895 -12.919 -19.659  0.00  0.00    -0.270 OA
ATOM      2  N   UNL     1      31.845 -11.106 -20.815  0.00  0.00    -0.278 N 
ATOM      3  C   UNL     1      31.592 -12.458 -20.557  0.00  0.00    +0.250 C 
ATOM      4  H   UNL     1      32.430 -10.915 -21.582  0.00  0.00    +0.155 HD
ENDROOT
BRANCH   2   8
ATOM      5  O   UNL     1      32.147  -8.579 -21.838  0.00  0.00    -0.442 OA
ATOM      6  O   UNL     1      30.797  -5.262 -19.899  0.00  0.00    -0.286 OA
ATOM      7  C   UNL     1      31.515  -8.704 -20.626  0.00  0.00    +0.163 C 
ATOM      8  C   UNL     1      31.367  -9.994 -20.115  0.00  0.00    +0.086 C 
ATOM      9  C   UNL     1      31.029  -7.612 -19.910  0.00  0.00    +0.075 C 
ATOM     10  C   UNL     1      30.734 -10.186 -18.888  0.00  0.00    +0.018 C 
ATOM     11  C   UNL     1      30.394  -7.800 -18.680  0.00  0.00    +0.006 C 
ATOM     12  C   UNL     1      31.199  -6.265 -20.472  0.00  0.00    +0.202 C 
ATOM     13  C   UNL     1      30.248  -9.091 -18.171  0.00  0.00    +0.002 C 
ATOM     14  C   UNL     1      32.314  -7.308 -22.377  0.00  0.00    +0.213 C 
ATOM     15  C   UNL     1      31.886  -6.185 -21.776  0.00  0.00    +0.090 C 
BRANCH  14  20
ATOM     16  N   UNL     1      33.749  -8.313 -24.137  0.00  0.00    -0.107 NA
ATOM     17  N   UNL     1      32.891  -6.245 -24.479  0.00  0.00    -0.084 NA
ATOM     18  N   UNL     1      34.095  -7.766 -25.311  0.00  0.00    -0.140 N 
ATOM     19  N   UNL     1      33.609  -6.541 -25.556  0.00  0.00    -0.022 NA
ATOM     20  C   UNL     1      32.994  -7.324 -23.651  0.00  0.00    +0.109 C 
ATOM     21  H   UNL     1      34.671  -8.236 -25.955  0.00  0.00    +0.197 HD
ENDBRANCH  14  20
ENDBRANCH   2   8
BRANCH   3  23
ATOM     22  C   UNL     1      33.545 -15.216 -23.177  0.00  0.00    +0.139 C 
ATOM     23  C   UNL     1      32.270 -13.417 -21.468  0.00  0.00    +0.054 C 
ATOM     24  C   UNL     1      33.836 -15.224 -21.812  0.00  0.00    +0.037 C 
ATOM     25  C   UNL     1      32.617 -14.308 -23.686  0.00  0.00    +0.037 C 
ATOM     26  C   UNL     1      33.199 -14.324 -20.958  0.00  0.00    +0.008 C 
ATOM     27  C   UNL     1      31.980 -13.408 -22.832  0.00  0.00    +0.008 C 
BRANCH  22  28
ATOM     28  O   UNL     1      34.165 -16.095 -24.010  0.00  0.00    -0.475 OA
BRANCH  28  29
ATOM     29  C   UNL     1      33.564 -17.380 -24.161  0.00  0.00    +0.205 C 
BRANCH  29  30
ATOM     30  C   UNL     1      34.344 -18.389 -23.329  0.00  0.00    +0.048 C 
BRANCH  30  31
ATOM     31  C   UNL     1      33.501 -18.945 -22.183  0.00  0.00    +0.009 C 
BRANCH  31  32
ATOM     32  C   UNL     1      34.220 -18.791 -20.841  0.00  0.00    +0.026 C 
BRANCH  32  33
ATOM     33  C   UNL     1      33.863 -19.904 -19.887  0.00  0.00    -0.022 C 
ATOM     34  C   UNL     1      32.524 -20.204 -19.637  0.00  0.00    -0.004 C 
ATOM     35  C   UNL     1      34.870 -20.631 -19.255  0.00  0.00    -0.004 C 
ATOM     36  C   UNL     1      32.193 -21.231 -18.754  0.00  0.00    -0.000 C 
ATOM     37  C   UNL     1      34.540 -21.660 -18.373  0.00  0.00    -0.000 C 
ATOM     38  C   UNL     1      33.201 -21.960 -18.123  0.00  0.00    -0.000 C 
ENDBRANCH  32  33
ENDBRANCH  31  32
ENDBRANCH  30  31
ENDBRANCH  29  30
ENDBRANCH  28  29
ENDBRANCH  22  28
ENDBRANCH   3  23
TORSDOF 9
ENDMDL
MODEL 8
REMARK VINA RESULT:     -11.3      7.849     14.564
REMARK  Name = 4887
REMARK  9 active torsions:
REMARK  status: ('A' for Active; 'I' for Inactive)
REMARK    1  A    between atoms: N_2  and  C_8
REMARK    2  A    between atoms: C_3  and  C_23
REMARK    3  A    between atoms: C_14  and  C_20
REMARK    4  A    between atoms: C_22  and  O_28
REMARK    5  A    between atoms: O_28  and  C_29
REMARK    6  A    between atoms: C_29  and  C_30
REMARK    7  A    between atoms: C_30  and  C_31
REMARK    8  A    between atoms: C_31  and  C_32
REMARK    9  A    between atoms: C_32  and  C_33
REMARK                            x       y       z     vdW  Elec       q    Type
REMARK                         _______ _______ _______ _____ _____    ______ ____
ROOT
ATOM      1  O   UNL     1      34.274  -9.101 -23.495  0.00  0.00    -0.270 OA
ATOM      2  N   UNL     1      32.123  -8.828 -24.405  0.00  0.00    -0.278 N 
ATOM      3  C   UNL     1      33.215  -9.555 -23.916  0.00  0.00    +0.250 C 
ATOM      4  H   UNL     1      31.349  -9.358 -24.702  0.00  0.00    +0.155 HD
ENDROOT
BRANCH   2   8
ATOM      5  O   UNL     1      31.514  -7.291 -22.217  0.00  0.00    -0.442 OA
ATOM      6  O   UNL     1      31.127  -3.243 -22.430  0.00  0.00    -0.286 OA
ATOM      7  C   UNL     1      31.689  -6.649 -23.416  0.00  0.00    +0.163 C 
ATOM      8  C   UNL     1      31.999  -7.441 -24.523  0.00  0.00    +0.086 C 
ATOM      9  C   UNL     1      31.571  -5.268 -23.561  0.00  0.00    +0.075 C 
ATOM     10  C   UNL     1      32.189  -6.847 -25.770  0.00  0.00    +0.018 C 
ATOM     11  C   UNL     1      31.761  -4.669 -24.808  0.00  0.00    +0.006 C 
ATOM     12  C   UNL     1      31.245  -4.459 -22.378  0.00  0.00    +0.202 C 
ATOM     13  C   UNL     1      32.070  -5.463 -25.913  0.00  0.00    +0.002 C 
ATOM     14  C   UNL     1      31.203  -6.534 -21.092  0.00  0.00    +0.213 C 
ATOM     15  C   UNL     1      31.065  -5.198 -21.113  0.00  0.00    +0.090 C 
BRANCH  14  20
ATOM     16  N   UNL     1      31.092  -8.670 -19.829  0.00  0.00    -0.107 NA
ATOM     17  N   UNL     1      30.819  -6.722 -18.705  0.00  0.00    -0.084 NA
ATOM     18  N   UNL     1      30.883  -8.823 -18.514  0.00  0.00    -0.140 N 
ATOM     19  N   UNL     1      30.716  -7.695 -17.809  0.00  0.00    -0.022 NA
ATOM     20  C   UNL     1      31.044  -7.337 -19.902  0.00  0.00    +0.109 C 
ATOM     21  H   UNL     1      30.854  -9.711 -18.091  0.00  0.00    +0.197 HD
ENDBRANCH  14  20
ENDBRANCH   2   8
BRANCH   3  23
ATOM     22  C   UNL     1      32.762 -13.806 -23.989  0.00  0.00    +0.139 C 
ATOM     23  C   UNL     1      33.058 -11.033 -23.941  0.00  0.00    +0.054 C 
ATOM     24  C   UNL     1      33.032 -13.154 -22.785  0.00  0.00    +0.037 C 
ATOM     25  C   UNL     1      32.640 -13.072 -25.168  0.00  0.00    +0.037 C 
ATOM     26  C   UNL     1      33.181 -11.767 -22.762  0.00  0.00    +0.008 C 
ATOM     27  C   UNL     1      32.788 -11.685 -25.145  0.00  0.00    +0.008 C 
BRANCH  22  28
ATOM     28  O   UNL     1      32.616 -15.159 -24.011  0.00  0.00    -0.475 OA
BRANCH  28  29
ATOM     29  C   UNL     1      33.500 -15.921 -23.191  0.00  0.00    +0.205 C 
BRANCH  29  30
ATOM     30  C   UNL     1      33.896 -17.187 -23.939  0.00  0.00    +0.048 C 
BRANCH  30  31
ATOM     31  C   UNL     1      34.088 -18.366 -22.987  0.00  0.00    +0.009 C 
BRANCH  31  32
ATOM     32  C   UNL     1      34.139 -17.900 -21.530  0.00  0.00    +0.026 C 
BRANCH  32  33
ATOM     33  C   UNL     1      34.088 -19.063 -20.571  0.00  0.00    -0.022 C 
ATOM     34  C   UNL     1      35.267 -19.572 -20.030  0.00  0.00    -0.004 C 
ATOM     35  C   UNL     1      32.861 -19.629 -20.227  0.00  0.00    -0.004 C 
ATOM     36  C   UNL     1      35.221 -20.648 -19.144  0.00  0.00    -0.000 C 
ATOM     37  C   UNL     1      32.814 -20.705 -19.341  0.00  0.00    -0.000 C 
ATOM     38  C   UNL     1      33.994 -21.215 -18.799  0.00  0.00    -0.000 C 
ENDBRANCH  32  33
ENDBRANCH  31  32
ENDBRANCH  30  31
ENDBRANCH  29  30
ENDBRANCH  28  29
ENDBRANCH  22  28
ENDBRANCH   3  23
TORSDOF 9
ENDMDL
MODEL 9
REMARK VINA RESULT:     -11.2      8.733     14.580
REMARK  Name = 4887
REMARK  9 active torsions:
REMARK  status: ('A' for Active; 'I' for Inactive)
REMARK    1  A    between atoms: N_2  and  C_8
REMARK    2  A    between atoms: C_3  and  C_23
REMARK    3  A    between atoms: C_14  and  C_20
REMARK    4  A    between atoms: C_22  and  O_28
REMARK    5  A    between atoms: O_28  and  C_29
REMARK    6  A    between atoms: C_29  and  C_30
REMARK    7  A    between atoms: C_30  and  C_31
REMARK    8  A    between atoms: C_31  and  C_32
REMARK    9  A    between atoms: C_32  and  C_33
REMARK                            x       y       z     vdW  Elec       q    Type
REMARK                         _______ _______ _______ _____ _____    ______ ____
ROOT
ATOM      1  O   UNL     1      29.907 -10.359 -20.347  0.00  0.00    -0.270 OA
ATOM      2  N   UNL     1      31.606  -8.867 -20.988  0.00  0.00    -0.278 N 
ATOM      3  C   UNL     1      30.985 -10.117 -20.878  0.00  0.00    +0.250 C 
ATOM      4  H   UNL     1      32.475  -8.855 -21.450  0.00  0.00    +0.155 HD
ENDROOT
BRANCH   2   8
ATOM      5  O   UNL     1      30.931  -6.875 -22.749  0.00  0.00    -0.442 OA
ATOM      6  O   UNL     1      29.565  -3.242 -21.518  0.00  0.00    -0.286 OA
ATOM      7  C   UNL     1      30.796  -6.613 -21.409  0.00  0.00    +0.163 C 
ATOM      8  C   UNL     1      31.142  -7.633 -20.522  0.00  0.00    +0.086 C 
ATOM      9  C   UNL     1      30.335  -5.393 -20.919  0.00  0.00    +0.075 C 
ATOM     10  C   UNL     1      31.026  -7.427 -19.148  0.00  0.00    +0.018 C 
ATOM     11  C   UNL     1      30.217  -5.182 -19.544  0.00  0.00    +0.006 C 
ATOM     12  C   UNL     1      29.977  -4.337 -21.876  0.00  0.00    +0.202 C 
ATOM     13  C   UNL     1      30.565  -6.204 -18.659  0.00  0.00    +0.002 C 
ATOM     14  C   UNL     1      30.597  -5.881 -23.663  0.00  0.00    +0.213 C 
ATOM     15  C   UNL     1      30.142  -4.669 -23.305  0.00  0.00    +0.090 C 
BRANCH  14  20
ATOM     16  N   UNL     1      29.986  -7.085 -25.747  0.00  0.00    -0.107 NA
ATOM     17  N   UNL     1      31.887  -5.854 -25.715  0.00  0.00    -0.084 NA
ATOM     18  N   UNL     1      30.666  -7.099 -26.902  0.00  0.00    -0.140 N 
ATOM     19  N   UNL     1      31.798  -6.384 -26.929  0.00  0.00    -0.022 NA
ATOM     20  C   UNL     1      30.790  -6.291 -25.034  0.00  0.00    +0.109 C 
ATOM     21  H   UNL     1      30.352  -7.606 -27.685  0.00  0.00    +0.197 HD
ENDBRANCH  14  20
ENDBRANCH   2   8
BRANCH   3  23
ATOM     22  C   UNL     1      33.173 -13.396 -22.534  0.00  0.00    +0.139 C 
ATOM     23  C   UNL     1      31.746 -11.257 -21.453  0.00  0.00    +0.054 C 
ATOM     24  C   UNL     1      33.244 -12.137 -23.131  0.00  0.00    +0.037 C 
ATOM     25  C   UNL     1      32.388 -13.585 -21.396  0.00  0.00    +0.037 C 
ATOM     26  C   UNL     1      32.530 -11.068 -22.591  0.00  0.00    +0.008 C 
ATOM     27  C   UNL     1      31.674 -12.516 -20.856  0.00  0.00    +0.008 C 
BRANCH  22  28
ATOM     28  O   UNL     1      33.871 -14.439 -23.059  0.00  0.00    -0.475 OA
BRANCH  28  29
ATOM     29  C   UNL     1      33.867 -15.661 -22.322  0.00  0.00    +0.205 C 
BRANCH  29  30
ATOM     30  C   UNL     1      34.196 -16.807 -23.269  0.00  0.00    +0.048 C 
BRANCH  30  31
ATOM     31  C   UNL     1      33.957 -18.166 -22.612  0.00  0.00    +0.009 C 
BRANCH  31  32
ATOM     32  C   UNL     1      34.824 -18.337 -21.362  0.00  0.00    +0.026 C 
BRANCH  32  33
ATOM     33  C   UNL     1      34.258 -19.379 -20.431  0.00  0.00    -0.022 C 
ATOM     34  C   UNL     1      32.877 -19.528 -20.308  0.00  0.00    -0.004 C 
ATOM     35  C   UNL     1      35.115 -20.194 -19.692  0.00  0.00    -0.004 C 
ATOM     36  C   UNL     1      32.352 -20.491 -19.447  0.00  0.00    -0.000 C 
ATOM     37  C   UNL     1      34.591 -21.158 -18.831  0.00  0.00    -0.000 C 
ATOM     38  C   UNL     1      33.210 -21.306 -18.708  0.00  0.00    -0.000 C 
ENDBRANCH  32  33
ENDBRANCH  31  32
ENDBRANCH  30  31
ENDBRANCH  29  30
ENDBRANCH  28  29
ENDBRANCH  22  28
ENDBRANCH   3  23
TORSDOF 9
ENDMDL
