MODEL 1
REMARK VINA RESULT:     -11.9      0.000      0.000
REMARK  Name = 59568713
REMARK  8 active torsions:
REMARK  status: ('A' for Active; 'I' for Inactive)
REMARK    1  A    between atoms: N_1  and  C_9
REMARK    2  A    between atoms: N_2  and  C_24
REMARK    3  A    between atoms: C_9  and  C_10
REMARK    4  A    between atoms: C_10  and  C_13
REMARK    5  A    between atoms: C_10  and  O_22
REMARK    6  A    between atoms: C_24  and  C_25
REMARK    7  A    between atoms: C_25  and  C_28
REMARK    8  A    between atoms: C_25  and  O_37
REMARK                            x       y       z     vdW  Elec       q    Type
REMARK                         _______ _______ _______ _____ _____    ______ ____
ROOT
ATOM      1  N   UNL     1      32.909 -12.996 -21.798  0.00  0.00    +0.386 N 
ATOM      2  N   UNL     1      33.750 -15.740 -21.440  0.00  0.00    +0.386 N 
ATOM      3  C   UNL     1      34.165 -14.962 -22.614  0.00  0.00    -0.101 C 
ATOM      4  C   UNL     1      33.530 -14.854 -20.290  0.00  0.00    -0.101 C 
ATOM      5  C   UNL     1      33.130 -13.882 -22.947  0.00  0.00    -0.101 C 
ATOM      6  C   UNL     1      32.495 -13.774 -20.624  0.00  0.00    -0.101 C 
ATOM      7  H   UNL     1      33.788 -12.529 -21.580  0.00  0.00    -0.080 HD
ATOM      8  H   UNL     1      32.869 -16.206 -21.659  0.00  0.00    -0.080 HD
ENDROOT
BRANCH   1   9
ATOM      9  C   UNL     1      31.919 -11.970 -22.117  0.00  0.00    -0.043 C 
BRANCH   9  10
ATOM     10  C   UNL     1      31.314 -11.379 -20.837  0.00  0.00    +0.112 C 
BRANCH  10  13
ATOM     11  O   UNL     1      31.049  -5.493 -19.456  0.00  0.00    -0.440 OA
ATOM     12  O   UNL     1      31.503  -4.828 -21.626  0.00  0.00    -0.245 OA
ATOM     13  C   UNL     1      31.327  -9.867 -20.864  0.00  0.00    -0.002 C 
ATOM     14  C   UNL     1      31.087  -9.130 -19.700  0.00  0.00    -0.024 C 
ATOM     15  C   UNL     1      31.109  -7.750 -19.782  0.00  0.00    +0.023 C 
ATOM     16  C   UNL     1      31.584  -9.218 -22.084  0.00  0.00    -0.002 C 
ATOM     17  C   UNL     1      31.362  -7.125 -20.987  0.00  0.00    +0.075 C 
ATOM     18  C   UNL     1      31.603  -7.824 -22.155  0.00  0.00    +0.006 C 
ATOM     19  C   UNL     1      30.894  -6.739 -18.731  0.00  0.00    +0.235 C 
ATOM     20  C   UNL     1      30.812  -9.806 -18.399  0.00  0.00    +0.031 C 
ATOM     21  C   UNL     1      31.325  -5.686 -20.784  0.00  0.00    +0.341 C 
ENDBRANCH  10  13
BRANCH  10  22
ATOM     22  O   UNL     1      29.963 -11.812 -20.684  0.00  0.00    -0.382 OA
ATOM     23  H   UNL     1      29.783 -12.536 -21.301  0.00  0.00    +0.211 HD
ENDBRANCH  10  22
ENDBRANCH   9  10
ENDBRANCH   1   9
BRANCH   2  24
ATOM     24  C   UNL     1      34.738 -16.768 -21.122  0.00  0.00    -0.043 C 
BRANCH  24  25
ATOM     25  C   UNL     1      34.370 -18.101 -21.784  0.00  0.00    +0.112 C 
BRANCH  25  28
ATOM     26  O   UNL     1      34.101 -22.264 -17.399  0.00  0.00    -0.440 OA
ATOM     27  O   UNL     1      31.799 -22.455 -17.539  0.00  0.00    -0.245 OA
ATOM     28  C   UNL     1      33.927 -19.124 -20.760  0.00  0.00    -0.002 C 
ATOM     29  C   UNL     1      34.862 -19.765 -19.941  0.00  0.00    -0.024 C 
ATOM     30  C   UNL     1      34.402 -20.692 -19.024  0.00  0.00    +0.023 C 
ATOM     31  C   UNL     1      32.556 -19.419 -20.652  0.00  0.00    -0.002 C 
ATOM     32  C   UNL     1      33.055 -20.971 -18.927  0.00  0.00    +0.075 C 
ATOM     33  C   UNL     1      32.105 -20.357 -19.722  0.00  0.00    +0.006 C 
ATOM     34  C   UNL     1      35.151 -21.504 -18.049  0.00  0.00    +0.235 C 
ATOM     35  C   UNL     1      36.318 -19.463 -20.047  0.00  0.00    +0.031 C 
ATOM     36  C   UNL     1      32.856 -21.974 -17.892  0.00  0.00    +0.341 C 
ENDBRANCH  25  28
BRANCH  25  37
ATOM     37  O   UNL     1      33.305 -17.914 -22.716  0.00  0.00    -0.382 OA
ATOM     38  H   UNL     1      32.860 -18.761 -22.873  0.00  0.00    +0.211 HD
ENDBRANCH  25  37
ENDBRANCH  24  25
ENDBRANCH   2  24
TORSDOF 8
ENDMDL
MODEL 2
REMARK VINA RESULT:     -11.9      0.075     11.567
REMARK  Name = 59568713
REMARK  8 active torsions:
REMARK  status: ('A' for Active; 'I' for Inactive)
REMARK    1  A    between atoms: N_1  and  C_9
REMARK    2  A    between atoms: N_2  and  C_24
REMARK    3  A    between atoms: C_9  and  C_10
REMARK    4  A    between atoms: C_10  and  C_13
REMARK    5  A    between atoms: C_10  and  O_22
REMARK    6  A    between atoms: C_24  and  C_25
REMARK    7  A    between atoms: C_25  and  C_28
REMARK    8  A    between atoms: C_25  and  O_37
REMARK                            x       y       z     vdW  Elec       q    Type
REMARK                         _______ _______ _______ _____ _____    ______ ____
ROOT
ATOM      1  N   UNL     1      33.743 -15.728 -21.521  0.00  0.00    +0.386 N 
ATOM      2  N   UNL     1      32.886 -12.981 -21.810  0.00  0.00    +0.386 N 
ATOM      3  C   UNL     1      33.108 -13.838 -22.981  0.00  0.00    -0.101 C 
ATOM      4  C   UNL     1      32.479 -13.788 -20.654  0.00  0.00    -0.101 C 
ATOM      5  C   UNL     1      34.150 -14.919 -22.677  0.00  0.00    -0.101 C 
ATOM      6  C   UNL     1      33.521 -14.871 -20.350  0.00  0.00    -0.101 C 
ATOM      7  H   UNL     1      32.866 -16.195 -21.749  0.00  0.00    -0.080 HD
ATOM      8  H   UNL     1      33.765 -12.515 -21.582  0.00  0.00    -0.080 HD
ENDROOT
BRANCH   1   9
ATOM      9  C   UNL     1      34.740 -16.756 -21.231  0.00  0.00    -0.043 C 
BRANCH   9  10
ATOM     10  C   UNL     1      34.350 -18.092 -21.877  0.00  0.00    +0.112 C 
BRANCH  10  13
ATOM     11  O   UNL     1      34.102 -22.208 -17.447  0.00  0.00    -0.440 OA
ATOM     12  O   UNL     1      31.797 -22.390 -17.565  0.00  0.00    -0.245 OA
ATOM     13  C   UNL     1      33.911 -19.102 -20.840  0.00  0.00    -0.002 C 
ATOM     14  C   UNL     1      34.851 -19.738 -20.022  0.00  0.00    -0.024 C 
ATOM     15  C   UNL     1      34.396 -20.654 -19.091  0.00  0.00    +0.023 C 
ATOM     16  C   UNL     1      32.541 -19.389 -20.716  0.00  0.00    -0.002 C 
ATOM     17  C   UNL     1      33.047 -20.926 -18.981  0.00  0.00    +0.075 C 
ATOM     18  C   UNL     1      32.093 -20.315 -19.773  0.00  0.00    +0.006 C 
ATOM     19  C   UNL     1      35.149 -21.459 -18.114  0.00  0.00    +0.235 C 
ATOM     20  C   UNL     1      36.308 -19.444 -20.143  0.00  0.00    +0.031 C 
ATOM     21  C   UNL     1      32.854 -21.917 -17.933  0.00  0.00    +0.341 C 
ENDBRANCH  10  13
BRANCH  10  22
ATOM     22  O   UNL     1      33.275 -17.901 -22.796  0.00  0.00    -0.382 OA
ATOM     23  H   UNL     1      32.508 -18.419 -22.510  0.00  0.00    +0.211 HD
ENDBRANCH  10  22
ENDBRANCH   9  10
ENDBRANCH   1   9
BRANCH   2  24
ATOM     24  C   UNL     1      31.892 -11.951 -22.100  0.00  0.00    -0.043 C 
BRANCH  24  25
ATOM     25  C   UNL     1      31.308 -11.376 -20.803  0.00  0.00    +0.112 C 
BRANCH  25  28
ATOM     26  O   UNL     1      31.015  -5.504 -19.367  0.00  0.00    -0.440 OA
ATOM     27  O   UNL     1      31.448  -4.817 -21.534  0.00  0.00    -0.245 OA
ATOM     28  C   UNL     1      31.310  -9.863 -20.817  0.00  0.00    -0.002 C 
ATOM     29  C   UNL     1      31.074  -9.139 -19.645  0.00  0.00    -0.024 C 
ATOM     30  C   UNL     1      31.087  -7.758 -19.715  0.00  0.00    +0.023 C 
ATOM     31  C   UNL     1      31.553  -9.201 -22.034  0.00  0.00    -0.002 C 
ATOM     32  C   UNL     1      31.327  -7.120 -20.915  0.00  0.00    +0.075 C 
ATOM     33  C   UNL     1      31.563  -7.807 -22.091  0.00  0.00    +0.006 C 
ATOM     34  C   UNL     1      30.873  -6.758 -18.654  0.00  0.00    +0.235 C 
ATOM     35  C   UNL     1      30.814  -9.828 -18.349  0.00  0.00    +0.031 C 
ATOM     36  C   UNL     1      31.281  -5.683 -20.700  0.00  0.00    +0.341 C 
ENDBRANCH  25  28
BRANCH  25  37
ATOM     37  O   UNL     1      29.961 -11.818 -20.629  0.00  0.00    -0.382 OA
ATOM     38  H   UNL     1      29.378 -11.048 -20.544  0.00  0.00    +0.211 HD
ENDBRANCH  25  37
ENDBRANCH  24  25
ENDBRANCH   2  24
TORSDOF 8
ENDMDL
MODEL 3
REMARK VINA RESULT:     -11.3      1.302     11.646
REMARK  Name = 59568713
REMARK  8 active torsions:
REMARK  status: ('A' for Active; 'I' for Inactive)
REMARK    1  A    between atoms: N_1  and  C_9
REMARK    2  A    between atoms: N_2  and  C_24
REMARK    3  A    between atoms: C_9  and  C_10
REMARK    4  A    between atoms: C_10  and  C_13
REMARK    5  A    between atoms: C_10  and  O_22
REMARK    6  A    between atoms: C_24  and  C_25
REMARK    7  A    between atoms: C_25  and  C_28
REMARK    8  A    between atoms: C_25  and  O_37
REMARK                            x       y       z     vdW  Elec       q    Type
REMARK                         _______ _______ _______ _____ _____    ______ ____
ROOT
ATOM      1  N   UNL     1      33.678 -15.647 -21.718  0.00  0.00    +0.386 N 
ATOM      2  N   UNL     1      33.042 -12.969 -22.605  0.00  0.00    +0.386 N 
ATOM      3  C   UNL     1      33.237 -14.064 -23.564  0.00  0.00    -0.101 C 
ATOM      4  C   UNL     1      32.536 -13.489 -21.330  0.00  0.00    -0.101 C 
ATOM      5  C   UNL     1      34.183 -15.126 -22.994  0.00  0.00    -0.101 C 
ATOM      6  C   UNL     1      33.481 -14.552 -20.760  0.00  0.00    -0.101 C 
ATOM      7  H   UNL     1      32.776 -16.091 -21.888  0.00  0.00    -0.080 HD
ATOM      8  H   UNL     1      33.946 -12.526 -22.435  0.00  0.00    -0.080 HD
ENDROOT
BRANCH   1   9
ATOM      9  C   UNL     1      34.583 -16.656 -21.175  0.00  0.00    -0.043 C 
BRANCH   9  10
ATOM     10  C   UNL     1      34.333 -18.022 -21.828  0.00  0.00    +0.112 C 
BRANCH  10  13
ATOM     11  O   UNL     1      34.148 -22.213 -17.467  0.00  0.00    -0.440 OA
ATOM     12  O   UNL     1      31.847 -22.429 -17.589  0.00  0.00    -0.245 OA
ATOM     13  C   UNL     1      33.910 -19.056 -20.808  0.00  0.00    -0.002 C 
ATOM     14  C   UNL     1      34.860 -19.690 -20.000  0.00  0.00    -0.024 C 
ATOM     15  C   UNL     1      34.418 -20.628 -19.085  0.00  0.00    +0.023 C 
ATOM     16  C   UNL     1      32.545 -19.366 -20.690  0.00  0.00    -0.002 C 
ATOM     17  C   UNL     1      33.074 -20.923 -18.980  0.00  0.00    +0.075 C 
ATOM     18  C   UNL     1      32.111 -20.314 -19.763  0.00  0.00    +0.006 C 
ATOM     19  C   UNL     1      35.184 -21.438 -18.120  0.00  0.00    +0.235 C 
ATOM     20  C   UNL     1      36.312 -19.371 -20.116  0.00  0.00    +0.031 C 
ATOM     21  C   UNL     1      32.896 -21.934 -17.949  0.00  0.00    +0.341 C 
ENDBRANCH  10  13
BRANCH  10  22
ATOM     22  O   UNL     1      33.305 -17.918 -22.812  0.00  0.00    -0.382 OA
ATOM     23  H   UNL     1      32.710 -17.188 -22.583  0.00  0.00    +0.211 HD
ENDBRANCH  10  22
ENDBRANCH   9  10
ENDBRANCH   1   9
BRANCH   2  24
ATOM     24  C   UNL     1      32.139 -11.957 -23.149  0.00  0.00    -0.043 C 
BRANCH  24  25
ATOM     25  C   UNL     1      32.914 -10.700 -23.562  0.00  0.00    +0.112 C 
BRANCH  25  28
ATOM     26  O   UNL     1      31.798  -5.079 -21.616  0.00  0.00    -0.440 OA
ATOM     27  O   UNL     1      30.489  -5.807 -19.852  0.00  0.00    -0.245 OA
ATOM     28  C   UNL     1      32.431  -9.479 -22.808  0.00  0.00    -0.002 C 
ATOM     29  C   UNL     1      32.797  -8.195 -23.223  0.00  0.00    -0.024 C 
ATOM     30  C   UNL     1      32.328  -7.115 -22.497  0.00  0.00    +0.023 C 
ATOM     31  C   UNL     1      31.610  -9.664 -21.681  0.00  0.00    -0.002 C 
ATOM     32  C   UNL     1      31.523  -7.310 -21.394  0.00  0.00    +0.075 C 
ATOM     33  C   UNL     1      31.144  -8.566 -20.957  0.00  0.00    +0.006 C 
ATOM     34  C   UNL     1      32.550  -5.673 -22.703  0.00  0.00    +0.235 C 
ATOM     35  C   UNL     1      33.667  -7.985 -24.414  0.00  0.00    +0.031 C 
ATOM     36  C   UNL     1      31.182  -6.014 -20.827  0.00  0.00    +0.341 C 
ENDBRANCH  25  28
BRANCH  25  37
ATOM     37  O   UNL     1      34.306 -10.867 -23.295  0.00  0.00    -0.382 OA
ATOM     38  H   UNL     1      34.819 -10.301 -23.892  0.00  0.00    +0.211 HD
ENDBRANCH  25  37
ENDBRANCH  24  25
ENDBRANCH   2  24
TORSDOF 8
ENDMDL
MODEL 4
REMARK VINA RESULT:     -11.2      2.743      5.003
REMARK  Name = 59568713
REMARK  8 active torsions:
REMARK  status: ('A' for Active; 'I' for Inactive)
REMARK    1  A    between atoms: N_1  and  C_9
REMARK    2  A    between atoms: N_2  and  C_24
REMARK    3  A    between atoms: C_9  and  C_10
REMARK    4  A    between atoms: C_10  and  C_13
REMARK    5  A    between atoms: C_10  and  O_22
REMARK    6  A    between atoms: C_24  and  C_25
REMARK    7  A    between atoms: C_25  and  C_28
REMARK    8  A    between atoms: C_25  and  O_37
REMARK                            x       y       z     vdW  Elec       q    Type
REMARK                         _______ _______ _______ _____ _____    ______ ____
ROOT
ATOM      1  N   UNL     1      30.726  -9.345 -20.096  0.00  0.00    +0.386 N 
ATOM      2  N   UNL     1      31.824 -11.748 -21.270  0.00  0.00    +0.386 N 
ATOM      3  C   UNL     1      30.900 -11.809 -20.131  0.00  0.00    -0.101 C 
ATOM      4  C   UNL     1      31.555 -10.557 -22.084  0.00  0.00    -0.101 C 
ATOM      5  C   UNL     1      30.994 -10.537 -19.282  0.00  0.00    -0.101 C 
ATOM      6  C   UNL     1      31.648  -9.283 -21.236  0.00  0.00    -0.101 C 
ATOM      7  H   UNL     1      29.774  -9.410 -20.456  0.00  0.00    -0.080 HD
ATOM      8  H   UNL     1      32.776 -11.681 -20.908  0.00  0.00    -0.080 HD
ENDROOT
BRANCH   1   9
ATOM      9  C   UNL     1      30.820  -8.132 -19.286  0.00  0.00    -0.043 C 
BRANCH   9  10
ATOM     10  C   UNL     1      31.915  -7.201 -19.823  0.00  0.00    +0.112 C 
BRANCH  10  13
ATOM     11  O   UNL     1      30.717  -2.854 -23.860  0.00  0.00    -0.440 OA
ATOM     12  O   UNL     1      28.879  -2.084 -22.683  0.00  0.00    -0.245 OA
ATOM     13  C   UNL     1      31.326  -6.039 -20.592  0.00  0.00    -0.002 C 
ATOM     14  C   UNL     1      31.903  -5.614 -21.793  0.00  0.00    -0.024 C 
ATOM     15  C   UNL     1      31.325  -4.546 -22.455  0.00  0.00    +0.023 C 
ATOM     16  C   UNL     1      30.189  -5.395 -20.075  0.00  0.00    -0.002 C 
ATOM     17  C   UNL     1      30.209  -3.922 -21.935  0.00  0.00    +0.075 C 
ATOM     18  C   UNL     1      29.615  -4.318 -20.751  0.00  0.00    +0.006 C 
ATOM     19  C   UNL     1      31.714  -3.897 -23.720  0.00  0.00    +0.235 C 
ATOM     20  C   UNL     1      33.109  -6.287 -22.354  0.00  0.00    +0.031 C 
ATOM     21  C   UNL     1      29.817  -2.843 -22.827  0.00  0.00    +0.341 C 
ENDBRANCH  10  13
BRANCH  10  22
ATOM     22  O   UNL     1      32.690  -6.676 -18.746  0.00  0.00    -0.382 OA
ATOM     23  H   UNL     1      32.747  -7.335 -18.037  0.00  0.00    +0.211 HD
ENDBRANCH  10  22
ENDBRANCH   9  10
ENDBRANCH   1   9
BRANCH   2  24
ATOM     24  C   UNL     1      31.732 -12.961 -22.079  0.00  0.00    -0.043 C 
BRANCH  24  25
ATOM     25  C   UNL     1      33.064 -13.248 -22.784  0.00  0.00    +0.112 C 
BRANCH  25  28
ATOM     26  O   UNL     1      34.544 -18.945 -21.375  0.00  0.00    -0.440 OA
ATOM     27  O   UNL     1      34.271 -19.694 -23.548  0.00  0.00    -0.245 OA
ATOM     28  C   UNL     1      33.371 -14.730 -22.805  0.00  0.00    -0.002 C 
ATOM     29  C   UNL     1      33.744 -15.398 -21.635  0.00  0.00    -0.024 C 
ATOM     30  C   UNL     1      34.014 -16.752 -21.712  0.00  0.00    +0.023 C 
ATOM     31  C   UNL     1      33.274 -15.421 -24.027  0.00  0.00    -0.002 C 
ATOM     32  C   UNL     1      33.916 -17.418 -22.916  0.00  0.00    +0.075 C 
ATOM     33  C   UNL     1      33.550 -16.787 -24.091  0.00  0.00    +0.006 C 
ATOM     34  C   UNL     1      34.422 -17.693 -20.654  0.00  0.00    +0.235 C 
ATOM     35  C   UNL     1      33.851 -14.678 -20.334  0.00  0.00    +0.031 C 
ATOM     36  C   UNL     1      34.253 -18.817 -22.708  0.00  0.00    +0.341 C 
ENDBRANCH  25  28
BRANCH  25  37
ATOM     37  O   UNL     1      33.020 -12.783 -24.133  0.00  0.00    -0.382 OA
ATOM     38  H   UNL     1      32.895 -13.536 -24.730  0.00  0.00    +0.211 HD
ENDBRANCH  25  37
ENDBRANCH  24  25
ENDBRANCH   2  24
TORSDOF 8
ENDMDL
MODEL 5
REMARK VINA RESULT:     -11.2      2.728     12.159
REMARK  Name = 59568713
REMARK  8 active torsions:
REMARK  status: ('A' for Active; 'I' for Inactive)
REMARK    1  A    between atoms: N_1  and  C_9
REMARK    2  A    between atoms: N_2  and  C_24
REMARK    3  A    between atoms: C_9  and  C_10
REMARK    4  A    between atoms: C_10  and  C_13
REMARK    5  A    between atoms: C_10  and  O_22
REMARK    6  A    between atoms: C_24  and  C_25
REMARK    7  A    between atoms: C_25  and  C_28
REMARK    8  A    between atoms: C_25  and  O_37
REMARK                            x       y       z     vdW  Elec       q    Type
REMARK                         _______ _______ _______ _____ _____    ______ ____
ROOT
ATOM      1  N   UNL     1      31.843 -11.785 -21.275  0.00  0.00    +0.386 N 
ATOM      2  N   UNL     1      30.735  -9.382 -20.109  0.00  0.00    +0.386 N 
ATOM      3  C   UNL     1      31.011 -10.570 -19.291  0.00  0.00    -0.101 C 
ATOM      4  C   UNL     1      31.657  -9.320 -21.249  0.00  0.00    -0.101 C 
ATOM      5  C   UNL     1      30.921 -11.846 -20.135  0.00  0.00    -0.101 C 
ATOM      6  C   UNL     1      31.569 -10.597 -22.093  0.00  0.00    -0.101 C 
ATOM      7  H   UNL     1      32.795 -11.715 -20.916  0.00  0.00    -0.080 HD
ATOM      8  H   UNL     1      29.783  -9.454 -20.470  0.00  0.00    -0.080 HD
ENDROOT
BRANCH   1   9
ATOM      9  C   UNL     1      31.754 -13.001 -22.081  0.00  0.00    -0.043 C 
BRANCH   9  10
ATOM     10  C   UNL     1      33.087 -13.290 -22.782  0.00  0.00    +0.112 C 
BRANCH  10  13
ATOM     11  O   UNL     1      34.544 -18.998 -21.398  0.00  0.00    -0.440 OA
ATOM     12  O   UNL     1      34.271 -19.736 -23.575  0.00  0.00    -0.245 OA
ATOM     13  C   UNL     1      33.389 -14.773 -22.810  0.00  0.00    -0.002 C 
ATOM     14  C   UNL     1      33.757 -15.447 -21.642  0.00  0.00    -0.024 C 
ATOM     15  C   UNL     1      34.023 -16.802 -21.725  0.00  0.00    +0.023 C 
ATOM     16  C   UNL     1      33.291 -15.457 -24.034  0.00  0.00    -0.002 C 
ATOM     17  C   UNL     1      33.924 -17.461 -22.933  0.00  0.00    +0.075 C 
ATOM     18  C   UNL     1      33.562 -16.824 -24.105  0.00  0.00    +0.006 C 
ATOM     19  C   UNL     1      34.425 -17.750 -20.671  0.00  0.00    +0.235 C 
ATOM     20  C   UNL     1      33.865 -14.734 -20.337  0.00  0.00    +0.031 C 
ATOM     21  C   UNL     1      34.255 -18.863 -22.730  0.00  0.00    +0.341 C 
ENDBRANCH  10  13
BRANCH  10  22
ATOM     22  O   UNL     1      33.051 -12.816 -24.128  0.00  0.00    -0.382 OA
ATOM     23  H   UNL     1      33.333 -13.523 -24.728  0.00  0.00    +0.211 HD
ENDBRANCH  10  22
ENDBRANCH   9  10
ENDBRANCH   1   9
BRANCH   2  24
ATOM     24  C   UNL     1      30.822  -8.166 -19.305  0.00  0.00    -0.043 C 
BRANCH  24  25
ATOM     25  C   UNL     1      31.923  -7.239 -19.834  0.00  0.00    +0.112 C 
BRANCH  25  28
ATOM     26  O   UNL     1      30.768  -2.937 -23.932  0.00  0.00    -0.440 OA
ATOM     27  O   UNL     1      28.924  -2.147 -22.778  0.00  0.00    -0.245 OA
ATOM     28  C   UNL     1      31.343  -6.084 -20.622  0.00  0.00    -0.002 C 
ATOM     29  C   UNL     1      31.930  -5.674 -21.823  0.00  0.00    -0.024 C 
ATOM     30  C   UNL     1      31.360  -4.613 -22.502  0.00  0.00    +0.023 C 
ATOM     31  C   UNL     1      30.204  -5.430 -20.120  0.00  0.00    -0.002 C 
ATOM     32  C   UNL     1      30.242  -3.980 -21.998  0.00  0.00    +0.075 C 
ATOM     33  C   UNL     1      29.639  -4.360 -20.814  0.00  0.00    +0.006 C 
ATOM     34  C   UNL     1      31.761  -3.981 -23.771  0.00  0.00    +0.235 C 
ATOM     35  C   UNL     1      33.139  -6.358 -22.366  0.00  0.00    +0.031 C 
ATOM     36  C   UNL     1      29.860  -2.910 -22.906  0.00  0.00    +0.341 C 
ENDBRANCH  25  28
BRANCH  25  37
ATOM     37  O   UNL     1      32.682  -6.703 -18.750  0.00  0.00    -0.382 OA
ATOM     38  H   UNL     1      32.802  -5.749 -18.881  0.00  0.00    +0.211 HD
ENDBRANCH  25  37
ENDBRANCH  24  25
ENDBRANCH   2  24
TORSDOF 8
ENDMDL
MODEL 6
REMARK VINA RESULT:     -10.9      2.098     11.836
REMARK  Name = 59568713
REMARK  8 active torsions:
REMARK  status: ('A' for Active; 'I' for Inactive)
REMARK    1  A    between atoms: N_1  and  C_9
REMARK    2  A    between atoms: N_2  and  C_24
REMARK    3  A    between atoms: C_9  and  C_10
REMARK    4  A    between atoms: C_10  and  C_13
REMARK    5  A    between atoms: C_10  and  O_22
REMARK    6  A    between atoms: C_24  and  C_25
REMARK    7  A    between atoms: C_25  and  C_28
REMARK    8  A    between atoms: C_25  and  O_37
REMARK                            x       y       z     vdW  Elec       q    Type
REMARK                         _______ _______ _______ _____ _____    ______ ____
ROOT
ATOM      1  N   UNL     1      33.744 -16.233 -23.348  0.00  0.00    +0.386 N 
ATOM      2  N   UNL     1      32.738 -13.534 -23.597  0.00  0.00    +0.386 N 
ATOM      3  C   UNL     1      33.835 -13.857 -22.677  0.00  0.00    -0.101 C 
ATOM      4  C   UNL     1      32.739 -14.455 -24.740  0.00  0.00    -0.101 C 
ATOM      5  C   UNL     1      33.743 -15.312 -22.206  0.00  0.00    -0.101 C 
ATOM      6  C   UNL     1      32.647 -15.910 -24.268  0.00  0.00    -0.101 C 
ATOM      7  H   UNL     1      34.626 -16.123 -23.848  0.00  0.00    -0.080 HD
ATOM      8  H   UNL     1      31.855 -13.646 -23.096  0.00  0.00    -0.080 HD
ENDROOT
BRANCH   1   9
ATOM      9  C   UNL     1      33.652 -17.620 -22.897  0.00  0.00    -0.043 C 
BRANCH   9  10
ATOM     10  C   UNL     1      34.660 -17.897 -21.774  0.00  0.00    +0.112 C 
BRANCH  10  13
ATOM     11  O   UNL     1      34.093 -22.182 -17.539  0.00  0.00    -0.440 OA
ATOM     12  O   UNL     1      31.811 -22.390 -17.866  0.00  0.00    -0.245 OA
ATOM     13  C   UNL     1      34.149 -18.952 -20.817  0.00  0.00    -0.002 C 
ATOM     14  C   UNL     1      35.024 -19.606 -19.944  0.00  0.00    -0.024 C 
ATOM     15  C   UNL     1      34.504 -20.562 -19.092  0.00  0.00    +0.023 C 
ATOM     16  C   UNL     1      32.779 -19.261 -20.825  0.00  0.00    -0.002 C 
ATOM     17  C   UNL     1      33.156 -20.857 -19.111  0.00  0.00    +0.075 C 
ATOM     18  C   UNL     1      32.265 -20.229 -19.961  0.00  0.00    +0.006 C 
ATOM     19  C   UNL     1      35.182 -21.395 -18.082  0.00  0.00    +0.235 C 
ATOM     20  C   UNL     1      36.481 -19.288 -19.925  0.00  0.00    +0.031 C 
ATOM     21  C   UNL     1      32.888 -21.889 -18.122  0.00  0.00    +0.341 C 
ENDBRANCH  10  13
BRANCH  10  22
ATOM     22  O   UNL     1      35.897 -18.352 -22.321  0.00  0.00    -0.382 OA
ATOM     23  H   UNL     1      35.759 -18.641 -23.236  0.00  0.00    +0.211 HD
ENDBRANCH  10  22
ENDBRANCH   9  10
ENDBRANCH   1   9
BRANCH   2  24
ATOM     24  C   UNL     1      32.827 -12.147 -24.047  0.00  0.00    -0.043 C 
BRANCH  24  25
ATOM     25  C   UNL     1      33.017 -11.198 -22.857  0.00  0.00    +0.112 C 
BRANCH  25  28
ATOM     26  O   UNL     1      33.143  -5.638 -25.242  0.00  0.00    -0.440 OA
ATOM     27  O   UNL     1      31.232  -4.969 -24.120  0.00  0.00    -0.245 OA
ATOM     28  C   UNL     1      32.732  -9.763 -23.242  0.00  0.00    -0.002 C 
ATOM     29  C   UNL     1      33.569  -9.084 -24.133  0.00  0.00    -0.024 C 
ATOM     30  C   UNL     1      33.262  -7.773 -24.449  0.00  0.00    +0.023 C 
ATOM     31  C   UNL     1      31.609  -9.126 -22.684  0.00  0.00    -0.002 C 
ATOM     32  C   UNL     1      32.158  -7.160 -23.895  0.00  0.00    +0.075 C 
ATOM     33  C   UNL     1      31.311  -7.803 -23.011  0.00  0.00    +0.006 C 
ATOM     34  C   UNL     1      33.957  -6.832 -25.345  0.00  0.00    +0.235 C 
ATOM     35  C   UNL     1      34.763  -9.747 -24.731  0.00  0.00    +0.031 C 
ATOM     36  C   UNL     1      32.076  -5.797 -24.396  0.00  0.00    +0.341 C 
ENDBRANCH  25  28
BRANCH  25  37
ATOM     37  O   UNL     1      32.136 -11.558 -21.793  0.00  0.00    -0.382 OA
ATOM     38  H   UNL     1      31.218 -11.438 -22.079  0.00  0.00    +0.211 HD
ENDBRANCH  25  37
ENDBRANCH  24  25
ENDBRANCH   2  24
TORSDOF 8
ENDMDL
MODEL 7
REMARK VINA RESULT:     -10.9      2.071      3.013
REMARK  Name = 59568713
REMARK  8 active torsions:
REMARK  status: ('A' for Active; 'I' for Inactive)
REMARK    1  A    between atoms: N_1  and  C_9
REMARK    2  A    between atoms: N_2  and  C_24
REMARK    3  A    between atoms: C_9  and  C_10
REMARK    4  A    between atoms: C_10  and  C_13
REMARK    5  A    between atoms: C_10  and  O_22
REMARK    6  A    between atoms: C_24  and  C_25
REMARK    7  A    between atoms: C_25  and  C_28
REMARK    8  A    between atoms: C_25  and  O_37
REMARK                            x       y       z     vdW  Elec       q    Type
REMARK                         _______ _______ _______ _____ _____    ______ ____
ROOT
ATOM      1  N   UNL     1      32.693 -13.500 -23.547  0.00  0.00    +0.386 N 
ATOM      2  N   UNL     1      33.721 -16.192 -23.316  0.00  0.00    +0.386 N 
ATOM      3  C   UNL     1      33.731 -15.272 -22.173  0.00  0.00    -0.101 C 
ATOM      4  C   UNL     1      32.607 -15.877 -24.218  0.00  0.00    -0.101 C 
ATOM      5  C   UNL     1      33.807 -13.816 -22.645  0.00  0.00    -0.101 C 
ATOM      6  C   UNL     1      32.682 -14.421 -24.690  0.00  0.00    -0.101 C 
ATOM      7  H   UNL     1      31.820 -13.616 -23.033  0.00  0.00    -0.080 HD
ATOM      8  H   UNL     1      34.594 -16.074 -23.831  0.00  0.00    -0.080 HD
ENDROOT
BRANCH   1   9
ATOM      9  C   UNL     1      32.769 -12.112 -23.999  0.00  0.00    -0.043 C 
BRANCH   9  10
ATOM     10  C   UNL     1      32.952 -11.160 -22.810  0.00  0.00    +0.112 C 
BRANCH  10  13
ATOM     11  O   UNL     1      33.199  -5.635 -25.266  0.00  0.00    -0.440 OA
ATOM     12  O   UNL     1      31.327  -4.898 -24.122  0.00  0.00    -0.245 OA
ATOM     13  C   UNL     1      32.702  -9.722 -23.208  0.00  0.00    -0.002 C 
ATOM     14  C   UNL     1      33.543  -9.079 -24.122  0.00  0.00    -0.024 C 
ATOM     15  C   UNL     1      33.270  -7.763 -24.450  0.00  0.00    +0.023 C 
ATOM     16  C   UNL     1      31.609  -9.047 -22.641  0.00  0.00    -0.002 C 
ATOM     17  C   UNL     1      32.193  -7.112 -23.884  0.00  0.00    +0.075 C 
ATOM     18  C   UNL     1      31.343  -7.719 -22.978  0.00  0.00    +0.006 C 
ATOM     19  C   UNL     1      33.976  -6.854 -25.369  0.00  0.00    +0.235 C 
ATOM     20  C   UNL     1      34.708  -9.784 -24.731  0.00  0.00    +0.031 C 
ATOM     21  C   UNL     1      32.143  -5.753 -24.402  0.00  0.00    +0.341 C 
ENDBRANCH  10  13
BRANCH  10  22
ATOM     22  O   UNL     1      32.044 -11.498 -21.763  0.00  0.00    -0.382 OA
ATOM     23  H   UNL     1      31.235 -11.872 -22.144  0.00  0.00    +0.211 HD
ENDBRANCH  10  22
ENDBRANCH   9  10
ENDBRANCH   1   9
BRANCH   2  24
ATOM     24  C   UNL     1      33.647 -17.580 -22.865  0.00  0.00    -0.043 C 
BRANCH  24  25
ATOM     25  C   UNL     1      34.641 -17.837 -21.726  0.00  0.00    +0.112 C 
BRANCH  25  28
ATOM     26  O   UNL     1      34.122 -22.208 -17.572  0.00  0.00    -0.440 OA
ATOM     27  O   UNL     1      31.840 -22.423 -17.891  0.00  0.00    -0.245 OA
ATOM     28  C   UNL     1      34.141 -18.914 -20.787  0.00  0.00    -0.002 C 
ATOM     29  C   UNL     1      35.025 -19.581 -19.932  0.00  0.00    -0.024 C 
ATOM     30  C   UNL     1      34.515 -20.556 -19.096  0.00  0.00    +0.023 C 
ATOM     31  C   UNL     1      32.771 -19.231 -20.794  0.00  0.00    -0.002 C 
ATOM     32  C   UNL     1      33.169 -20.858 -19.112  0.00  0.00    +0.075 C 
ATOM     33  C   UNL     1      32.270 -20.219 -19.945  0.00  0.00    +0.006 C 
ATOM     34  C   UNL     1      35.204 -21.405 -18.107  0.00  0.00    +0.235 C 
ATOM     35  C   UNL     1      36.479 -19.255 -19.916  0.00  0.00    +0.031 C 
ATOM     36  C   UNL     1      32.912 -21.912 -18.143  0.00  0.00    +0.341 C 
ENDBRANCH  25  28
BRANCH  25  37
ATOM     37  O   UNL     1      35.900 -18.255 -22.253  0.00  0.00    -0.382 OA
ATOM     38  H   UNL     1      36.164 -19.090 -21.836  0.00  0.00    +0.211 HD
ENDBRANCH  25  37
ENDBRANCH  24  25
ENDBRANCH   2  24
TORSDOF 8
ENDMDL
MODEL 8
REMARK VINA RESULT:     -10.6      2.206     11.442
REMARK  Name = 59568713
REMARK  8 active torsions:
REMARK  status: ('A' for Active; 'I' for Inactive)
REMARK    1  A    between atoms: N_1  and  C_9
REMARK    2  A    between atoms: N_2  and  C_24
REMARK    3  A    between atoms: C_9  and  C_10
REMARK    4  A    between atoms: C_10  and  C_13
REMARK    5  A    between atoms: C_10  and  O_22
REMARK    6  A    between atoms: C_24  and  C_25
REMARK    7  A    between atoms: C_25  and  C_28
REMARK    8  A    between atoms: C_25  and  O_37
REMARK                            x       y       z     vdW  Elec       q    Type
REMARK                         _______ _______ _______ _____ _____    ______ ____
ROOT
ATOM      1  N   UNL     1      34.085 -18.283 -21.091  0.00  0.00    +0.386 N 
ATOM      2  N   UNL     1      34.614 -15.993 -22.774  0.00  0.00    +0.386 N 
ATOM      3  C   UNL     1      34.187 -17.276 -23.345  0.00  0.00    -0.101 C 
ATOM      4  C   UNL     1      34.081 -15.833 -21.416  0.00  0.00    -0.101 C 
ATOM      5  C   UNL     1      34.618 -18.442 -22.449  0.00  0.00    -0.101 C 
ATOM      6  C   UNL     1      34.512 -17.000 -20.520  0.00  0.00    -0.101 C 
ATOM      7  H   UNL     1      33.067 -18.290 -21.142  0.00  0.00    -0.080 HD
ATOM      8  H   UNL     1      35.633 -15.988 -22.721  0.00  0.00    -0.080 HD
ENDROOT
BRANCH   1   9
ATOM      9  C   UNL     1      34.501 -19.394 -20.237  0.00  0.00    -0.043 C 
BRANCH   9  10
ATOM     10  C   UNL     1      33.393 -20.451 -20.139  0.00  0.00    +0.112 C 
BRANCH  10  13
ATOM     11  O   UNL     1      35.022 -22.955 -14.877  0.00  0.00    -0.440 OA
ATOM     12  O   UNL     1      32.879 -23.700 -14.416  0.00  0.00    -0.245 OA
ATOM     13  C   UNL     1      33.428 -21.170 -18.809  0.00  0.00    -0.002 C 
ATOM     14  C   UNL     1      34.625 -21.286 -18.093  0.00  0.00    -0.024 C 
ATOM     15  C   UNL     1      34.600 -21.954 -16.882  0.00  0.00    +0.023 C 
ATOM     16  C   UNL     1      32.236 -21.718 -18.307  0.00  0.00    -0.002 C 
ATOM     17  C   UNL     1      33.422 -22.489 -16.402  0.00  0.00    +0.075 C 
ATOM     18  C   UNL     1      32.224 -22.391 -17.085  0.00  0.00    +0.006 C 
ATOM     19  C   UNL     1      35.694 -22.222 -15.931  0.00  0.00    +0.235 C 
ATOM     20  C   UNL     1      35.897 -20.710 -18.614  0.00  0.00    +0.031 C 
ATOM     21  C   UNL     1      33.685 -23.128 -15.122  0.00  0.00    +0.341 C 
ENDBRANCH  10  13
BRANCH  10  22
ATOM     22  O   UNL     1      32.112 -19.839 -20.282  0.00  0.00    -0.382 OA
ATOM     23  H   UNL     1      31.514 -20.444 -20.748  0.00  0.00    +0.211 HD
ENDBRANCH  10  22
ENDBRANCH   9  10
ENDBRANCH   1   9
BRANCH   2  24
ATOM     24  C   UNL     1      34.202 -14.882 -23.628  0.00  0.00    -0.043 C 
BRANCH  24  25
ATOM     25  C   UNL     1      32.780 -14.423 -23.278  0.00  0.00    +0.112 C 
BRANCH  25  28
ATOM     26  O   UNL     1      31.693  -8.732 -21.531  0.00  0.00    -0.440 OA
ATOM     27  O   UNL     1      32.749  -7.822 -23.379  0.00  0.00    -0.245 OA
ATOM     28  C   UNL     1      32.696 -12.916 -23.165  0.00  0.00    -0.002 C 
ATOM     29  C   UNL     1      32.056 -12.318 -22.075  0.00  0.00    -0.024 C 
ATOM     30  C   UNL     1      32.007 -10.937 -22.022  0.00  0.00    +0.023 C 
ATOM     31  C   UNL     1      33.272 -12.131 -24.179  0.00  0.00    -0.002 C 
ATOM     32  C   UNL     1      32.577 -10.178 -23.024  0.00  0.00    +0.075 C 
ATOM     33  C   UNL     1      33.216 -10.738 -24.115  0.00  0.00    +0.006 C 
ATOM     34  C   UNL     1      31.408 -10.053 -21.007  0.00  0.00    +0.235 C 
ATOM     35  C   UNL     1      31.440 -13.138 -20.994  0.00  0.00    +0.031 C 
ATOM     36  C   UNL     1      32.379  -8.770 -22.717  0.00  0.00    +0.341 C 
ENDBRANCH  25  28
BRANCH  25  37
ATOM     37  O   UNL     1      31.862 -14.847 -24.286  0.00  0.00    -0.382 OA
ATOM     38  H   UNL     1      32.206 -15.641 -24.722  0.00  0.00    +0.211 HD
ENDBRANCH  25  37
ENDBRANCH  24  25
ENDBRANCH   2  24
TORSDOF 8
ENDMDL
MODEL 9
REMARK VINA RESULT:     -10.5      4.123      7.586
REMARK  Name = 59568713
REMARK  8 active torsions:
REMARK  status: ('A' for Active; 'I' for Inactive)
REMARK    1  A    between atoms: N_1  and  C_9
REMARK    2  A    between atoms: N_2  and  C_24
REMARK    3  A    between atoms: C_9  and  C_10
REMARK    4  A    between atoms: C_10  and  C_13
REMARK    5  A    between atoms: C_10  and  O_22
REMARK    6  A    between atoms: C_24  and  C_25
REMARK    7  A    between atoms: C_25  and  C_28
REMARK    8  A    between atoms: C_25  and  O_37
REMARK                            x       y       z     vdW  Elec       q    Type
REMARK                         _______ _______ _______ _____ _____    ______ ____
ROOT
ATOM      1  N   UNL     1      34.111 -19.669 -20.069  0.00  0.00    +0.386 N 
ATOM      2  N   UNL     1      33.332 -21.753 -18.222  0.00  0.00    +0.386 N 
ATOM      3  C   UNL     1      32.380 -21.200 -19.194  0.00  0.00    -0.101 C 
ATOM      4  C   UNL     1      34.702 -21.670 -18.742  0.00  0.00    -0.101 C 
ATOM      5  C   UNL     1      32.741 -19.754 -19.548  0.00  0.00    -0.101 C 
ATOM      6  C   UNL     1      35.063 -20.223 -19.098  0.00  0.00    -0.101 C 
ATOM      7  H   UNL     1      34.165 -20.223 -20.923  0.00  0.00    -0.080 HD
ATOM      8  H   UNL     1      33.279 -21.198 -17.368  0.00  0.00    -0.080 HD
ENDROOT
BRANCH   1   9
ATOM      9  C   UNL     1      34.455 -18.288 -20.403  0.00  0.00    -0.043 C 
BRANCH   9  10
ATOM     10  C   UNL     1      34.469 -18.082 -21.923  0.00  0.00    +0.112 C 
BRANCH  10  13
ATOM     11  O   UNL     1      32.397 -13.146 -24.744  0.00  0.00    -0.440 OA
ATOM     12  O   UNL     1      32.810 -11.772 -22.927  0.00  0.00    -0.245 OA
ATOM     13  C   UNL     1      34.042 -16.680 -22.296  0.00  0.00    -0.002 C 
ATOM     14  C   UNL     1      33.507 -16.410 -23.560  0.00  0.00    -0.024 C 
ATOM     15  C   UNL     1      33.134 -15.110 -23.849  0.00  0.00    +0.023 C 
ATOM     16  C   UNL     1      34.195 -15.655 -21.347  0.00  0.00    -0.002 C 
ATOM     17  C   UNL     1      33.290 -14.112 -22.908  0.00  0.00    +0.075 C 
ATOM     18  C   UNL     1      33.816 -14.346 -21.650  0.00  0.00    +0.006 C 
ATOM     19  C   UNL     1      32.551 -14.547 -25.080  0.00  0.00    +0.235 C 
ATOM     20  C   UNL     1      33.340 -17.488 -24.576  0.00  0.00    +0.031 C 
ATOM     21  C   UNL     1      32.821 -12.857 -23.474  0.00  0.00    +0.341 C 
ENDBRANCH  10  13
BRANCH  10  22
ATOM     22  O   UNL     1      35.781 -18.302 -22.439  0.00  0.00    -0.382 OA
ATOM     23  H   UNL     1      35.741 -18.944 -23.164  0.00  0.00    +0.211 HD
ENDBRANCH  10  22
ENDBRANCH   9  10
ENDBRANCH   1   9
BRANCH   2  24
ATOM     24  C   UNL     1      32.988 -23.132 -17.886  0.00  0.00    -0.043 C 
BRANCH  24  25
ATOM     25  C   UNL     1      32.274 -23.201 -16.530  0.00  0.00    +0.112 C 
BRANCH  25  28
ATOM     26  O   UNL     1      35.044 -23.546 -11.160  0.00  0.00    -0.440 OA
ATOM     27  O   UNL     1      36.999 -22.600 -11.959  0.00  0.00    -0.245 OA
ATOM     28  C   UNL     1      33.257 -23.129 -15.382  0.00  0.00    -0.002 C 
ATOM     29  C   UNL     1      32.903 -23.591 -14.110  0.00  0.00    -0.024 C 
ATOM     30  C   UNL     1      33.839 -23.501 -13.097  0.00  0.00    +0.023 C 
ATOM     31  C   UNL     1      34.532 -22.585 -15.619  0.00  0.00    -0.002 C 
ATOM     32  C   UNL     1      35.086 -22.965 -13.343  0.00  0.00    +0.075 C 
ATOM     33  C   UNL     1      35.467 -22.499 -14.587  0.00  0.00    +0.006 C 
ATOM     34  C   UNL     1      33.740 -23.904 -11.683  0.00  0.00    +0.235 C 
ATOM     35  C   UNL     1      31.554 -24.168 -13.845  0.00  0.00    +0.031 C 
ATOM     36  C   UNL     1      35.860 -22.991 -12.111  0.00  0.00    +0.341 C 
ENDBRANCH  25  28
BRANCH  25  37
ATOM     37  O   UNL     1      31.355 -22.116 -16.400  0.00  0.00    -0.382 OA
ATOM     38  H   UNL     1      31.113 -22.009 -15.467  0.00  0.00    +0.211 HD
ENDBRANCH  25  37
ENDBRANCH  24  25
ENDBRANCH   2  24
TORSDOF 8
ENDMDL
