MODEL 1
REMARK VINA RESULT:     -12.5      0.000      0.000
REMARK  Name = 11167602
REMARK  6 active torsions:
REMARK  status: ('A' for Active; 'I' for Inactive)
REMARK    1  A    between atoms: C_2  and  N_10
REMARK    2  A    between atoms: C_3  and  O_25
REMARK    3  A    between atoms: N_9  and  C_15
REMARK    4  A    between atoms: C_16  and  C_24
REMARK    5  A    between atoms: O_25  and  C_27
REMARK    6  A    between atoms: C_29  and  C_34
REMARK                            x       y       z     vdW  Elec       q    Type
REMARK                         _______ _______ _______ _____ _____    ______ ____
ROOT
ATOM      1  F   UNL     1      32.002 -13.673 -24.945  0.00  0.00    -0.203 F 
ATOM      2  C   UNL     1      33.052 -13.577 -22.817  0.00  0.00    +0.079 C 
ATOM      3  C   UNL     1      33.755 -16.244 -23.067  0.00  0.00    +0.148 C 
ATOM      4  C   UNL     1      32.687 -14.269 -23.960  0.00  0.00    +0.157 C 
ATOM      5  C   UNL     1      33.762 -14.189 -21.797  0.00  0.00    +0.020 C 
ATOM      6  C   UNL     1      33.041 -15.613 -24.085  0.00  0.00    +0.068 C 
ATOM      7  C   UNL     1      34.115 -15.533 -21.923  0.00  0.00    +0.039 C 
ENDROOT
BRANCH   2  10
ATOM      8  O   UNL     1      34.002 -11.182 -24.330  0.00  0.00    -0.252 OA
ATOM      9  N   UNL     1      32.560  -9.926 -22.977  0.00  0.00    -0.268 N 
ATOM     10  N   UNL     1      32.696 -12.213 -22.687  0.00  0.00    -0.266 N 
ATOM     11  C   UNL     1      33.175 -11.120 -23.426  0.00  0.00    +0.308 C 
ATOM     12  H   UNL     1      31.913 -10.029 -22.242  0.00  0.00    +0.156 HD
ATOM     13  H   UNL     1      32.031 -12.006 -21.991  0.00  0.00    +0.156 HD
BRANCH   9  15
ATOM     14 CL   UNL     1      33.389  -4.398 -24.898  0.00  0.00    -0.082 Cl
ATOM     15  C   UNL     1      32.749  -8.623 -23.438  0.00  0.00    +0.052 C 
ATOM     16  C   UNL     1      32.167  -6.833 -24.953  0.00  0.00    +0.083 C 
ATOM     17  C   UNL     1      31.977  -8.137 -24.493  0.00  0.00    +0.019 C 
ATOM     18  C   UNL     1      33.711  -7.806 -22.843  0.00  0.00    +0.016 C 
ATOM     19  C   UNL     1      33.128  -6.017 -24.357  0.00  0.00    +0.062 C 
ATOM     20  C   UNL     1      33.900  -6.503 -23.303  0.00  0.00    +0.013 C 
BRANCH  16  24
ATOM     21  F   UNL     1      30.503  -5.308 -25.746  0.00  0.00    -0.166 F 
ATOM     22  F   UNL     1      32.038  -5.910 -27.156  0.00  0.00    -0.166 F 
ATOM     23  F   UNL     1      30.492  -7.321 -26.567  0.00  0.00    -0.166 F 
ATOM     24  C   UNL     1      31.318  -6.349 -26.083  0.00  0.00    +0.419 C 
ENDBRANCH  16  24
ENDBRANCH   9  15
ENDBRANCH   2  10
BRANCH   3  25
ATOM     25  O   UNL     1      34.100 -17.556 -23.189  0.00  0.00    -0.453 OA
BRANCH  25  27
ATOM     26  N   UNL     1      35.084 -19.628 -19.724  0.00  0.00    -0.239 NA
ATOM     27  C   UNL     1      34.427 -18.245 -22.034  0.00  0.00    +0.149 C 
ATOM     28  C   UNL     1      33.454 -18.976 -21.387  0.00  0.00    +0.061 C 
ATOM     29  C   UNL     1      33.832 -19.650 -20.236  0.00  0.00    +0.137 C 
ATOM     30  C   UNL     1      35.720 -18.186 -21.558  0.00  0.00    +0.058 C 
ATOM     31  C   UNL     1      35.996 -18.894 -20.399  0.00  0.00    +0.102 C 
BRANCH  29  34
ATOM     32  O   UNL     1      31.647 -20.345 -19.747  0.00  0.00    -0.268 OA
ATOM     33  N   UNL     1      33.363 -21.319 -18.529  0.00  0.00    -0.298 N 
ATOM     34  C   UNL     1      32.863 -20.442 -19.499  0.00  0.00    +0.264 C 
ATOM     35  C   UNL     1      32.530 -22.189 -17.731  0.00  0.00    +0.111 C 
ATOM     36  H   UNL     1      34.336 -21.345 -18.382  0.00  0.00    +0.150 HD
ENDBRANCH  29  34
ENDBRANCH  25  27
ENDBRANCH   3  25
TORSDOF 6
ENDMDL
MODEL 2
REMARK VINA RESULT:     -12.1      5.919     10.028
REMARK  Name = 11167602
REMARK  6 active torsions:
REMARK  status: ('A' for Active; 'I' for Inactive)
REMARK    1  A    between atoms: C_2  and  N_10
REMARK    2  A    between atoms: C_3  and  O_25
REMARK    3  A    between atoms: N_9  and  C_15
REMARK    4  A    between atoms: C_16  and  C_24
REMARK    5  A    between atoms: O_25  and  C_27
REMARK    6  A    between atoms: C_29  and  C_34
REMARK                            x       y       z     vdW  Elec       q    Type
REMARK                         _______ _______ _______ _____ _____    ______ ____
ROOT
ATOM      1  F   UNL     1      36.039 -20.965 -16.677  0.00  0.00    -0.203 F 
ATOM      2  C   UNL     1      34.101 -21.618 -17.884  0.00  0.00    +0.079 C 
ATOM      3  C   UNL     1      33.295 -23.148 -15.720  0.00  0.00    +0.148 C 
ATOM      4  C   UNL     1      34.892 -21.655 -16.747  0.00  0.00    +0.157 C 
ATOM      5  C   UNL     1      32.914 -22.329 -17.960  0.00  0.00    +0.020 C 
ATOM      6  C   UNL     1      34.487 -22.425 -15.658  0.00  0.00    +0.068 C 
ATOM      7  C   UNL     1      32.509 -23.101 -16.871  0.00  0.00    +0.039 C 
ENDROOT
BRANCH   2  10
ATOM      8  O   UNL     1      32.548 -19.702 -19.568  0.00  0.00    -0.252 OA
ATOM      9  N   UNL     1      34.529 -19.367 -20.772  0.00  0.00    -0.268 N 
ATOM     10  N   UNL     1      34.509 -20.837 -18.990  0.00  0.00    -0.266 N 
ATOM     11  C   UNL     1      33.736 -19.947 -19.753  0.00  0.00    +0.308 C 
ATOM     12  H   UNL     1      35.469 -19.659 -20.799  0.00  0.00    +0.156 HD
ATOM     13  H   UNL     1      35.451 -20.929 -19.259  0.00  0.00    +0.156 HD
BRANCH   9  15
ATOM     14 CL   UNL     1      32.948 -15.459 -24.916  0.00  0.00    -0.082 Cl
ATOM     15  C   UNL     1      34.156 -18.438 -21.743  0.00  0.00    +0.052 C 
ATOM     16  C   UNL     1      33.702 -16.155 -22.391  0.00  0.00    +0.083 C 
ATOM     17  C   UNL     1      34.075 -17.084 -21.418  0.00  0.00    +0.019 C 
ATOM     18  C   UNL     1      33.864 -18.863 -23.039  0.00  0.00    +0.016 C 
ATOM     19  C   UNL     1      33.411 -16.580 -23.686  0.00  0.00    +0.062 C 
ATOM     20  C   UNL     1      33.492 -17.934 -24.011  0.00  0.00    +0.013 C 
BRANCH  16  24
ATOM     21  F   UNL     1      34.005 -14.477 -20.712  0.00  0.00    -0.166 F 
ATOM     22  F   UNL     1      34.426 -13.905 -22.762  0.00  0.00    -0.166 F 
ATOM     23  F   UNL     1      32.370 -14.205 -22.120  0.00  0.00    -0.166 F 
ATOM     24  C   UNL     1      33.630 -14.713 -22.003  0.00  0.00    +0.419 C 
ENDBRANCH  16  24
ENDBRANCH   9  15
ENDBRANCH   2  10
BRANCH   3  25
ATOM     25  O   UNL     1      32.899 -23.900 -14.656  0.00  0.00    -0.453 OA
BRANCH  25  27
ATOM     26  N   UNL     1      35.769 -24.895 -11.820  0.00  0.00    -0.239 NA
ATOM     27  C   UNL     1      33.855 -24.233 -13.711  0.00  0.00    +0.149 C 
ATOM     28  C   UNL     1      35.002 -24.882 -14.113  0.00  0.00    +0.061 C 
ATOM     29  C   UNL     1      35.929 -25.191 -13.130  0.00  0.00    +0.137 C 
ATOM     30  C   UNL     1      33.638 -23.905 -12.390  0.00  0.00    +0.058 C 
ATOM     31  C   UNL     1      34.625 -24.259 -11.484  0.00  0.00    +0.102 C 
BRANCH  29  34
ATOM     32  O   UNL     1      37.135 -26.985 -14.037  0.00  0.00    -0.268 OA
ATOM     33  N   UNL     1      38.362 -25.220 -13.168  0.00  0.00    -0.298 N 
ATOM     34  C   UNL     1      37.163 -25.875 -13.475  0.00  0.00    +0.264 C 
ATOM     35  C   UNL     1      39.669 -25.759 -13.469  0.00  0.00    +0.111 C 
ATOM     36  H   UNL     1      38.312 -24.344 -12.721  0.00  0.00    +0.150 HD
ENDBRANCH  29  34
ENDBRANCH  25  27
ENDBRANCH   3  25
TORSDOF 6
ENDMDL
MODEL 3
REMARK VINA RESULT:     -11.9      5.509      9.158
REMARK  Name = 11167602
REMARK  6 active torsions:
REMARK  status: ('A' for Active; 'I' for Inactive)
REMARK    1  A    between atoms: C_2  and  N_10
REMARK    2  A    between atoms: C_3  and  O_25
REMARK    3  A    between atoms: N_9  and  C_15
REMARK    4  A    between atoms: C_16  and  C_24
REMARK    5  A    between atoms: O_25  and  C_27
REMARK    6  A    between atoms: C_29  and  C_34
REMARK                            x       y       z     vdW  Elec       q    Type
REMARK                         _______ _______ _______ _____ _____    ______ ____
ROOT
ATOM      1  F   UNL     1      36.400 -20.551 -17.174  0.00  0.00    -0.203 F 
ATOM      2  C   UNL     1      34.460 -21.194 -18.383  0.00  0.00    +0.079 C 
ATOM      3  C   UNL     1      33.777 -22.921 -16.328  0.00  0.00    +0.148 C 
ATOM      4  C   UNL     1      35.283 -21.284 -17.272  0.00  0.00    +0.157 C 
ATOM      5  C   UNL     1      33.303 -21.948 -18.488  0.00  0.00    +0.020 C 
ATOM      6  C   UNL     1      34.939 -22.154 -16.238  0.00  0.00    +0.068 C 
ATOM      7  C   UNL     1      32.960 -22.819 -17.453  0.00  0.00    +0.039 C 
ENDROOT
BRANCH   2  10
ATOM      8  O   UNL     1      32.749 -19.350 -19.993  0.00  0.00    -0.252 OA
ATOM      9  N   UNL     1      34.706 -18.746 -21.129  0.00  0.00    -0.268 N 
ATOM     10  N   UNL     1      34.805 -20.311 -19.434  0.00  0.00    -0.266 N 
ATOM     11  C   UNL     1      33.958 -19.462 -20.163  0.00  0.00    +0.308 C 
ATOM     12  H   UNL     1      35.672 -18.938 -21.150  0.00  0.00    +0.156 HD
ATOM     13  H   UNL     1      35.757 -20.292 -19.685  0.00  0.00    +0.156 HD
BRANCH   9  15
ATOM     14 CL   UNL     1      32.805 -14.783 -25.081  0.00  0.00    -0.082 Cl
ATOM     15  C   UNL     1      34.257 -17.803 -22.055  0.00  0.00    +0.052 C 
ATOM     16  C   UNL     1      33.616 -15.537 -22.591  0.00  0.00    +0.083 C 
ATOM     17  C   UNL     1      34.065 -16.478 -21.664  0.00  0.00    +0.019 C 
ATOM     18  C   UNL     1      34.000 -18.188 -23.371  0.00  0.00    +0.016 C 
ATOM     19  C   UNL     1      33.360 -15.921 -23.907  0.00  0.00    +0.062 C 
ATOM     20  C   UNL     1      33.551 -17.246 -24.297  0.00  0.00    +0.013 C 
BRANCH  16  24
ATOM     21  F   UNL     1      34.130 -13.217 -22.866  0.00  0.00    -0.166 F 
ATOM     22  F   UNL     1      32.128 -13.707 -22.190  0.00  0.00    -0.166 F 
ATOM     23  F   UNL     1      33.818 -13.942 -20.840  0.00  0.00    -0.166 F 
ATOM     24  C   UNL     1      33.426 -14.127 -22.134  0.00  0.00    +0.419 C 
ENDBRANCH  16  24
ENDBRANCH   9  15
ENDBRANCH   2  10
BRANCH   3  25
ATOM     25  O   UNL     1      33.442 -23.770 -15.318  0.00  0.00    -0.453 OA
BRANCH  25  27
ATOM     26  N   UNL     1      29.931 -23.003 -13.232  0.00  0.00    -0.239 NA
ATOM     27  C   UNL     1      32.272 -23.514 -14.624  0.00  0.00    +0.149 C 
ATOM     28  C   UNL     1      31.150 -23.115 -15.317  0.00  0.00    +0.061 C 
ATOM     29  C   UNL     1      30.004 -22.872 -14.576  0.00  0.00    +0.137 C 
ATOM     30  C   UNL     1      32.256 -23.663 -13.253  0.00  0.00    +0.058 C 
ATOM     31  C   UNL     1      31.062 -23.395 -12.605  0.00  0.00    +0.102 C 
BRANCH  29  34
ATOM     32  O   UNL     1      28.797 -22.088 -16.427  0.00  0.00    -0.268 OA
ATOM     33  N   UNL     1      27.602 -22.491 -14.480  0.00  0.00    -0.298 N 
ATOM     34  C   UNL     1      28.781 -22.450 -15.236  0.00  0.00    +0.264 C 
ATOM     35  C   UNL     1      26.305 -22.125 -15.001  0.00  0.00    +0.111 C 
ATOM     36  H   UNL     1      27.661 -22.786 -13.543  0.00  0.00    +0.150 HD
ENDBRANCH  29  34
ENDBRANCH  25  27
ENDBRANCH   3  25
TORSDOF 6
ENDMDL
MODEL 4
REMARK VINA RESULT:     -11.8      1.636      2.058
REMARK  Name = 11167602
REMARK  6 active torsions:
REMARK  status: ('A' for Active; 'I' for Inactive)
REMARK    1  A    between atoms: C_2  and  N_10
REMARK    2  A    between atoms: C_3  and  O_25
REMARK    3  A    between atoms: N_9  and  C_15
REMARK    4  A    between atoms: C_16  and  C_24
REMARK    5  A    between atoms: O_25  and  C_27
REMARK    6  A    between atoms: C_29  and  C_34
REMARK                            x       y       z     vdW  Elec       q    Type
REMARK                         _______ _______ _______ _____ _____    ______ ____
ROOT
ATOM      1  F   UNL     1      33.647 -13.728 -20.328  0.00  0.00    -0.203 F 
ATOM      2  C   UNL     1      32.967 -13.669 -22.602  0.00  0.00    +0.079 C 
ATOM      3  C   UNL     1      33.874 -16.267 -22.919  0.00  0.00    +0.148 C 
ATOM      4  C   UNL     1      33.532 -14.326 -21.521  0.00  0.00    +0.157 C 
ATOM      5  C   UNL     1      32.845 -14.284 -23.838  0.00  0.00    +0.020 C 
ATOM      6  C   UNL     1      33.988 -15.634 -21.681  0.00  0.00    +0.068 C 
ATOM      7  C   UNL     1      33.303 -15.591 -23.997  0.00  0.00    +0.039 C 
ENDROOT
BRANCH   2  10
ATOM      8  O   UNL     1      33.827 -11.148 -23.955  0.00  0.00    -0.252 OA
ATOM      9  N   UNL     1      32.212 -10.060 -22.653  0.00  0.00    -0.268 N 
ATOM     10  N   UNL     1      32.502 -12.342 -22.443  0.00  0.00    -0.266 N 
ATOM     11  C   UNL     1      32.942 -11.186 -23.106  0.00  0.00    +0.308 C 
ATOM     12  H   UNL     1      31.529 -10.242 -21.967  0.00  0.00    +0.156 HD
ATOM     13  H   UNL     1      31.780 -12.214 -21.785  0.00  0.00    +0.156 HD
BRANCH   9  15
ATOM     14 CL   UNL     1      32.752  -4.424 -24.352  0.00  0.00    -0.082 Cl
ATOM     15  C   UNL     1      32.331  -8.728 -23.049  0.00  0.00    +0.052 C 
ATOM     16  C   UNL     1      31.540  -6.446 -22.984  0.00  0.00    +0.083 C 
ATOM     17  C   UNL     1      31.419  -7.778 -22.587  0.00  0.00    +0.019 C 
ATOM     18  C   UNL     1      33.362  -8.346 -23.907  0.00  0.00    +0.016 C 
ATOM     19  C   UNL     1      32.571  -6.064 -23.841  0.00  0.00    +0.062 C 
ATOM     20  C   UNL     1      33.482  -7.014 -24.303  0.00  0.00    +0.013 C 
BRANCH  16  24
ATOM     21  F   UNL     1      31.112  -4.416 -21.793  0.00  0.00    -0.166 F 
ATOM     22  F   UNL     1      29.785  -4.886 -23.443  0.00  0.00    -0.166 F 
ATOM     23  F   UNL     1      29.660  -6.022 -21.593  0.00  0.00    -0.166 F 
ATOM     24  C   UNL     1      30.545  -5.459 -22.465  0.00  0.00    +0.419 C 
ENDBRANCH  16  24
ENDBRANCH   9  15
ENDBRANCH   2  10
BRANCH   3  25
ATOM     25  O   UNL     1      34.319 -17.544 -23.075  0.00  0.00    -0.453 OA
BRANCH  25  27
ATOM     26  N   UNL     1      35.170 -19.728 -19.644  0.00  0.00    -0.239 NA
ATOM     27  C   UNL     1      34.602 -18.271 -21.932  0.00  0.00    +0.149 C 
ATOM     28  C   UNL     1      33.594 -18.982 -21.319  0.00  0.00    +0.061 C 
ATOM     29  C   UNL     1      33.928 -19.695 -20.178  0.00  0.00    +0.137 C 
ATOM     30  C   UNL     1      35.887 -18.267 -21.432  0.00  0.00    +0.058 C 
ATOM     31  C   UNL     1      36.119 -19.011 -20.286  0.00  0.00    +0.102 C 
BRANCH  29  34
ATOM     32  O   UNL     1      31.714 -20.341 -19.758  0.00  0.00    -0.268 OA
ATOM     33  N   UNL     1      33.371 -21.368 -18.501  0.00  0.00    -0.298 N 
ATOM     34  C   UNL     1      32.920 -20.470 -19.476  0.00  0.00    +0.264 C 
ATOM     35  C   UNL     1      32.494 -22.224 -17.735  0.00  0.00    +0.111 C 
ATOM     36  H   UNL     1      34.338 -21.418 -18.327  0.00  0.00    +0.150 HD
ENDBRANCH  29  34
ENDBRANCH  25  27
ENDBRANCH   3  25
TORSDOF 6
ENDMDL
MODEL 5
REMARK VINA RESULT:     -11.7      2.577      3.543
REMARK  Name = 11167602
REMARK  6 active torsions:
REMARK  status: ('A' for Active; 'I' for Inactive)
REMARK    1  A    between atoms: C_2  and  N_10
REMARK    2  A    between atoms: C_3  and  O_25
REMARK    3  A    between atoms: N_9  and  C_15
REMARK    4  A    between atoms: C_16  and  C_24
REMARK    5  A    between atoms: O_25  and  C_27
REMARK    6  A    between atoms: C_29  and  C_34
REMARK                            x       y       z     vdW  Elec       q    Type
REMARK                         _______ _______ _______ _____ _____    ______ ____
ROOT
ATOM      1  F   UNL     1      33.828 -16.971 -24.597  0.00  0.00    -0.203 F 
ATOM      2  C   UNL     1      33.952 -15.871 -22.497  0.00  0.00    +0.079 C 
ATOM      3  C   UNL     1      34.613 -18.278 -21.298  0.00  0.00    +0.148 C 
ATOM      4  C   UNL     1      34.048 -17.012 -23.276  0.00  0.00    +0.157 C 
ATOM      5  C   UNL     1      34.181 -15.908 -21.131  0.00  0.00    +0.020 C 
ATOM      6  C   UNL     1      34.381 -18.224 -22.673  0.00  0.00    +0.068 C 
ATOM      7  C   UNL     1      34.513 -17.121 -20.527  0.00  0.00    +0.039 C 
ENDROOT
BRANCH   2  10
ATOM      8  O   UNL     1      33.966 -13.100 -21.381  0.00  0.00    -0.252 OA
ATOM      9  N   UNL     1      33.227 -12.394 -23.489  0.00  0.00    -0.268 N 
ATOM     10  N   UNL     1      33.616 -14.639 -23.106  0.00  0.00    -0.266 N 
ATOM     11  C   UNL     1      33.638 -13.357 -22.535  0.00  0.00    +0.308 C 
ATOM     12  H   UNL     1      32.994 -12.747 -24.378  0.00  0.00    +0.156 HD
ATOM     13  H   UNL     1      33.330 -14.687 -24.047  0.00  0.00    +0.156 HD
BRANCH   9  15
ATOM     14 CL   UNL     1      32.760  -6.535 -22.864  0.00  0.00    -0.082 Cl
ATOM     15  C   UNL     1      33.109 -11.012 -23.336  0.00  0.00    +0.052 C 
ATOM     16  C   UNL     1      31.981  -9.101 -22.381  0.00  0.00    +0.083 C 
ATOM     17  C   UNL     1      32.098 -10.483 -22.533  0.00  0.00    +0.019 C 
ATOM     18  C   UNL     1      34.001 -10.161 -23.987  0.00  0.00    +0.016 C 
ATOM     19  C   UNL     1      32.874  -8.250 -23.031  0.00  0.00    +0.062 C 
ATOM     20  C   UNL     1      33.883  -8.779 -23.834  0.00  0.00    +0.013 C 
BRANCH  16  24
ATOM     21  F   UNL     1      31.340  -7.872 -20.431  0.00  0.00    -0.166 F 
ATOM     22  F   UNL     1      30.035  -7.728 -22.157  0.00  0.00    -0.166 F 
ATOM     23  F   UNL     1      30.104  -9.568 -20.999  0.00  0.00    -0.166 F 
ATOM     24  C   UNL     1      30.887  -8.575 -21.509  0.00  0.00    +0.419 C 
ENDBRANCH  16  24
ENDBRANCH   9  15
ENDBRANCH   2  10
BRANCH   3  25
ATOM     25  O   UNL     1      34.938 -19.462 -20.709  0.00  0.00    -0.453 OA
BRANCH  25  27
ATOM     26  N   UNL     1      32.042 -21.313 -18.374  0.00  0.00    -0.239 NA
ATOM     27  C   UNL     1      33.974 -20.080 -19.931  0.00  0.00    +0.149 C 
ATOM     28  C   UNL     1      34.366 -20.911 -18.905  0.00  0.00    +0.061 C 
ATOM     29  C   UNL     1      33.362 -21.504 -18.155  0.00  0.00    +0.137 C 
ATOM     30  C   UNL     1      32.642 -19.848 -20.201  0.00  0.00    +0.058 C 
ATOM     31  C   UNL     1      31.715 -20.488 -19.394  0.00  0.00    +0.102 C 
BRANCH  29  34
ATOM     32  O   UNL     1      33.039 -23.432 -16.861  0.00  0.00    -0.268 OA
ATOM     33  N   UNL     1      34.790 -22.036 -16.257  0.00  0.00    -0.298 N 
ATOM     34  C   UNL     1      33.696 -22.393 -17.056  0.00  0.00    +0.264 C 
ATOM     35  C   UNL     1      35.260 -22.827 -15.143  0.00  0.00    +0.111 C 
ATOM     36  H   UNL     1      35.264 -21.199 -16.466  0.00  0.00    +0.150 HD
ENDBRANCH  29  34
ENDBRANCH  25  27
ENDBRANCH   3  25
TORSDOF 6
ENDMDL
MODEL 6
REMARK VINA RESULT:     -11.7      7.583     14.205
REMARK  Name = 11167602
REMARK  6 active torsions:
REMARK  status: ('A' for Active; 'I' for Inactive)
REMARK    1  A    between atoms: C_2  and  N_10
REMARK    2  A    between atoms: C_3  and  O_25
REMARK    3  A    between atoms: N_9  and  C_15
REMARK    4  A    between atoms: C_16  and  C_24
REMARK    5  A    between atoms: O_25  and  C_27
REMARK    6  A    between atoms: C_29  and  C_34
REMARK                            x       y       z     vdW  Elec       q    Type
REMARK                         _______ _______ _______ _____ _____    ______ ____
ROOT
ATOM      1  F   UNL     1      31.865 -20.524 -19.692  0.00  0.00    -0.203 F 
ATOM      2  C   UNL     1      34.154 -20.692 -19.085  0.00  0.00    +0.079 C 
ATOM      3  C   UNL     1      34.805 -18.949 -21.136  0.00  0.00    +0.148 C 
ATOM      4  C   UNL     1      33.146 -20.186 -19.889  0.00  0.00    +0.157 C 
ATOM      5  C   UNL     1      35.480 -20.344 -19.284  0.00  0.00    +0.020 C 
ATOM      6  C   UNL     1      33.474 -19.308 -20.922  0.00  0.00    +0.068 C 
ATOM      7  C   UNL     1      35.808 -19.467 -20.318  0.00  0.00    +0.039 C 
ENDROOT
BRANCH   2  10
ATOM      8  O   UNL     1      35.563 -21.240 -16.508  0.00  0.00    -0.252 OA
ATOM      9  N   UNL     1      33.854 -22.778 -16.059  0.00  0.00    -0.268 N 
ATOM     10  N   UNL     1      33.825 -21.582 -18.034  0.00  0.00    -0.266 N 
ATOM     11  C   UNL     1      34.524 -21.804 -16.838  0.00  0.00    +0.308 C 
ATOM     12  H   UNL     1      33.029 -23.144 -16.452  0.00  0.00    +0.156 HD
ATOM     13  H   UNL     1      33.004 -22.110 -18.159  0.00  0.00    +0.156 HD
BRANCH   9  15
ATOM     14 CL   UNL     1      35.314 -24.928 -10.750  0.00  0.00    -0.082 Cl
ATOM     15  C   UNL     1      34.208 -23.288 -14.809  0.00  0.00    +0.052 C 
ATOM     16  C   UNL     1      35.866 -24.229 -13.326  0.00  0.00    +0.083 C 
ATOM     17  C   UNL     1      35.513 -23.720 -14.576  0.00  0.00    +0.019 C 
ATOM     18  C   UNL     1      33.255 -23.365 -13.794  0.00  0.00    +0.016 C 
ATOM     19  C   UNL     1      34.914 -24.305 -12.310  0.00  0.00    +0.062 C 
ATOM     20  C   UNL     1      33.608 -23.874 -12.544  0.00  0.00    +0.013 C 
BRANCH  16  24
ATOM     21  F   UNL     1      38.107 -24.365 -14.150  0.00  0.00    -0.166 F 
ATOM     22  F   UNL     1      37.860 -24.137 -12.008  0.00  0.00    -0.166 F 
ATOM     23  F   UNL     1      37.373 -26.030 -12.961  0.00  0.00    -0.166 F 
ATOM     24  C   UNL     1      37.275 -24.679 -13.115  0.00  0.00    +0.419 C 
ENDBRANCH  16  24
ENDBRANCH   9  15
ENDBRANCH   2  10
BRANCH   3  25
ATOM     25  O   UNL     1      35.125 -18.092 -22.145  0.00  0.00    -0.453 OA
BRANCH  25  27
ATOM     26  N   UNL     1      33.151 -14.437 -22.269  0.00  0.00    -0.239 NA
ATOM     27  C   UNL     1      34.468 -16.874 -22.187  0.00  0.00    +0.149 C 
ATOM     28  C   UNL     1      33.996 -16.404 -23.393  0.00  0.00    +0.061 C 
ATOM     29  C   UNL     1      33.344 -15.181 -23.382  0.00  0.00    +0.137 C 
ATOM     30  C   UNL     1      34.301 -16.159 -21.020  0.00  0.00    +0.058 C 
ATOM     31  C   UNL     1      33.636 -14.947 -21.115  0.00  0.00    +0.102 C 
BRANCH  29  34
ATOM     32  O   UNL     1      32.414 -15.364 -25.527  0.00  0.00    -0.268 OA
ATOM     33  N   UNL     1      32.768 -13.223 -24.708  0.00  0.00    -0.298 N 
ATOM     34  C   UNL     1      32.817 -14.620 -24.614  0.00  0.00    +0.264 C 
ATOM     35  C   UNL     1      32.251 -12.517 -25.857  0.00  0.00    +0.111 C 
ATOM     36  H   UNL     1      33.105 -12.694 -23.950  0.00  0.00    +0.150 HD
ENDBRANCH  29  34
ENDBRANCH  25  27
ENDBRANCH   3  25
TORSDOF 6
ENDMDL
MODEL 7
REMARK VINA RESULT:     -11.4      7.507     12.876
REMARK  Name = 11167602
REMARK  6 active torsions:
REMARK  status: ('A' for Active; 'I' for Inactive)
REMARK    1  A    between atoms: C_2  and  N_10
REMARK    2  A    between atoms: C_3  and  O_25
REMARK    3  A    between atoms: N_9  and  C_15
REMARK    4  A    between atoms: C_16  and  C_24
REMARK    5  A    between atoms: O_25  and  C_27
REMARK    6  A    between atoms: C_29  and  C_34
REMARK                            x       y       z     vdW  Elec       q    Type
REMARK                         _______ _______ _______ _____ _____    ______ ____
ROOT
ATOM      1  F   UNL     1      36.635 -19.529 -19.320  0.00  0.00    -0.203 F 
ATOM      2  C   UNL     1      34.383 -20.036 -19.876  0.00  0.00    +0.079 C 
ATOM      3  C   UNL     1      34.587 -18.400 -22.102  0.00  0.00    +0.148 C 
ATOM      4  C   UNL     1      35.578 -19.383 -20.130  0.00  0.00    +0.157 C 
ATOM      5  C   UNL     1      33.288 -19.888 -20.712  0.00  0.00    +0.020 C 
ATOM      6  C   UNL     1      35.681 -18.560 -21.251  0.00  0.00    +0.068 C 
ATOM      7  C   UNL     1      33.391 -19.064 -21.832  0.00  0.00    +0.039 C 
ENDROOT
BRANCH   2  10
ATOM      8  O   UNL     1      31.969 -20.930 -18.360  0.00  0.00    -0.252 OA
ATOM      9  N   UNL     1      33.445 -22.109 -16.974  0.00  0.00    -0.268 N 
ATOM     10  N   UNL     1      34.276 -20.873 -18.740  0.00  0.00    -0.266 N 
ATOM     11  C   UNL     1      33.111 -21.265 -18.061  0.00  0.00    +0.308 C 
ATOM     12  H   UNL     1      34.405 -22.292 -16.856  0.00  0.00    +0.156 HD
ATOM     13  H   UNL     1      35.123 -21.224 -18.382  0.00  0.00    +0.156 HD
BRANCH   9  15
ATOM     14 CL   UNL     1      29.874 -24.699 -13.040  0.00  0.00    -0.082 Cl
ATOM     15  C   UNL     1      32.595 -22.715 -16.050  0.00  0.00    +0.052 C 
ATOM     16  C   UNL     1      30.367 -23.125 -15.209  0.00  0.00    +0.083 C 
ATOM     17  C   UNL     1      31.217 -22.517 -16.135  0.00  0.00    +0.019 C 
ATOM     18  C   UNL     1      33.123 -23.520 -15.040  0.00  0.00    +0.016 C 
ATOM     19  C   UNL     1      30.895 -23.930 -14.201  0.00  0.00    +0.062 C 
ATOM     20  C   UNL     1      32.273 -24.127 -14.116  0.00  0.00    +0.013 C 
BRANCH  16  24
ATOM     21  F   UNL     1      28.172 -24.037 -15.473  0.00  0.00    -0.166 F 
ATOM     22  F   UNL     1      28.353 -22.246 -14.263  0.00  0.00    -0.166 F 
ATOM     23  F   UNL     1      28.584 -22.125 -16.422  0.00  0.00    -0.166 F 
ATOM     24  C   UNL     1      28.897 -22.890 -15.337  0.00  0.00    +0.419 C 
ENDBRANCH  16  24
ENDBRANCH   9  15
ENDBRANCH   2  10
BRANCH   3  25
ATOM     25  O   UNL     1      34.687 -17.596 -23.196  0.00  0.00    -0.453 OA
BRANCH  25  27
ATOM     26  N   UNL     1      32.457 -14.090 -23.230  0.00  0.00    -0.239 NA
ATOM     27  C   UNL     1      33.943 -16.428 -23.207  0.00  0.00    +0.149 C 
ATOM     28  C   UNL     1      33.805 -15.706 -22.041  0.00  0.00    +0.061 C 
ATOM     29  C   UNL     1      33.053 -14.544 -22.105  0.00  0.00    +0.137 C 
ATOM     30  C   UNL     1      33.358 -16.014 -24.384  0.00  0.00    +0.058 C 
ATOM     31  C   UNL     1      32.625 -14.839 -24.343  0.00  0.00    +0.102 C 
BRANCH  29  34
ATOM     32  O   UNL     1      33.753 -13.656 -20.051  0.00  0.00    -0.268 OA
ATOM     33  N   UNL     1      31.656 -13.024 -20.815  0.00  0.00    -0.298 N 
ATOM     34  C   UNL     1      32.862 -13.728 -20.918  0.00  0.00    +0.264 C 
ATOM     35  C   UNL     1      31.329 -12.155 -19.709  0.00  0.00    +0.111 C 
ATOM     36  H   UNL     1      30.995 -13.128 -21.537  0.00  0.00    +0.150 HD
ENDBRANCH  29  34
ENDBRANCH  25  27
ENDBRANCH   3  25
TORSDOF 6
ENDMDL
MODEL 8
REMARK VINA RESULT:     -11.4      1.826      2.205
REMARK  Name = 11167602
REMARK  6 active torsions:
REMARK  status: ('A' for Active; 'I' for Inactive)
REMARK    1  A    between atoms: C_2  and  N_10
REMARK    2  A    between atoms: C_3  and  O_25
REMARK    3  A    between atoms: N_9  and  C_15
REMARK    4  A    between atoms: C_16  and  C_24
REMARK    5  A    between atoms: O_25  and  C_27
REMARK    6  A    between atoms: C_29  and  C_34
REMARK                            x       y       z     vdW  Elec       q    Type
REMARK                         _______ _______ _______ _____ _____    ______ ____
ROOT
ATOM      1  F   UNL     1      33.507 -13.736 -19.909  0.00  0.00    -0.203 F 
ATOM      2  C   UNL     1      32.733 -13.641 -22.152  0.00  0.00    +0.079 C 
ATOM      3  C   UNL     1      33.912 -16.099 -22.641  0.00  0.00    +0.148 C 
ATOM      4  C   UNL     1      33.412 -14.282 -21.129  0.00  0.00    +0.157 C 
ATOM      5  C   UNL     1      32.631 -14.204 -23.414  0.00  0.00    +0.020 C 
ATOM      6  C   UNL     1      34.005 -15.520 -21.375  0.00  0.00    +0.068 C 
ATOM      7  C   UNL     1      33.225 -15.441 -23.660  0.00  0.00    +0.039 C 
ENDROOT
BRANCH   2  10
ATOM      8  O   UNL     1      33.351 -10.947 -23.285  0.00  0.00    -0.252 OA
ATOM      9  N   UNL     1      31.606 -10.136 -21.949  0.00  0.00    -0.268 N 
ATOM     10  N   UNL     1      32.129 -12.386 -21.906  0.00  0.00    -0.266 N 
ATOM     11  C   UNL     1      32.459 -11.142 -22.467  0.00  0.00    +0.308 C 
ATOM     12  H   UNL     1      30.933 -10.441 -21.298  0.00  0.00    +0.156 HD
ATOM     13  H   UNL     1      31.385 -12.385 -21.260  0.00  0.00    +0.156 HD
BRANCH   9  15
ATOM     14 CL   UNL     1      31.514  -4.351 -23.161  0.00  0.00    -0.082 Cl
ATOM     15  C   UNL     1      31.593  -8.772 -22.240  0.00  0.00    +0.052 C 
ATOM     16  C   UNL     1      32.577  -6.855 -23.333  0.00  0.00    +0.083 C 
ATOM     17  C   UNL     1      32.591  -8.220 -23.042  0.00  0.00    +0.019 C 
ATOM     18  C   UNL     1      30.581  -7.960 -21.727  0.00  0.00    +0.016 C 
ATOM     19  C   UNL     1      31.565  -6.044 -22.821  0.00  0.00    +0.062 C 
ATOM     20  C   UNL     1      30.567  -6.596 -22.018  0.00  0.00    +0.013 C 
BRANCH  16  24
ATOM     21  F   UNL     1      34.730  -5.824 -23.496  0.00  0.00    -0.166 F 
ATOM     22  F   UNL     1      34.186  -7.218 -25.066  0.00  0.00    -0.166 F 
ATOM     23  F   UNL     1      33.235  -5.264 -24.972  0.00  0.00    -0.166 F 
ATOM     24  C   UNL     1      33.663  -6.303 -24.199  0.00  0.00    +0.419 C 
ENDBRANCH  16  24
ENDBRANCH   9  15
ENDBRANCH   2  10
BRANCH   3  25
ATOM     25  O   UNL     1      34.492 -17.308 -22.881  0.00  0.00    -0.453 OA
BRANCH  25  27
ATOM     26  N   UNL     1      35.247 -19.772 -19.621  0.00  0.00    -0.239 NA
ATOM     27  C   UNL     1      34.742 -18.128 -21.794  0.00  0.00    +0.149 C 
ATOM     28  C   UNL     1      33.705 -18.840 -21.233  0.00  0.00    +0.061 C 
ATOM     29  C   UNL     1      34.008 -19.648 -20.148  0.00  0.00    +0.137 C 
ATOM     30  C   UNL     1      36.026 -18.216 -21.299  0.00  0.00    +0.058 C 
ATOM     31  C   UNL     1      36.226 -19.051 -20.212  0.00  0.00    +0.102 C 
BRANCH  29  34
ATOM     32  O   UNL     1      31.774 -20.281 -19.824  0.00  0.00    -0.268 OA
ATOM     33  N   UNL     1      33.374 -21.357 -18.536  0.00  0.00    -0.298 N 
ATOM     34  C   UNL     1      32.967 -20.430 -19.503  0.00  0.00    +0.264 C 
ATOM     35  C   UNL     1      32.462 -22.222 -17.824  0.00  0.00    +0.111 C 
ATOM     36  H   UNL     1      34.334 -21.422 -18.329  0.00  0.00    +0.150 HD
ENDBRANCH  29  34
ENDBRANCH  25  27
ENDBRANCH   3  25
TORSDOF 6
ENDMDL
MODEL 9
REMARK VINA RESULT:     -11.2      6.364     12.573
REMARK  Name = 11167602
REMARK  6 active torsions:
REMARK  status: ('A' for Active; 'I' for Inactive)
REMARK    1  A    between atoms: C_2  and  N_10
REMARK    2  A    between atoms: C_3  and  O_25
REMARK    3  A    between atoms: N_9  and  C_15
REMARK    4  A    between atoms: C_16  and  C_24
REMARK    5  A    between atoms: O_25  and  C_27
REMARK    6  A    between atoms: C_29  and  C_34
REMARK                            x       y       z     vdW  Elec       q    Type
REMARK                         _______ _______ _______ _____ _____    ______ ____
ROOT
ATOM      1  F   UNL     1      35.007 -17.004 -20.405  0.00  0.00    -0.203 F 
ATOM      2  C   UNL     1      34.242 -18.788 -21.772  0.00  0.00    +0.079 C 
ATOM      3  C   UNL     1      33.629 -16.968 -23.768  0.00  0.00    +0.148 C 
ATOM      4  C   UNL     1      34.483 -17.441 -21.558  0.00  0.00    +0.157 C 
ATOM      5  C   UNL     1      33.702 -19.244 -22.964  0.00  0.00    +0.020 C 
ATOM      6  C   UNL     1      34.175 -16.524 -22.563  0.00  0.00    +0.068 C 
ATOM      7  C   UNL     1      33.392 -18.327 -23.968  0.00  0.00    +0.039 C 
ENDROOT
BRANCH   2  10
ATOM      8  O   UNL     1      32.583 -19.796 -19.502  0.00  0.00    -0.252 OA
ATOM      9  N   UNL     1      34.435 -21.101 -18.907  0.00  0.00    -0.268 N 
ATOM     10  N   UNL     1      34.555 -19.721 -20.755  0.00  0.00    -0.266 N 
ATOM     11  C   UNL     1      33.736 -20.163 -19.705  0.00  0.00    +0.308 C 
ATOM     12  H   UNL     1      35.356 -21.300 -19.192  0.00  0.00    +0.156 HD
ATOM     13  H   UNL     1      35.460 -20.107 -20.789  0.00  0.00    +0.156 HD
BRANCH   9  15
ATOM     14 CL   UNL     1      32.518 -23.980 -14.114  0.00  0.00    -0.082 Cl
ATOM     15  C   UNL     1      33.992 -21.780 -17.772  0.00  0.00    +0.052 C 
ATOM     16  C   UNL     1      34.422 -22.690 -15.576  0.00  0.00    +0.083 C 
ATOM     17  C   UNL     1      34.867 -22.010 -16.711  0.00  0.00    +0.019 C 
ATOM     18  C   UNL     1      32.674 -22.229 -17.700  0.00  0.00    +0.016 C 
ATOM     19  C   UNL     1      33.104 -23.137 -15.503  0.00  0.00    +0.062 C 
ATOM     20  C   UNL     1      32.230 -22.908 -16.565  0.00  0.00    +0.013 C 
BRANCH  16  24
ATOM     21  F   UNL     1      34.979 -22.390 -13.269  0.00  0.00    -0.166 F 
ATOM     22  F   UNL     1      35.635 -24.232 -14.207  0.00  0.00    -0.166 F 
ATOM     23  F   UNL     1      36.609 -22.353 -14.706  0.00  0.00    -0.166 F 
ATOM     24  C   UNL     1      35.390 -22.913 -14.459  0.00  0.00    +0.419 C 
ENDBRANCH  16  24
ENDBRANCH   9  15
ENDBRANCH   2  10
BRANCH   3  25
ATOM     25  O   UNL     1      33.328 -16.073 -24.750  0.00  0.00    -0.453 OA
BRANCH  25  27
ATOM     26  N   UNL     1      32.371 -12.196 -23.601  0.00  0.00    -0.239 NA
ATOM     27  C   UNL     1      33.008 -14.782 -24.366  0.00  0.00    +0.149 C 
ATOM     28  C   UNL     1      32.711 -14.524 -23.046  0.00  0.00    +0.061 C 
ATOM     29  C   UNL     1      32.399 -13.215 -22.713  0.00  0.00    +0.137 C 
ATOM     30  C   UNL     1      32.995 -13.782 -25.316  0.00  0.00    +0.058 C 
ATOM     31  C   UNL     1      32.669 -12.507 -24.882  0.00  0.00    +0.102 C 
BRANCH  29  34
ATOM     32  O   UNL     1      32.512 -13.546 -20.395  0.00  0.00    -0.268 OA
ATOM     33  N   UNL     1      31.280 -11.729 -21.144  0.00  0.00    -0.298 N 
ATOM     34  C   UNL     1      32.075 -12.865 -21.341  0.00  0.00    +0.264 C 
ATOM     35  C   UNL     1      30.892 -11.240 -19.841  0.00  0.00    +0.111 C 
ATOM     36  H   UNL     1      30.967 -11.238 -21.937  0.00  0.00    +0.150 HD
ENDBRANCH  29  34
ENDBRANCH  25  27
ENDBRANCH   3  25
TORSDOF 6
ENDMDL
