MODEL 1
REMARK VINA RESULT:     -12.0      0.000      0.000
REMARK  Name = 5288710
REMARK  3 active torsions:
REMARK  status: ('A' for Active; 'I' for Inactive)
REMARK    1  A    between atoms: C_6  and  N_18
REMARK    2  A    between atoms: C_9  and  C_15
REMARK    3  A    between atoms: N_18  and  C_29
REMARK                            x       y       z     vdW  Elec       q    Type
REMARK                         _______ _______ _______ _____ _____    ______ ____
ROOT
ATOM      1  O   UNL     1      34.997 -23.156 -15.562  0.00  0.00    -0.270 OA
ATOM      2  N   UNL     1      33.133 -23.549 -14.166  0.00  0.00    -0.280 N 
ATOM      3  C   UNL     1      31.443 -22.762 -15.512  0.00  0.00    +0.019 C 
ATOM      4  C   UNL     1      32.716 -22.606 -16.208  0.00  0.00    +0.069 C 
ATOM      5  C   UNL     1      31.754 -23.339 -14.278  0.00  0.00    +0.051 C 
ATOM      6  C   UNL     1      32.944 -22.099 -17.423  0.00  0.00    +0.066 C 
ATOM      7  C   UNL     1      33.806 -23.123 -15.315  0.00  0.00    +0.251 C 
ATOM      8  C   UNL     1      30.134 -22.466 -15.844  0.00  0.00    +0.005 C 
ATOM      9  C   UNL     1      29.140 -22.761 -14.905  0.00  0.00    +0.036 C 
ATOM     10  C   UNL     1      30.788 -23.639 -13.337  0.00  0.00    +0.015 C 
ATOM     11  C   UNL     1      29.463 -23.342 -13.664  0.00  0.00    +0.004 C 
ATOM     12  H   UNL     1      33.572 -23.944 -13.378  0.00  0.00    +0.155 HD
ENDROOT
BRANCH   9  15
ATOM     13  O   UNL     1      27.467 -22.297 -16.527  0.00  0.00    -0.431 OA
ATOM     14  N   UNL     1      25.569 -22.028 -15.326  0.00  0.00    -0.203 NA
ATOM     15  C   UNL     1      27.761 -22.464 -15.212  0.00  0.00    +0.166 C 
ATOM     16  C   UNL     1      26.618 -22.303 -14.485  0.00  0.00    +0.140 C 
ATOM     17  C   UNL     1      26.130 -22.039 -16.514  0.00  0.00    +0.285 C 
ENDBRANCH   9  15
BRANCH   6  18
ATOM     18  N   UNL     1      34.130 -21.961 -18.054  0.00  0.00    -0.311 N 
ATOM     19  H   UNL     1      34.800 -22.656 -17.860  0.00  0.00    +0.152 HD
BRANCH  18  29
ATOM     20  S   UNL     1      34.180 -17.684 -22.623  0.00  0.00    -0.002 S 
ATOM     21  O   UNL     1      34.352 -18.316 -23.917  0.00  0.00    -0.172 OA
ATOM     22  O   UNL     1      33.753 -16.305 -22.502  0.00  0.00    -0.172 OA
ATOM     23  C   UNL     1      33.081 -18.702 -21.651  0.00  0.00    +0.177 C 
ATOM     24  C   UNL     1      35.696 -17.889 -21.701  0.00  0.00    +0.177 C 
ATOM     25  C   UNL     1      34.012 -19.383 -20.706  0.00  0.00    +0.000 C 
ATOM     26  C   UNL     1      35.349 -18.967 -20.732  0.00  0.00    -0.001 C 
ATOM     27  C   UNL     1      33.603 -20.375 -19.817  0.00  0.00    +0.012 C 
ATOM     28  C   UNL     1      36.278 -19.543 -19.868  0.00  0.00    -0.002 C 
ATOM     29  C   UNL     1      34.535 -20.954 -18.956  0.00  0.00    +0.048 C 
ATOM     30  C   UNL     1      35.869 -20.539 -18.981  0.00  0.00    +0.014 C 
ENDBRANCH  18  29
ENDBRANCH   6  18
TORSDOF 3
ENDMDL
MODEL 2
REMARK VINA RESULT:     -11.4      1.186      1.476
REMARK  Name = 5288710
REMARK  3 active torsions:
REMARK  status: ('A' for Active; 'I' for Inactive)
REMARK    1  A    between atoms: C_6  and  N_18
REMARK    2  A    between atoms: C_9  and  C_15
REMARK    3  A    between atoms: N_18  and  C_29
REMARK                            x       y       z     vdW  Elec       q    Type
REMARK                         _______ _______ _______ _____ _____    ______ ____
ROOT
ATOM      1  O   UNL     1      36.067 -21.975 -16.672  0.00  0.00    -0.270 OA
ATOM      2  N   UNL     1      34.538 -22.671 -15.011  0.00  0.00    -0.280 N 
ATOM      3  C   UNL     1      32.562 -22.488 -16.173  0.00  0.00    +0.019 C 
ATOM      4  C   UNL     1      33.664 -22.093 -17.045  0.00  0.00    +0.069 C 
ATOM      5  C   UNL     1      33.149 -22.830 -14.952  0.00  0.00    +0.051 C 
ATOM      6  C   UNL     1      33.615 -21.680 -18.314  0.00  0.00    +0.066 C 
ATOM      7  C   UNL     1      34.943 -22.218 -16.269  0.00  0.00    +0.251 C 
ATOM      8  C   UNL     1      31.193 -22.569 -16.347  0.00  0.00    +0.005 C 
ATOM      9  C   UNL     1      30.422 -23.001 -15.264  0.00  0.00    +0.036 C 
ATOM     10  C   UNL     1      32.406 -23.260 -13.869  0.00  0.00    +0.015 C 
ATOM     11  C   UNL     1      31.022 -23.344 -14.037  0.00  0.00    +0.004 C 
ATOM     12  H   UNL     1      35.150 -22.855 -14.262  0.00  0.00    +0.155 HD
ENDROOT
BRANCH   9  15
ATOM     13  O   UNL     1      28.398 -22.132 -16.153  0.00  0.00    -0.431 OA
ATOM     14  N   UNL     1      26.797 -23.549 -15.413  0.00  0.00    -0.203 NA
ATOM     15  C   UNL     1      28.989 -23.098 -15.404  0.00  0.00    +0.166 C 
ATOM     16  C   UNL     1      28.025 -23.954 -14.956  0.00  0.00    +0.140 C 
ATOM     17  C   UNL     1      27.080 -22.473 -16.111  0.00  0.00    +0.285 C 
ENDBRANCH   9  15
BRANCH   6  18
ATOM     18  N   UNL     1      34.645 -21.317 -19.108  0.00  0.00    -0.311 N 
ATOM     19  H   UNL     1      35.413 -21.933 -19.121  0.00  0.00    +0.152 HD
BRANCH  18  29
ATOM     20  S   UNL     1      33.697 -16.981 -23.521  0.00  0.00    -0.002 S 
ATOM     21  O   UNL     1      34.227 -17.420 -24.797  0.00  0.00    -0.172 OA
ATOM     22  O   UNL     1      32.798 -15.849 -23.421  0.00  0.00    -0.172 OA
ATOM     23  C   UNL     1      32.927 -18.383 -22.728  0.00  0.00    +0.177 C 
ATOM     24  C   UNL     1      35.071 -16.709 -22.413  0.00  0.00    +0.177 C 
ATOM     25  C   UNL     1      33.924 -18.762 -21.686  0.00  0.00    +0.000 C 
ATOM     26  C   UNL     1      35.020 -17.906 -21.525  0.00  0.00    -0.001 C 
ATOM     27  C   UNL     1      33.795 -19.894 -20.884  0.00  0.00    +0.012 C 
ATOM     28  C   UNL     1      35.989 -18.181 -20.562  0.00  0.00    -0.002 C 
ATOM     29  C   UNL     1      34.767 -20.171 -19.923  0.00  0.00    +0.048 C 
ATOM     30  C   UNL     1      35.861 -19.316 -19.762  0.00  0.00    +0.014 C 
ENDBRANCH  18  29
ENDBRANCH   6  18
TORSDOF 3
ENDMDL
MODEL 3
REMARK VINA RESULT:     -11.3      7.954     12.244
REMARK  Name = 5288710
REMARK  3 active torsions:
REMARK  status: ('A' for Active; 'I' for Inactive)
REMARK    1  A    between atoms: C_6  and  N_18
REMARK    2  A    between atoms: C_9  and  C_15
REMARK    3  A    between atoms: N_18  and  C_29
REMARK                            x       y       z     vdW  Elec       q    Type
REMARK                         _______ _______ _______ _____ _____    ______ ____
ROOT
ATOM      1  O   UNL     1      31.636 -12.320 -26.224  0.00  0.00    -0.270 OA
ATOM      2  N   UNL     1      31.761 -14.643 -25.814  0.00  0.00    -0.280 N 
ATOM      3  C   UNL     1      33.171 -14.661 -23.997  0.00  0.00    +0.019 C 
ATOM      4  C   UNL     1      32.958 -13.281 -24.420  0.00  0.00    +0.069 C 
ATOM      5  C   UNL     1      32.421 -15.447 -24.877  0.00  0.00    +0.051 C 
ATOM      6  C   UNL     1      33.463 -12.161 -23.893  0.00  0.00    +0.066 C 
ATOM      7  C   UNL     1      32.038 -13.289 -25.605  0.00  0.00    +0.251 C 
ATOM      8  C   UNL     1      33.908 -15.244 -22.984  0.00  0.00    +0.005 C 
ATOM      9  C   UNL     1      33.877 -16.637 -22.872  0.00  0.00    +0.036 C 
ATOM     10  C   UNL     1      32.376 -16.824 -24.785  0.00  0.00    +0.015 C 
ATOM     11  C   UNL     1      33.119 -17.420 -23.763  0.00  0.00    +0.004 C 
ATOM     12  H   UNL     1      31.178 -14.988 -26.528  0.00  0.00    +0.155 HD
ENDROOT
BRANCH   9  15
ATOM     13  O   UNL     1      35.599 -18.148 -22.240  0.00  0.00    -0.431 OA
ATOM     14  N   UNL     1      35.601 -18.094 -19.979  0.00  0.00    -0.203 NA
ATOM     15  C   UNL     1      34.635 -17.285 -21.828  0.00  0.00    +0.166 C 
ATOM     16  C   UNL     1      34.635 -17.250 -20.464  0.00  0.00    +0.140 C 
ATOM     17  C   UNL     1      36.135 -18.593 -21.070  0.00  0.00    +0.285 C 
ENDBRANCH   9  15
BRANCH   6  18
ATOM     18  N   UNL     1      33.257 -10.889 -24.296  0.00  0.00    -0.311 N 
ATOM     19  H   UNL     1      33.213 -10.752 -25.270  0.00  0.00    +0.152 HD
BRANCH  18  29
ATOM     20  S   UNL     1      30.999  -6.643 -20.290  0.00  0.00    -0.002 S 
ATOM     21  O   UNL     1      29.967  -5.842 -20.918  0.00  0.00    -0.172 OA
ATOM     22  O   UNL     1      31.197  -6.638 -18.855  0.00  0.00    -0.172 OA
ATOM     23  C   UNL     1      30.790  -8.334 -20.825  0.00  0.00    +0.177 C 
ATOM     24  C   UNL     1      32.556  -6.255 -21.075  0.00  0.00    +0.177 C 
ATOM     25  C   UNL     1      31.882  -8.501 -21.826  0.00  0.00    +0.000 C 
ATOM     26  C   UNL     1      32.785  -7.438 -21.954  0.00  0.00    -0.001 C 
ATOM     27  C   UNL     1      32.037  -9.649 -22.600  0.00  0.00    +0.012 C 
ATOM     28  C   UNL     1      33.844  -7.522 -22.856  0.00  0.00    -0.002 C 
ATOM     29  C   UNL     1      33.095  -9.731 -23.506  0.00  0.00    +0.048 C 
ATOM     30  C   UNL     1      33.995  -8.670 -23.634  0.00  0.00    +0.014 C 
ENDBRANCH  18  29
ENDBRANCH   6  18
TORSDOF 3
ENDMDL
MODEL 4
REMARK VINA RESULT:     -11.3      3.507      8.968
REMARK  Name = 5288710
REMARK  3 active torsions:
REMARK  status: ('A' for Active; 'I' for Inactive)
REMARK    1  A    between atoms: C_6  and  N_18
REMARK    2  A    between atoms: C_9  and  C_15
REMARK    3  A    between atoms: N_18  and  C_29
REMARK                            x       y       z     vdW  Elec       q    Type
REMARK                         _______ _______ _______ _____ _____    ______ ____
ROOT
ATOM      1  O   UNL     1      35.401 -21.964 -17.189  0.00  0.00    -0.270 OA
ATOM      2  N   UNL     1      36.226 -20.205 -18.532  0.00  0.00    -0.280 N 
ATOM      3  C   UNL     1      34.462 -19.940 -19.984  0.00  0.00    +0.019 C 
ATOM      4  C   UNL     1      34.146 -21.011 -19.044  0.00  0.00    +0.069 C 
ATOM      5  C   UNL     1      35.735 -19.486 -19.628  0.00  0.00    +0.051 C 
ATOM      6  C   UNL     1      33.043 -21.760 -18.974  0.00  0.00    +0.066 C 
ATOM      7  C   UNL     1      35.308 -21.169 -18.106  0.00  0.00    +0.251 C 
ATOM      8  C   UNL     1      33.780 -19.372 -21.044  0.00  0.00    +0.005 C 
ATOM      9  C   UNL     1      34.406 -18.335 -21.742  0.00  0.00    +0.036 C 
ATOM     10  C   UNL     1      36.371 -18.462 -20.303  0.00  0.00    +0.015 C 
ATOM     11  C   UNL     1      35.688 -17.884 -21.376  0.00  0.00    +0.004 C 
ATOM     12  H   UNL     1      37.104 -20.051 -18.115  0.00  0.00    +0.155 HD
ENDROOT
BRANCH   9  15
ATOM     13  O   UNL     1      33.846 -16.367 -22.950  0.00  0.00    -0.431 OA
ATOM     14  N   UNL     1      32.574 -17.099 -24.672  0.00  0.00    -0.203 NA
ATOM     15  C   UNL     1      33.728 -17.717 -22.856  0.00  0.00    +0.166 C 
ATOM     16  C   UNL     1      32.962 -18.161 -23.895  0.00  0.00    +0.140 C 
ATOM     17  C   UNL     1      33.125 -16.071 -24.066  0.00  0.00    +0.285 C 
ENDBRANCH   9  15
BRANCH   6  18
ATOM     18  N   UNL     1      32.765 -22.748 -18.097  0.00  0.00    -0.311 N 
ATOM     19  H   UNL     1      33.173 -23.622 -18.296  0.00  0.00    +0.152 HD
BRANCH  18  29
ATOM     20  S   UNL     1      30.710 -23.366 -12.218  0.00  0.00    -0.002 S 
ATOM     21  O   UNL     1      30.202 -24.704 -11.988  0.00  0.00    -0.172 OA
ATOM     22  O   UNL     1      30.985 -22.459 -11.122  0.00  0.00    -0.172 OA
ATOM     23  C   UNL     1      32.181 -23.496 -13.223  0.00  0.00    +0.177 C 
ATOM     24  C   UNL     1      29.616 -22.546 -13.367  0.00  0.00    +0.177 C 
ATOM     25  C   UNL     1      31.699 -23.071 -14.568  0.00  0.00    +0.000 C 
ATOM     26  C   UNL     1      30.388 -22.585 -14.642  0.00  0.00    -0.001 C 
ATOM     27  C   UNL     1      32.492 -23.124 -15.713  0.00  0.00    +0.012 C 
ATOM     28  C   UNL     1      29.868 -22.153 -15.860  0.00  0.00    -0.002 C 
ATOM     29  C   UNL     1      31.970 -22.695 -16.933  0.00  0.00    +0.048 C 
ATOM     30  C   UNL     1      30.661 -22.211 -17.006  0.00  0.00    +0.014 C 
ENDBRANCH  18  29
ENDBRANCH   6  18
TORSDOF 3
ENDMDL
MODEL 5
REMARK VINA RESULT:     -11.0      2.971      5.183
REMARK  Name = 5288710
REMARK  3 active torsions:
REMARK  status: ('A' for Active; 'I' for Inactive)
REMARK    1  A    between atoms: C_6  and  N_18
REMARK    2  A    between atoms: C_9  and  C_15
REMARK    3  A    between atoms: N_18  and  C_29
REMARK                            x       y       z     vdW  Elec       q    Type
REMARK                         _______ _______ _______ _____ _____    ______ ____
ROOT
ATOM      1  O   UNL     1      31.704 -21.363 -19.634  0.00  0.00    -0.270 OA
ATOM      2  N   UNL     1      31.488 -22.126 -17.408  0.00  0.00    -0.280 N 
ATOM      3  C   UNL     1      33.700 -22.189 -16.783  0.00  0.00    +0.019 C 
ATOM      4  C   UNL     1      33.611 -21.731 -18.166  0.00  0.00    +0.069 C 
ATOM      5  C   UNL     1      32.383 -22.414 -16.372  0.00  0.00    +0.051 C 
ATOM      6  C   UNL     1      34.600 -21.388 -18.995  0.00  0.00    +0.066 C 
ATOM      7  C   UNL     1      32.162 -21.696 -18.556  0.00  0.00    +0.251 C 
ATOM      8  C   UNL     1      34.757 -22.408 -15.920  0.00  0.00    +0.005 C 
ATOM      9  C   UNL     1      34.463 -22.861 -14.630  0.00  0.00    +0.036 C 
ATOM     10  C   UNL     1      32.070 -22.860 -15.103  0.00  0.00    +0.015 C 
ATOM     11  C   UNL     1      33.133 -23.085 -14.224  0.00  0.00    +0.004 C 
ATOM     12  H   UNL     1      30.510 -22.214 -17.338  0.00  0.00    +0.155 HD
ENDROOT
BRANCH   9  15
ATOM     13  O   UNL     1      35.260 -22.859 -12.392  0.00  0.00    -0.431 OA
ATOM     14  N   UNL     1      37.398 -23.581 -12.548  0.00  0.00    -0.203 NA
ATOM     15  C   UNL     1      35.538 -23.104 -13.698  0.00  0.00    +0.166 C 
ATOM     16  C   UNL     1      36.827 -23.540 -13.795  0.00  0.00    +0.140 C 
ATOM     17  C   UNL     1      36.428 -23.170 -11.764  0.00  0.00    +0.285 C 
ENDBRANCH   9  15
BRANCH   6  18
ATOM     18  N   UNL     1      34.501 -20.965 -20.274  0.00  0.00    -0.311 N 
ATOM     19  H   UNL     1      34.460 -21.674 -20.956  0.00  0.00    +0.152 HD
BRANCH  18  29
ATOM     20  S   UNL     1      33.506 -15.955 -23.891  0.00  0.00    -0.002 S 
ATOM     21  O   UNL     1      34.547 -15.828 -24.892  0.00  0.00    -0.172 OA
ATOM     22  O   UNL     1      32.271 -15.202 -23.979  0.00  0.00    -0.172 OA
ATOM     23  C   UNL     1      33.099 -17.687 -23.730  0.00  0.00    +0.177 C 
ATOM     24  C   UNL     1      34.236 -15.654 -22.289  0.00  0.00    +0.177 C 
ATOM     25  C   UNL     1      33.766 -18.065 -22.452  0.00  0.00    +0.000 C 
ATOM     26  C   UNL     1      34.348 -17.026 -21.715  0.00  0.00    -0.001 C 
ATOM     27  C   UNL     1      33.813 -19.374 -21.976  0.00  0.00    +0.012 C 
ATOM     28  C   UNL     1      34.977 -17.294 -20.501  0.00  0.00    -0.002 C 
ATOM     29  C   UNL     1      34.447 -19.642 -20.762  0.00  0.00    +0.048 C 
ATOM     30  C   UNL     1      35.027 -18.605 -20.027  0.00  0.00    +0.014 C 
ENDBRANCH  18  29
ENDBRANCH   6  18
TORSDOF 3
ENDMDL
MODEL 6
REMARK VINA RESULT:     -10.9      3.047      6.230
REMARK  Name = 5288710
REMARK  3 active torsions:
REMARK  status: ('A' for Active; 'I' for Inactive)
REMARK    1  A    between atoms: C_6  and  N_18
REMARK    2  A    between atoms: C_9  and  C_15
REMARK    3  A    between atoms: N_18  and  C_29
REMARK                            x       y       z     vdW  Elec       q    Type
REMARK                         _______ _______ _______ _____ _____    ______ ____
ROOT
ATOM      1  O   UNL     1      30.974 -22.425 -14.875  0.00  0.00    -0.270 OA
ATOM      2  N   UNL     1      32.283 -23.266 -13.098  0.00  0.00    -0.280 N 
ATOM      3  C   UNL     1      34.268 -23.643 -14.196  0.00  0.00    +0.019 C 
ATOM      4  C   UNL     1      33.295 -23.107 -15.143  0.00  0.00    +0.069 C 
ATOM      5  C   UNL     1      33.601 -23.718 -12.970  0.00  0.00    +0.051 C 
ATOM      6  C   UNL     1      33.453 -22.852 -16.445  0.00  0.00    +0.066 C 
ATOM      7  C   UNL     1      32.008 -22.868 -14.409  0.00  0.00    +0.251 C 
ATOM      8  C   UNL     1      35.587 -24.038 -14.309  0.00  0.00    +0.005 C 
ATOM      9  C   UNL     1      36.226 -24.514 -13.159  0.00  0.00    +0.036 C 
ATOM     10  C   UNL     1      34.213 -24.184 -11.823  0.00  0.00    +0.015 C 
ATOM     11  C   UNL     1      35.546 -24.587 -11.928  0.00  0.00    +0.004 C 
ATOM     12  H   UNL     1      31.633 -23.232 -12.358  0.00  0.00    +0.155 HD
ENDROOT
BRANCH   9  15
ATOM     13  O   UNL     1      38.344 -24.382 -14.227  0.00  0.00    -0.431 OA
ATOM     14  N   UNL     1      39.659 -25.806 -13.061  0.00  0.00    -0.203 NA
ATOM     15  C   UNL     1      37.604 -24.939 -13.235  0.00  0.00    +0.166 C 
ATOM     16  C   UNL     1      38.395 -25.799 -12.529  0.00  0.00    +0.140 C 
ATOM     17  C   UNL     1      39.568 -24.953 -14.055  0.00  0.00    +0.285 C 
ENDBRANCH   9  15
BRANCH   6  18
ATOM     18  N   UNL     1      32.542 -22.356 -17.309  0.00  0.00    -0.311 N 
ATOM     19  H   UNL     1      31.620 -22.678 -17.189  0.00  0.00    +0.152 HD
BRANCH  18  29
ATOM     20  S   UNL     1      35.149 -18.374 -21.374  0.00  0.00    -0.002 S 
ATOM     21  O   UNL     1      35.332 -17.068 -20.770  0.00  0.00    -0.172 OA
ATOM     22  O   UNL     1      35.799 -18.733 -22.618  0.00  0.00    -0.172 OA
ATOM     23  C   UNL     1      35.551 -19.612 -20.151  0.00  0.00    +0.177 C 
ATOM     24  C   UNL     1      33.396 -18.663 -21.549  0.00  0.00    +0.177 C 
ATOM     25  C   UNL     1      34.210 -20.105 -19.727  0.00  0.00    +0.000 C 
ATOM     26  C   UNL     1      33.108 -19.620 -20.442  0.00  0.00    -0.001 C 
ATOM     27  C   UNL     1      34.026 -21.015 -18.688  0.00  0.00    +0.012 C 
ATOM     28  C   UNL     1      31.821 -20.044 -20.119  0.00  0.00    -0.002 C 
ATOM     29  C   UNL     1      32.737 -21.437 -18.362  0.00  0.00    +0.048 C 
ATOM     30  C   UNL     1      31.637 -20.953 -19.075  0.00  0.00    +0.014 C 
ENDBRANCH  18  29
ENDBRANCH   6  18
TORSDOF 3
ENDMDL
MODEL 7
REMARK VINA RESULT:     -10.9      7.155     11.223
REMARK  Name = 5288710
REMARK  3 active torsions:
REMARK  status: ('A' for Active; 'I' for Inactive)
REMARK    1  A    between atoms: C_6  and  N_18
REMARK    2  A    between atoms: C_9  and  C_15
REMARK    3  A    between atoms: N_18  and  C_29
REMARK                            x       y       z     vdW  Elec       q    Type
REMARK                         _______ _______ _______ _____ _____    ______ ____
ROOT
ATOM      1  O   UNL     1      31.986 -13.541 -25.423  0.00  0.00    -0.270 OA
ATOM      2  N   UNL     1      32.136 -15.871 -25.062  0.00  0.00    -0.280 N 
ATOM      3  C   UNL     1      33.485 -15.909 -23.200  0.00  0.00    +0.019 C 
ATOM      4  C   UNL     1      33.264 -14.523 -23.598  0.00  0.00    +0.069 C 
ATOM      5  C   UNL     1      32.778 -16.686 -24.123  0.00  0.00    +0.051 C 
ATOM      6  C   UNL     1      33.732 -13.408 -23.029  0.00  0.00    +0.066 C 
ATOM      7  C   UNL     1      32.383 -14.518 -24.813  0.00  0.00    +0.251 C 
ATOM      8  C   UNL     1      34.198 -16.504 -22.176  0.00  0.00    +0.005 C 
ATOM      9  C   UNL     1      34.187 -17.900 -22.098  0.00  0.00    +0.036 C 
ATOM     10  C   UNL     1      32.753 -18.065 -24.063  0.00  0.00    +0.015 C 
ATOM     11  C   UNL     1      33.472 -18.674 -23.032  0.00  0.00    +0.004 C 
ATOM     12  H   UNL     1      31.582 -16.208 -25.803  0.00  0.00    +0.155 HD
ENDROOT
BRANCH   9  15
ATOM     13  O   UNL     1      34.323 -19.648 -20.495  0.00  0.00    -0.431 OA
ATOM     14  N   UNL     1      36.313 -19.326 -19.469  0.00  0.00    -0.203 NA
ATOM     15  C   UNL     1      34.921 -18.560 -21.044  0.00  0.00    +0.166 C 
ATOM     16  C   UNL     1      36.122 -18.363 -20.427  0.00  0.00    +0.140 C 
ATOM     17  C   UNL     1      35.223 -20.053 -19.556  0.00  0.00    +0.285 C 
ENDBRANCH   9  15
BRANCH   6  18
ATOM     18  N   UNL     1      33.518 -12.131 -23.409  0.00  0.00    -0.311 N 
ATOM     19  H   UNL     1      33.947 -11.859 -24.252  0.00  0.00    +0.152 HD
BRANCH  18  29
ATOM     20  S   UNL     1      31.124  -6.619 -21.660  0.00  0.00    -0.002 S 
ATOM     21  O   UNL     1      32.016  -5.938 -20.742  0.00  0.00    -0.172 OA
ATOM     22  O   UNL     1      30.021  -5.929 -22.299  0.00  0.00    -0.172 OA
ATOM     23  C   UNL     1      32.117  -7.391 -22.928  0.00  0.00    +0.177 C 
ATOM     24  C   UNL     1      30.481  -8.068 -20.838  0.00  0.00    +0.177 C 
ATOM     25  C   UNL     1      32.096  -8.828 -22.533  0.00  0.00    +0.000 C 
ATOM     26  C   UNL     1      31.260  -9.175 -21.464  0.00  0.00    -0.001 C 
ATOM     27  C   UNL     1      32.846  -9.807 -23.182  0.00  0.00    +0.012 C 
ATOM     28  C   UNL     1      31.173 -10.500 -21.043  0.00  0.00    -0.002 C 
ATOM     29  C   UNL     1      32.760 -11.134 -22.758  0.00  0.00    +0.048 C 
ATOM     30  C   UNL     1      31.926 -11.479 -21.692  0.00  0.00    +0.014 C 
ENDBRANCH  18  29
ENDBRANCH   6  18
TORSDOF 3
ENDMDL
MODEL 8
REMARK VINA RESULT:     -10.9      2.344      4.943
REMARK  Name = 5288710
REMARK  3 active torsions:
REMARK  status: ('A' for Active; 'I' for Inactive)
REMARK    1  A    between atoms: C_6  and  N_18
REMARK    2  A    between atoms: C_9  and  C_15
REMARK    3  A    between atoms: N_18  and  C_29
REMARK                            x       y       z     vdW  Elec       q    Type
REMARK                         _______ _______ _______ _____ _____    ______ ____
ROOT
ATOM      1  O   UNL     1      30.635 -22.066 -17.149  0.00  0.00    -0.270 OA
ATOM      2  N   UNL     1      30.690 -22.768 -14.894  0.00  0.00    -0.280 N 
ATOM      3  C   UNL     1      32.939 -23.178 -14.650  0.00  0.00    +0.019 C 
ATOM      4  C   UNL     1      32.685 -22.721 -16.012  0.00  0.00    +0.069 C 
ATOM      5  C   UNL     1      31.694 -23.187 -14.015  0.00  0.00    +0.051 C 
ATOM      6  C   UNL     1      33.558 -22.546 -17.008  0.00  0.00    +0.066 C 
ATOM      7  C   UNL     1      31.214 -22.459 -16.153  0.00  0.00    +0.251 C 
ATOM      8  C   UNL     1      34.082 -23.556 -13.970  0.00  0.00    +0.005 C 
ATOM      9  C   UNL     1      33.948 -23.946 -12.634  0.00  0.00    +0.036 C 
ATOM     10  C   UNL     1      31.539 -23.569 -12.696  0.00  0.00    +0.015 C 
ATOM     11  C   UNL     1      32.690 -23.953 -12.003  0.00  0.00    +0.004 C 
ATOM     12  H   UNL     1      29.737 -22.699 -14.656  0.00  0.00    +0.155 HD
ENDROOT
BRANCH   9  15
ATOM     13  O   UNL     1      35.890 -25.305 -12.468  0.00  0.00    -0.431 OA
ATOM     14  N   UNL     1      36.819 -24.730 -10.487  0.00  0.00    -0.203 NA
ATOM     15  C   UNL     1      35.117 -24.350 -11.890  0.00  0.00    +0.166 C 
ATOM     16  C   UNL     1      35.675 -24.001 -10.694  0.00  0.00    +0.140 C 
ATOM     17  C   UNL     1      36.894 -25.478 -11.564  0.00  0.00    +0.285 C 
ENDBRANCH   9  15
BRANCH   6  18
ATOM     18  N   UNL     1      33.307 -22.122 -18.266  0.00  0.00    -0.311 N 
ATOM     19  H   UNL     1      32.578 -22.588 -18.735  0.00  0.00    +0.152 HD
BRANCH  18  29
ATOM     20  S   UNL     1      34.468 -17.409 -22.216  0.00  0.00    -0.002 S 
ATOM     21  O   UNL     1      34.657 -17.904 -23.566  0.00  0.00    -0.172 OA
ATOM     22  O   UNL     1      34.258 -16.001 -21.946  0.00  0.00    -0.172 OA
ATOM     23  C   UNL     1      33.134 -18.332 -21.469  0.00  0.00    +0.177 C 
ATOM     24  C   UNL     1      35.839 -17.976 -21.222  0.00  0.00    +0.177 C 
ATOM     25  C   UNL     1      33.852 -19.267 -20.557  0.00  0.00    +0.000 C 
ATOM     26  C   UNL     1      35.234 -19.086 -20.430  0.00  0.00    -0.001 C 
ATOM     27  C   UNL     1      33.208 -20.273 -19.838  0.00  0.00    +0.012 C 
ATOM     28  C   UNL     1      35.975 -19.909 -19.585  0.00  0.00    -0.002 C 
ATOM     29  C   UNL     1      33.951 -21.100 -18.995  0.00  0.00    +0.048 C 
ATOM     30  C   UNL     1      35.330 -20.918 -18.869  0.00  0.00    +0.014 C 
ENDBRANCH  18  29
ENDBRANCH   6  18
TORSDOF 3
ENDMDL
MODEL 9
REMARK VINA RESULT:     -10.8      9.279     13.549
REMARK  Name = 5288710
REMARK  3 active torsions:
REMARK  status: ('A' for Active; 'I' for Inactive)
REMARK    1  A    between atoms: C_6  and  N_18
REMARK    2  A    between atoms: C_9  and  C_15
REMARK    3  A    between atoms: N_18  and  C_29
REMARK                            x       y       z     vdW  Elec       q    Type
REMARK                         _______ _______ _______ _____ _____    ______ ____
ROOT
ATOM      1  O   UNL     1      34.500 -10.781 -25.291  0.00  0.00    -0.270 OA
ATOM      2  N   UNL     1      34.370  -8.484 -24.754  0.00  0.00    -0.280 N 
ATOM      3  C   UNL     1      32.963  -8.569 -22.938  0.00  0.00    +0.019 C 
ATOM      4  C   UNL     1      33.178  -9.924 -23.435  0.00  0.00    +0.069 C 
ATOM      5  C   UNL     1      33.710  -7.735 -23.774  0.00  0.00    +0.051 C 
ATOM      6  C   UNL     1      32.676 -11.072 -22.971  0.00  0.00    +0.066 C 
ATOM      7  C   UNL     1      34.097  -9.849 -24.620  0.00  0.00    +0.251 C 
ATOM      8  C   UNL     1      32.225  -8.045 -21.893  0.00  0.00    +0.005 C 
ATOM      9  C   UNL     1      32.253  -6.660 -21.705  0.00  0.00    +0.036 C 
ATOM     10  C   UNL     1      33.752  -6.365 -23.606  0.00  0.00    +0.015 C 
ATOM     11  C   UNL     1      33.008  -5.827 -22.552  0.00  0.00    +0.004 C 
ATOM     12  H   UNL     1      34.952  -8.099 -25.449  0.00  0.00    +0.155 HD
ENDROOT
BRANCH   9  15
ATOM     13  O   UNL     1      32.008  -6.236 -19.380  0.00  0.00    -0.431 OA
ATOM     14  N   UNL     1      30.089  -5.050 -19.216  0.00  0.00    -0.203 NA
ATOM     15  C   UNL     1      31.494  -6.072 -20.626  0.00  0.00    +0.166 C 
ATOM     16  C   UNL     1      30.337  -5.356 -20.530  0.00  0.00    +0.140 C 
ATOM     17  C   UNL     1      31.107  -5.593 -18.588  0.00  0.00    +0.285 C 
ENDBRANCH   9  15
BRANCH   6  18
ATOM     18  N   UNL     1      32.884 -12.319 -23.443  0.00  0.00    -0.311 N 
ATOM     19  H   UNL     1      32.764 -12.434 -24.413  0.00  0.00    +0.152 HD
BRANCH  18  29
ATOM     20  S   UNL     1      34.496 -18.188 -21.984  0.00  0.00    -0.002 S 
ATOM     21  O   UNL     1      33.328 -19.046 -21.936  0.00  0.00    -0.172 OA
ATOM     22  O   UNL     1      35.838 -18.734 -22.012  0.00  0.00    -0.172 OA
ATOM     23  C   UNL     1      34.310 -17.075 -23.368  0.00  0.00    +0.177 C 
ATOM     24  C   UNL     1      34.387 -17.028 -20.631  0.00  0.00    +0.177 C 
ATOM     25  C   UNL     1      33.936 -15.791 -22.710  0.00  0.00    +0.000 C 
ATOM     26  C   UNL     1      33.976 -15.766 -21.311  0.00  0.00    -0.001 C 
ATOM     27  C   UNL     1      33.577 -14.648 -23.422  0.00  0.00    +0.012 C 
ATOM     28  C   UNL     1      33.655 -14.599 -20.621  0.00  0.00    -0.002 C 
ATOM     29  C   UNL     1      33.252 -13.481 -22.730  0.00  0.00    +0.048 C 
ATOM     30  C   UNL     1      33.292 -13.456 -21.334  0.00  0.00    +0.014 C 
ENDBRANCH  18  29
ENDBRANCH   6  18
TORSDOF 3
ENDMDL
