MODEL 1
REMARK VINA RESULT:     -12.2      0.000      0.000
REMARK  Name = 45268539
REMARK  6 active torsions:
REMARK  status: ('A' for Active; 'I' for Inactive)
REMARK    1  A    between atoms: N_2  and  C_22
REMARK    2  A    between atoms: N_3  and  C_7
REMARK    3  A    between atoms: N_3  and  O_12
REMARK    4  A    between atoms: C_8  and  C_14
REMARK    5  A    between atoms: C_15  and  C_16
REMARK    6  A    between atoms: C_22  and  C_26
REMARK                            x       y       z     vdW  Elec       q    Type
REMARK                         _______ _______ _______ _____ _____    ______ ____
ROOT
ATOM      1  O   UNL     1      31.012 -23.371 -16.184  0.00  0.00    -0.273 OA
ATOM      2  N   UNL     1      33.205 -22.941 -15.373  0.00  0.00    -0.253 N 
ATOM      3  C   UNL     1      34.327 -22.298 -15.930  0.00  0.00    +0.052 C 
ATOM      4  C   UNL     1      34.040 -21.843 -17.217  0.00  0.00    +0.018 C 
ATOM      5  C   UNL     1      32.141 -22.935 -16.260  0.00  0.00    +0.252 C 
ATOM      6  C   UNL     1      32.665 -22.218 -17.482  0.00  0.00    +0.202 C 
ATOM      7  C   UNL     1      34.958 -21.176 -18.000  0.00  0.00    -0.001 C 
ATOM      8  C   UNL     1      35.577 -22.093 -15.376  0.00  0.00    +0.015 C 
ATOM      9  C   UNL     1      36.222 -20.964 -17.447  0.00  0.00    -0.000 C 
ATOM     10  C   UNL     1      36.529 -21.418 -16.149  0.00  0.00    +0.001 C 
ENDROOT
BRANCH   7  11
ATOM     11  C   UNL     1      34.665 -20.701 -19.340  0.00  0.00    -0.000 C 
ATOM     12  C   UNL     1      34.682 -19.402 -19.731  0.00  0.00    -0.000 C 
BRANCH  12  13
ATOM     13  C   UNL     1      34.402 -18.921 -21.096  0.00  0.00    -0.000 C 
ATOM     14  C   UNL     1      34.446 -17.556 -21.377  0.00  0.00    -0.000 C 
ATOM     15  C   UNL     1      34.093 -19.832 -22.107  0.00  0.00    -0.000 C 
ATOM     16  C   UNL     1      34.181 -17.100 -22.669  0.00  0.00    +0.000 C 
ATOM     17  C   UNL     1      33.829 -19.376 -23.398  0.00  0.00    +0.000 C 
ATOM     18  C   UNL     1      33.872 -18.011 -23.679  0.00  0.00    +0.000 C 
ENDBRANCH  12  13
ENDBRANCH   7  11
BRANCH   6  19
ATOM     19  N   UNL     1      31.964 -22.011 -18.540  0.00  0.00    -0.075 NA
BRANCH  19  20
ATOM     20  O   UNL     1      31.484 -20.699 -18.504  0.00  0.00    -0.294 OA
ATOM     21  H   UNL     1      31.239 -20.269 -19.300  0.00  0.00    +0.238 HD
ENDBRANCH  19  20
ENDBRANCH   6  19
BRANCH   2  22
ATOM     22  C   UNL     1      33.195 -23.517 -14.051  0.00  0.00    +0.128 C 
BRANCH  22  26
ATOM     23  F   UNL     1      35.972 -27.293 -15.347  0.00  0.00    -0.204 F 
ATOM     24  O   UNL     1      34.946 -23.131 -11.905  0.00  0.00    -0.448 OA
ATOM     25  O   UNL     1      36.579 -23.991 -10.370  0.00  0.00    -0.311 OA
ATOM     26  C   UNL     1      34.384 -24.401 -13.813  0.00  0.00    +0.034 C 
ATOM     27  C   UNL     1      35.243 -24.183 -12.735  0.00  0.00    +0.138 C 
ATOM     28  C   UNL     1      36.339 -25.026 -12.517  0.00  0.00    +0.043 C 
ATOM     29  C   UNL     1      34.633 -25.454 -14.694  0.00  0.00    +0.030 C 
ATOM     30  C   UNL     1      37.249 -24.778 -11.354  0.00  0.00    +0.176 C 
ATOM     31  C   UNL     1      36.587 -26.072 -13.412  0.00  0.00    +0.031 C 
ATOM     32  C   UNL     1      35.734 -26.286 -14.496  0.00  0.00    +0.140 C 
ATOM     33  C   UNL     1      35.993 -22.840 -10.973  0.00  0.00    +0.361 C 
ENDBRANCH  22  26
ENDBRANCH   2  22
TORSDOF 6
ENDMDL
MODEL 2
REMARK VINA RESULT:     -11.0      7.336     13.260
REMARK  Name = 45268539
REMARK  6 active torsions:
REMARK  status: ('A' for Active; 'I' for Inactive)
REMARK    1  A    between atoms: N_2  and  C_22
REMARK    2  A    between atoms: N_3  and  C_7
REMARK    3  A    between atoms: N_3  and  O_12
REMARK    4  A    between atoms: C_8  and  C_14
REMARK    5  A    between atoms: C_15  and  C_16
REMARK    6  A    between atoms: C_22  and  C_26
REMARK                            x       y       z     vdW  Elec       q    Type
REMARK                         _______ _______ _______ _____ _____    ______ ____
ROOT
ATOM      1  O   UNL     1      31.944 -12.040 -20.319  0.00  0.00    -0.273 OA
ATOM      2  N   UNL     1      32.242 -12.669 -22.591  0.00  0.00    -0.253 N 
ATOM      3  C   UNL     1      32.785 -13.812 -23.209  0.00  0.00    +0.052 C 
ATOM      4  C   UNL     1      33.221 -14.725 -22.249  0.00  0.00    +0.018 C 
ATOM      5  C   UNL     1      32.296 -12.781 -21.212  0.00  0.00    +0.252 C 
ATOM      6  C   UNL     1      32.936 -14.125 -20.960  0.00  0.00    +0.202 C 
ATOM      7  C   UNL     1      33.798 -15.936 -22.571  0.00  0.00    -0.001 C 
ATOM      8  C   UNL     1      32.918 -14.094 -24.556  0.00  0.00    +0.015 C 
ATOM      9  C   UNL     1      33.935 -16.228 -23.929  0.00  0.00    -0.000 C 
ATOM     10  C   UNL     1      33.500 -15.317 -24.911  0.00  0.00    +0.001 C 
ENDROOT
BRANCH   7  11
ATOM     11  C   UNL     1      34.254 -16.889 -21.576  0.00  0.00    -0.000 C 
ATOM     12  C   UNL     1      33.885 -18.193 -21.513  0.00  0.00    -0.000 C 
BRANCH  12  13
ATOM     13  C   UNL     1      34.362 -19.165 -20.513  0.00  0.00    -0.000 C 
ATOM     14  C   UNL     1      35.712 -19.202 -20.165  0.00  0.00    -0.000 C 
ATOM     15  C   UNL     1      33.463 -20.047 -19.914  0.00  0.00    -0.000 C 
ATOM     16  C   UNL     1      36.164 -20.123 -19.219  0.00  0.00    +0.000 C 
ATOM     17  C   UNL     1      33.914 -20.967 -18.969  0.00  0.00    +0.000 C 
ATOM     18  C   UNL     1      35.265 -21.006 -18.621  0.00  0.00    +0.000 C 
ENDBRANCH  12  13
ENDBRANCH   7  11
BRANCH   6  19
ATOM     19  N   UNL     1      33.164 -14.595 -19.786  0.00  0.00    -0.075 NA
BRANCH  19  20
ATOM     20  O   UNL     1      31.960 -14.618 -19.076  0.00  0.00    -0.294 OA
ATOM     21  H   UNL     1      31.934 -14.319 -18.188  0.00  0.00    +0.238 HD
ENDBRANCH  19  20
ENDBRANCH   6  19
BRANCH   2  22
ATOM     22  C   UNL     1      31.707 -11.549 -23.325  0.00  0.00    +0.128 C 
BRANCH  22  26
ATOM     23  F   UNL     1      35.743  -9.780 -25.382  0.00  0.00    -0.204 F 
ATOM     24  O   UNL     1      31.526  -9.142 -21.913  0.00  0.00    -0.448 OA
ATOM     25  O   UNL     1      32.567  -7.180 -21.000  0.00  0.00    -0.311 OA
ATOM     26  C   UNL     1      32.713 -10.446 -23.481  0.00  0.00    +0.034 C 
ATOM     27  C   UNL     1      32.596  -9.254 -22.765  0.00  0.00    +0.138 C 
ATOM     28  C   UNL     1      33.553  -8.242 -22.909  0.00  0.00    +0.043 C 
ATOM     29  C   UNL     1      33.779 -10.621 -24.364  0.00  0.00    +0.030 C 
ATOM     30  C   UNL     1      33.412  -6.969 -22.131  0.00  0.00    +0.176 C 
ATOM     31  C   UNL     1      34.611  -8.422 -23.805  0.00  0.00    +0.031 C 
ATOM     32  C   UNL     1      34.724  -9.610 -24.529  0.00  0.00    +0.140 C 
ATOM     33  C   UNL     1      31.355  -7.816 -21.400  0.00  0.00    +0.361 C 
ENDBRANCH  22  26
ENDBRANCH   2  22
TORSDOF 6
ENDMDL
MODEL 3
REMARK VINA RESULT:     -10.7      1.918      2.531
REMARK  Name = 45268539
REMARK  6 active torsions:
REMARK  status: ('A' for Active; 'I' for Inactive)
REMARK    1  A    between atoms: N_2  and  C_22
REMARK    2  A    between atoms: N_3  and  C_7
REMARK    3  A    between atoms: N_3  and  O_12
REMARK    4  A    between atoms: C_8  and  C_14
REMARK    5  A    between atoms: C_15  and  C_16
REMARK    6  A    between atoms: C_22  and  C_26
REMARK                            x       y       z     vdW  Elec       q    Type
REMARK                         _______ _______ _______ _____ _____    ______ ____
ROOT
ATOM      1  O   UNL     1      30.952 -23.754 -15.308  0.00  0.00    -0.273 OA
ATOM      2  N   UNL     1      33.226 -23.543 -14.648  0.00  0.00    -0.253 N 
ATOM      3  C   UNL     1      34.343 -22.918 -15.235  0.00  0.00    +0.052 C 
ATOM      4  C   UNL     1      33.988 -22.319 -16.444  0.00  0.00    +0.018 C 
ATOM      5  C   UNL     1      32.099 -23.383 -15.437  0.00  0.00    +0.252 C 
ATOM      6  C   UNL     1      32.574 -22.581 -16.626  0.00  0.00    +0.202 C 
ATOM      7  C   UNL     1      34.887 -21.635 -17.235  0.00  0.00    -0.001 C 
ATOM      8  C   UNL     1      35.644 -22.847 -14.771  0.00  0.00    +0.015 C 
ATOM      9  C   UNL     1      36.201 -21.558 -16.774  0.00  0.00    -0.000 C 
ATOM     10  C   UNL     1      36.577 -22.157 -15.555  0.00  0.00    +0.001 C 
ENDROOT
BRANCH   7  11
ATOM     11  C   UNL     1      34.523 -21.011 -18.494  0.00  0.00    -0.000 C 
ATOM     12  C   UNL     1      35.212 -20.012 -19.100  0.00  0.00    -0.000 C 
BRANCH  12  13
ATOM     13  C   UNL     1      34.853 -19.390 -20.387  0.00  0.00    -0.000 C 
ATOM     14  C   UNL     1      33.597 -19.622 -20.948  0.00  0.00    -0.000 C 
ATOM     15  C   UNL     1      35.769 -18.568 -21.044  0.00  0.00    -0.000 C 
ATOM     16  C   UNL     1      33.258 -19.033 -22.167  0.00  0.00    +0.000 C 
ATOM     17  C   UNL     1      35.430 -17.979 -22.262  0.00  0.00    +0.000 C 
ATOM     18  C   UNL     1      34.174 -18.212 -22.824  0.00  0.00    +0.000 C 
ENDBRANCH  12  13
ENDBRANCH   7  11
BRANCH   6  19
ATOM     19  N   UNL     1      31.808 -22.226 -17.596  0.00  0.00    -0.075 NA
BRANCH  19  20
ATOM     20  O   UNL     1      30.621 -21.717 -17.061  0.00  0.00    -0.294 OA
ATOM     21  H   UNL     1      30.456 -20.795 -17.082  0.00  0.00    +0.238 HD
ENDBRANCH  19  20
ENDBRANCH   6  19
BRANCH   2  22
ATOM     22  C   UNL     1      33.280 -24.247 -13.391  0.00  0.00    +0.128 C 
BRANCH  22  26
ATOM     23  F   UNL     1      36.208 -22.002 -10.224  0.00  0.00    -0.204 F 
ATOM     24  O   UNL     1      35.428 -25.938 -13.980  0.00  0.00    -0.448 OA
ATOM     25  O   UNL     1      37.790 -26.361 -14.036  0.00  0.00    -0.311 OA
ATOM     26  C   UNL     1      34.618 -24.111 -12.726  0.00  0.00    +0.034 C 
ATOM     27  C   UNL     1      35.671 -24.971 -13.038  0.00  0.00    +0.138 C 
ATOM     28  C   UNL     1      36.919 -24.820 -12.421  0.00  0.00    +0.043 C 
ATOM     29  C   UNL     1      34.803 -23.107 -11.775  0.00  0.00    +0.030 C 
ATOM     30  C   UNL     1      38.039 -25.751 -12.770  0.00  0.00    +0.176 C 
ATOM     31  C   UNL     1      37.092 -23.818 -11.460  0.00  0.00    +0.031 C 
ATOM     32  C   UNL     1      36.036 -22.963 -11.140  0.00  0.00    +0.140 C 
ATOM     33  C   UNL     1      36.475 -26.910 -14.070  0.00  0.00    +0.361 C 
ENDBRANCH  22  26
ENDBRANCH   2  22
TORSDOF 6
ENDMDL
MODEL 4
REMARK VINA RESULT:     -10.6      5.947     10.286
REMARK  Name = 45268539
REMARK  6 active torsions:
REMARK  status: ('A' for Active; 'I' for Inactive)
REMARK    1  A    between atoms: N_2  and  C_22
REMARK    2  A    between atoms: N_3  and  C_7
REMARK    3  A    between atoms: N_3  and  O_12
REMARK    4  A    between atoms: C_8  and  C_14
REMARK    5  A    between atoms: C_15  and  C_16
REMARK    6  A    between atoms: C_22  and  C_26
REMARK                            x       y       z     vdW  Elec       q    Type
REMARK                         _______ _______ _______ _____ _____    ______ ____
ROOT
ATOM      1  O   UNL     1      33.855 -15.910 -20.186  0.00  0.00    -0.273 OA
ATOM      2  N   UNL     1      33.365 -16.109 -22.504  0.00  0.00    -0.253 N 
ATOM      3  C   UNL     1      33.073 -15.166 -23.508  0.00  0.00    +0.052 C 
ATOM      4  C   UNL     1      33.086 -13.874 -22.984  0.00  0.00    +0.018 C 
ATOM      5  C   UNL     1      33.582 -15.483 -21.287  0.00  0.00    +0.252 C 
ATOM      6  C   UNL     1      33.403 -14.011 -21.575  0.00  0.00    +0.202 C 
ATOM      7  C   UNL     1      32.832 -12.752 -23.744  0.00  0.00    -0.001 C 
ATOM      8  C   UNL     1      32.798 -15.378 -24.847  0.00  0.00    +0.015 C 
ATOM      9  C   UNL     1      32.553 -12.957 -25.096  0.00  0.00    -0.000 C 
ATOM     10  C   UNL     1      32.536 -14.256 -25.642  0.00  0.00    +0.001 C 
ENDROOT
BRANCH   7  11
ATOM     11  C   UNL     1      32.842 -11.405 -23.204  0.00  0.00    -0.000 C 
ATOM     12  C   UNL     1      33.178 -10.287 -23.894  0.00  0.00    -0.000 C 
BRANCH  12  13
ATOM     13  C   UNL     1      33.172  -8.917 -23.350  0.00  0.00    -0.000 C 
ATOM     14  C   UNL     1      31.982  -8.355 -22.889  0.00  0.00    -0.000 C 
ATOM     15  C   UNL     1      34.357  -8.183 -23.296  0.00  0.00    -0.000 C 
ATOM     16  C   UNL     1      31.976  -7.058 -22.374  0.00  0.00    +0.000 C 
ATOM     17  C   UNL     1      34.351  -6.887 -22.781  0.00  0.00    +0.000 C 
ATOM     18  C   UNL     1      33.161  -6.324 -22.321  0.00  0.00    +0.000 C 
ENDBRANCH  12  13
ENDBRANCH   7  11
BRANCH   6  19
ATOM     19  N   UNL     1      33.524 -13.092 -20.685  0.00  0.00    -0.075 NA
BRANCH  19  20
ATOM     20  O   UNL     1      32.359 -13.067 -19.913  0.00  0.00    -0.294 OA
ATOM     21  H   UNL     1      32.389 -13.317 -19.010  0.00  0.00    +0.238 HD
ENDBRANCH  19  20
ENDBRANCH   6  19
BRANCH   2  22
ATOM     22  C   UNL     1      33.426 -17.530 -22.741  0.00  0.00    +0.128 C 
BRANCH  22  26
ATOM     23  F   UNL     1      37.940 -18.232 -21.075  0.00  0.00    -0.204 F 
ATOM     24  O   UNL     1      32.575 -19.406 -20.850  0.00  0.00    -0.448 OA
ATOM     25  O   UNL     1      33.038 -21.277 -19.418  0.00  0.00    -0.311 OA
ATOM     26  C   UNL     1      34.376 -18.217 -21.804  0.00  0.00    +0.034 C 
ATOM     27  C   UNL     1      33.922 -19.148 -20.869  0.00  0.00    +0.138 C 
ATOM     28  C   UNL     1      34.824 -19.793 -20.013  0.00  0.00    +0.043 C 
ATOM     29  C   UNL     1      35.735 -17.911 -21.873  0.00  0.00    +0.030 C 
ATOM     30  C   UNL     1      34.319 -20.791 -19.017  0.00  0.00    +0.176 C 
ATOM     31  C   UNL     1      36.183 -19.471 -20.081  0.00  0.00    +0.031 C 
ATOM     32  C   UNL     1      36.637 -18.533 -21.010  0.00  0.00    +0.140 C 
ATOM     33  C   UNL     1      32.169 -20.188 -19.721  0.00  0.00    +0.361 C 
ENDBRANCH  22  26
ENDBRANCH   2  22
TORSDOF 6
ENDMDL
MODEL 5
REMARK VINA RESULT:     -10.6      4.359     10.634
REMARK  Name = 45268539
REMARK  6 active torsions:
REMARK  status: ('A' for Active; 'I' for Inactive)
REMARK    1  A    between atoms: N_2  and  C_22
REMARK    2  A    between atoms: N_3  and  C_7
REMARK    3  A    between atoms: N_3  and  O_12
REMARK    4  A    between atoms: C_8  and  C_14
REMARK    5  A    between atoms: C_15  and  C_16
REMARK    6  A    between atoms: C_22  and  C_26
REMARK                            x       y       z     vdW  Elec       q    Type
REMARK                         _______ _______ _______ _____ _____    ______ ____
ROOT
ATOM      1  O   UNL     1      36.928 -17.838 -21.358  0.00  0.00    -0.273 OA
ATOM      2  N   UNL     1      34.620 -18.356 -21.595  0.00  0.00    -0.253 N 
ATOM      3  C   UNL     1      33.742 -19.187 -20.873  0.00  0.00    +0.052 C 
ATOM      4  C   UNL     1      34.414 -19.807 -19.819  0.00  0.00    +0.018 C 
ATOM      5  C   UNL     1      35.894 -18.392 -21.052  0.00  0.00    +0.252 C 
ATOM      6  C   UNL     1      35.786 -19.340 -19.882  0.00  0.00    +0.202 C 
ATOM      7  C   UNL     1      33.798 -20.678 -18.945  0.00  0.00    -0.001 C 
ATOM      8  C   UNL     1      32.398 -19.428 -21.087  0.00  0.00    +0.015 C 
ATOM      9  C   UNL     1      32.441 -20.927 -19.155  0.00  0.00    -0.000 C 
ATOM     10  C   UNL     1      31.748 -20.309 -20.214  0.00  0.00    +0.001 C 
ENDROOT
BRANCH   7  11
ATOM     11  C   UNL     1      34.492 -21.327 -17.848  0.00  0.00    -0.000 C 
ATOM     12  C   UNL     1      33.895 -21.996 -16.831  0.00  0.00    -0.000 C 
BRANCH  12  13
ATOM     13  C   UNL     1      34.600 -22.671 -15.726  0.00  0.00    -0.000 C 
ATOM     14  C   UNL     1      35.938 -22.374 -15.468  0.00  0.00    -0.000 C 
ATOM     15  C   UNL     1      33.928 -23.604 -14.937  0.00  0.00    -0.000 C 
ATOM     16  C   UNL     1      36.606 -23.013 -14.422  0.00  0.00    +0.000 C 
ATOM     17  C   UNL     1      34.595 -24.242 -13.891  0.00  0.00    +0.000 C 
ATOM     18  C   UNL     1      35.934 -23.947 -13.634  0.00  0.00    +0.000 C 
ENDBRANCH  12  13
ENDBRANCH   7  11
BRANCH   6  19
ATOM     19  N   UNL     1      36.773 -19.641 -19.117  0.00  0.00    -0.075 NA
BRANCH  19  20
ATOM     20  O   UNL     1      37.195 -18.481 -18.460  0.00  0.00    -0.294 OA
ATOM     21  H   UNL     1      36.572 -17.818 -18.234  0.00  0.00    +0.238 HD
ENDBRANCH  19  20
ENDBRANCH   6  19
BRANCH   2  22
ATOM     22  C   UNL     1      34.216 -17.580 -22.742  0.00  0.00    +0.128 C 
BRANCH  22  26
ATOM     23  F   UNL     1      33.751 -14.086 -19.393  0.00  0.00    -0.204 F 
ATOM     24  O   UNL     1      33.267 -15.733 -24.615  0.00  0.00    -0.448 OA
ATOM     25  O   UNL     1      32.026 -13.744 -25.133  0.00  0.00    -0.311 OA
ATOM     26  C   UNL     1      33.837 -16.177 -22.368  0.00  0.00    +0.034 C 
ATOM     27  C   UNL     1      33.369 -15.276 -23.325  0.00  0.00    +0.138 C 
ATOM     28  C   UNL     1      33.003 -13.975 -22.957  0.00  0.00    +0.043 C 
ATOM     29  C   UNL     1      33.964 -15.773 -21.040  0.00  0.00    +0.030 C 
ATOM     30  C   UNL     1      32.500 -13.021 -23.997  0.00  0.00    +0.176 C 
ATOM     31  C   UNL     1      33.145 -13.575 -21.624  0.00  0.00    +0.031 C 
ATOM     32  C   UNL     1      33.623 -14.472 -20.668  0.00  0.00    +0.140 C 
ATOM     33  C   UNL     1      33.003 -14.690 -25.560  0.00  0.00    +0.361 C 
ENDBRANCH  22  26
ENDBRANCH   2  22
TORSDOF 6
ENDMDL
MODEL 6
REMARK VINA RESULT:     -10.5      2.493      3.448
REMARK  Name = 45268539
REMARK  6 active torsions:
REMARK  status: ('A' for Active; 'I' for Inactive)
REMARK    1  A    between atoms: N_2  and  C_22
REMARK    2  A    between atoms: N_3  and  C_7
REMARK    3  A    between atoms: N_3  and  O_12
REMARK    4  A    between atoms: C_8  and  C_14
REMARK    5  A    between atoms: C_15  and  C_16
REMARK    6  A    between atoms: C_22  and  C_26
REMARK                            x       y       z     vdW  Elec       q    Type
REMARK                         _______ _______ _______ _____ _____    ______ ____
ROOT
ATOM      1  O   UNL     1      36.667 -22.416 -14.903  0.00  0.00    -0.273 OA
ATOM      2  N   UNL     1      34.368 -22.989 -15.105  0.00  0.00    -0.253 N 
ATOM      3  C   UNL     1      33.377 -22.670 -16.053  0.00  0.00    +0.052 C 
ATOM      4  C   UNL     1      33.904 -21.851 -17.052  0.00  0.00    +0.018 C 
ATOM      5  C   UNL     1      35.577 -22.400 -15.436  0.00  0.00    +0.252 C 
ATOM      6  C   UNL     1      35.299 -21.645 -16.714  0.00  0.00    +0.202 C 
ATOM      7  C   UNL     1      33.156 -21.383 -18.112  0.00  0.00    -0.001 C 
ATOM      8  C   UNL     1      32.050 -23.054 -16.088  0.00  0.00    +0.015 C 
ATOM      9  C   UNL     1      31.815 -21.768 -18.155  0.00  0.00    -0.000 C 
ATOM     10  C   UNL     1      31.268 -22.594 -17.154  0.00  0.00    +0.001 C 
ENDROOT
BRANCH   7  11
ATOM     11  C   UNL     1      33.698 -20.530 -19.153  0.00  0.00    -0.000 C 
ATOM     12  C   UNL     1      32.965 -19.853 -20.072  0.00  0.00    -0.000 C 
BRANCH  12  13
ATOM     13  C   UNL     1      33.514 -18.973 -21.119  0.00  0.00    -0.000 C 
ATOM     14  C   UNL     1      33.140 -19.155 -22.450  0.00  0.00    -0.000 C 
ATOM     15  C   UNL     1      34.406 -17.956 -20.778  0.00  0.00    -0.000 C 
ATOM     16  C   UNL     1      33.660 -18.321 -23.441  0.00  0.00    +0.000 C 
ATOM     17  C   UNL     1      34.925 -17.123 -21.768  0.00  0.00    +0.000 C 
ATOM     18  C   UNL     1      34.553 -17.306 -23.100  0.00  0.00    +0.000 C 
ENDBRANCH  12  13
ENDBRANCH   7  11
BRANCH   6  19
ATOM     19  N   UNL     1      36.186 -20.958 -17.341  0.00  0.00    -0.075 NA
BRANCH  19  20
ATOM     20  O   UNL     1      36.686 -19.982 -16.475  0.00  0.00    -0.294 OA
ATOM     21  H   UNL     1      37.259 -19.315 -16.801  0.00  0.00    +0.238 HD
ENDBRANCH  19  20
ENDBRANCH   6  19
BRANCH   2  22
ATOM     22  C   UNL     1      34.126 -23.822 -13.953  0.00  0.00    +0.128 C 
BRANCH  22  26
ATOM     23  F   UNL     1      36.450 -22.124 -10.033  0.00  0.00    -0.204 F 
ATOM     24  O   UNL     1      36.256 -25.603 -14.285  0.00  0.00    -0.448 OA
ATOM     25  O   UNL     1      38.553 -26.194 -13.913  0.00  0.00    -0.311 OA
ATOM     26  C   UNL     1      35.303 -23.852 -13.022  0.00  0.00    +0.034 C 
ATOM     27  C   UNL     1      36.350 -24.754 -13.211  0.00  0.00    +0.138 C 
ATOM     28  C   UNL     1      37.450 -24.758 -12.343  0.00  0.00    +0.043 C 
ATOM     29  C   UNL     1      35.340 -22.963 -11.948  0.00  0.00    +0.030 C 
ATOM     30  C   UNL     1      38.566 -25.732 -12.563  0.00  0.00    +0.176 C 
ATOM     31  C   UNL     1      37.473 -23.872 -11.262  0.00  0.00    +0.031 C 
ATOM     32  C   UNL     1      36.421 -22.975 -11.067  0.00  0.00    +0.140 C 
ATOM     33  C   UNL     1      37.245 -26.637 -14.271  0.00  0.00    +0.361 C 
ENDBRANCH  22  26
ENDBRANCH   2  22
TORSDOF 6
ENDMDL
MODEL 7
REMARK VINA RESULT:     -10.2     10.863     16.609
REMARK  Name = 45268539
REMARK  6 active torsions:
REMARK  status: ('A' for Active; 'I' for Inactive)
REMARK    1  A    between atoms: N_2  and  C_22
REMARK    2  A    between atoms: N_3  and  C_7
REMARK    3  A    between atoms: N_3  and  O_12
REMARK    4  A    between atoms: C_8  and  C_14
REMARK    5  A    between atoms: C_15  and  C_16
REMARK    6  A    between atoms: C_22  and  C_26
REMARK                            x       y       z     vdW  Elec       q    Type
REMARK                         _______ _______ _______ _____ _____    ______ ____
ROOT
ATOM      1  O   UNL     1      34.003  -8.435 -24.286  0.00  0.00    -0.273 OA
ATOM      2  N   UNL     1      32.414  -8.349 -22.519  0.00  0.00    -0.253 N 
ATOM      3  C   UNL     1      31.768  -9.342 -21.758  0.00  0.00    +0.052 C 
ATOM      4  C   UNL     1      32.179 -10.612 -22.164  0.00  0.00    +0.018 C 
ATOM      5  C   UNL     1      33.269  -8.917 -23.448  0.00  0.00    +0.252 C 
ATOM      6  C   UNL     1      33.133 -10.406 -23.236  0.00  0.00    +0.202 C 
ATOM      7  C   UNL     1      31.706 -11.773 -21.589  0.00  0.00    -0.001 C 
ATOM      8  C   UNL     1      30.848  -9.195 -20.737  0.00  0.00    +0.015 C 
ATOM      9  C   UNL     1      30.777 -11.633 -20.558  0.00  0.00    -0.000 C 
ATOM     10  C   UNL     1      30.351 -10.358 -20.136  0.00  0.00    +0.001 C 
ENDROOT
BRANCH   7  11
ATOM     11  C   UNL     1      32.128 -13.097 -22.009  0.00  0.00    -0.000 C 
ATOM     12  C   UNL     1      33.224 -13.751 -21.550  0.00  0.00    -0.000 C 
BRANCH  12  13
ATOM     13  C   UNL     1      33.644 -15.103 -21.962  0.00  0.00    -0.000 C 
ATOM     14  C   UNL     1      33.586 -15.471 -23.307  0.00  0.00    -0.000 C 
ATOM     15  C   UNL     1      34.100 -16.013 -21.009  0.00  0.00    -0.000 C 
ATOM     16  C   UNL     1      33.983 -16.750 -23.697  0.00  0.00    +0.000 C 
ATOM     17  C   UNL     1      34.497 -17.291 -21.399  0.00  0.00    +0.000 C 
ATOM     18  C   UNL     1      34.438 -17.661 -22.743  0.00  0.00    +0.000 C 
ENDBRANCH  12  13
ENDBRANCH   7  11
BRANCH   6  19
ATOM     19  N   UNL     1      33.776 -11.284 -23.920  0.00  0.00    -0.075 NA
BRANCH  19  20
ATOM     20  O   UNL     1      33.119 -11.464 -25.141  0.00  0.00    -0.294 OA
ATOM     21  H   UNL     1      33.476 -12.046 -25.783  0.00  0.00    +0.238 HD
ENDBRANCH  19  20
ENDBRANCH   6  19
BRANCH   2  22
ATOM     22  C   UNL     1      32.195  -6.936 -22.331  0.00  0.00    +0.128 C 
BRANCH  22  26
ATOM     23  F   UNL     1      30.168  -7.255 -26.740  0.00  0.00    -0.204 F 
ATOM     24  O   UNL     1      30.965  -4.436 -22.088  0.00  0.00    -0.448 OA
ATOM     25  O   UNL     1      29.997  -2.485 -23.098  0.00  0.00    -0.311 OA
ATOM     26  C   UNL     1      31.341  -6.350 -23.417  0.00  0.00    +0.034 C 
ATOM     27  C   UNL     1      30.738  -5.101 -23.267  0.00  0.00    +0.138 C 
ATOM     28  C   UNL     1      29.958  -4.560 -24.297  0.00  0.00    +0.043 C 
ATOM     29  C   UNL     1      31.148  -7.075 -24.593  0.00  0.00    +0.030 C 
ATOM     30  C   UNL     1      29.319  -3.217 -24.119  0.00  0.00    +0.176 C 
ATOM     31  C   UNL     1      29.760  -5.300 -25.467  0.00  0.00    +0.031 C 
ATOM     32  C   UNL     1      30.355  -6.553 -25.615  0.00  0.00    +0.140 C 
ATOM     33  C   UNL     1      30.132  -3.283 -21.925  0.00  0.00    +0.361 C 
ENDBRANCH  22  26
ENDBRANCH   2  22
TORSDOF 6
ENDMDL
MODEL 8
REMARK VINA RESULT:     -10.1      1.820      2.460
REMARK  Name = 45268539
REMARK  6 active torsions:
REMARK  status: ('A' for Active; 'I' for Inactive)
REMARK    1  A    between atoms: N_2  and  C_22
REMARK    2  A    between atoms: N_3  and  C_7
REMARK    3  A    between atoms: N_3  and  O_12
REMARK    4  A    between atoms: C_8  and  C_14
REMARK    5  A    between atoms: C_15  and  C_16
REMARK    6  A    between atoms: C_22  and  C_26
REMARK                            x       y       z     vdW  Elec       q    Type
REMARK                         _______ _______ _______ _____ _____    ______ ____
ROOT
ATOM      1  O   UNL     1      36.545 -21.997 -14.980  0.00  0.00    -0.273 OA
ATOM      2  N   UNL     1      34.256 -22.615 -15.155  0.00  0.00    -0.253 N 
ATOM      3  C   UNL     1      33.273 -22.395 -16.139  0.00  0.00    +0.052 C 
ATOM      4  C   UNL     1      33.803 -21.662 -17.202  0.00  0.00    +0.018 C 
ATOM      5  C   UNL     1      35.462 -22.043 -15.524  0.00  0.00    +0.252 C 
ATOM      6  C   UNL     1      35.191 -21.409 -16.867  0.00  0.00    +0.202 C 
ATOM      7  C   UNL     1      33.063 -21.301 -18.308  0.00  0.00    -0.001 C 
ATOM      8  C   UNL     1      31.951 -22.797 -16.155  0.00  0.00    +0.015 C 
ATOM      9  C   UNL     1      31.727 -21.705 -18.331  0.00  0.00    -0.000 C 
ATOM     10  C   UNL     1      31.176 -22.444 -17.266  0.00  0.00    +0.001 C 
ENDROOT
BRANCH   7  11
ATOM     11  C   UNL     1      33.608 -20.538 -19.416  0.00  0.00    -0.000 C 
ATOM     12  C   UNL     1      32.912 -19.658 -20.178  0.00  0.00    -0.000 C 
BRANCH  12  13
ATOM     13  C   UNL     1      33.469 -18.870 -21.292  0.00  0.00    -0.000 C 
ATOM     14  C   UNL     1      34.377 -17.843 -21.034  0.00  0.00    -0.000 C 
ATOM     15  C   UNL     1      33.089 -19.152 -22.604  0.00  0.00    -0.000 C 
ATOM     16  C   UNL     1      34.904 -17.097 -22.088  0.00  0.00    +0.000 C 
ATOM     17  C   UNL     1      33.617 -18.407 -23.658  0.00  0.00    +0.000 C 
ATOM     18  C   UNL     1      34.524 -17.378 -23.400  0.00  0.00    +0.000 C 
ENDBRANCH  12  13
ENDBRANCH   7  11
BRANCH   6  19
ATOM     19  N   UNL     1      36.078 -20.770 -17.544  0.00  0.00    -0.075 NA
BRANCH  19  20
ATOM     20  O   UNL     1      36.704 -19.851 -16.698  0.00  0.00    -0.294 OA
ATOM     21  H   UNL     1      37.051 -20.133 -15.874  0.00  0.00    +0.238 HD
ENDBRANCH  19  20
ENDBRANCH   6  19
BRANCH   2  22
ATOM     22  C   UNL     1      34.008 -23.344 -13.935  0.00  0.00    +0.128 C 
BRANCH  22  26
ATOM     23  F   UNL     1      35.968 -27.556 -15.371  0.00  0.00    -0.204 F 
ATOM     24  O   UNL     1      35.803 -23.388 -11.790  0.00  0.00    -0.448 OA
ATOM     25  O   UNL     1      37.229 -24.609 -10.295  0.00  0.00    -0.311 OA
ATOM     26  C   UNL     1      34.996 -24.456 -13.734  0.00  0.00    +0.034 C 
ATOM     27  C   UNL     1      35.881 -24.451 -12.656  0.00  0.00    +0.138 C 
ATOM     28  C   UNL     1      36.785 -25.504 -12.473  0.00  0.00    +0.043 C 
ATOM     29  C   UNL     1      35.027 -25.508 -14.650  0.00  0.00    +0.030 C 
ATOM     30  C   UNL     1      37.727 -25.483 -11.308  0.00  0.00    +0.176 C 
ATOM     31  C   UNL     1      36.817 -26.549 -13.402  0.00  0.00    +0.031 C 
ATOM     32  C   UNL     1      35.938 -26.551 -14.487  0.00  0.00    +0.140 C 
ATOM     33  C   UNL     1      36.887 -23.345 -10.857  0.00  0.00    +0.361 C 
ENDBRANCH  22  26
ENDBRANCH   2  22
TORSDOF 6
ENDMDL
MODEL 9
REMARK VINA RESULT:     -10.0      8.098     13.716
REMARK  Name = 45268539
REMARK  6 active torsions:
REMARK  status: ('A' for Active; 'I' for Inactive)
REMARK    1  A    between atoms: N_2  and  C_22
REMARK    2  A    between atoms: N_3  and  C_7
REMARK    3  A    between atoms: N_3  and  O_12
REMARK    4  A    between atoms: C_8  and  C_14
REMARK    5  A    between atoms: C_15  and  C_16
REMARK    6  A    between atoms: C_22  and  C_26
REMARK                            x       y       z     vdW  Elec       q    Type
REMARK                         _______ _______ _______ _____ _____    ______ ____
ROOT
ATOM      1  O   UNL     1      30.620 -11.676 -19.290  0.00  0.00    -0.273 OA
ATOM      2  N   UNL     1      31.389 -11.559 -21.536  0.00  0.00    -0.253 N 
ATOM      3  C   UNL     1      32.218 -12.392 -22.313  0.00  0.00    +0.052 C 
ATOM      4  C   UNL     1      32.645 -13.489 -21.565  0.00  0.00    +0.018 C 
ATOM      5  C   UNL     1      31.237 -12.069 -20.257  0.00  0.00    +0.252 C 
ATOM      6  C   UNL     1      32.054 -13.338 -20.250  0.00  0.00    +0.202 C 
ATOM      7  C   UNL     1      33.470 -14.470 -22.075  0.00  0.00    -0.001 C 
ATOM      8  C   UNL     1      32.615 -12.241 -23.629  0.00  0.00    +0.015 C 
ATOM      9  C   UNL     1      33.874 -14.325 -23.403  0.00  0.00    -0.000 C 
ATOM     10  C   UNL     1      33.452 -13.223 -24.172  0.00  0.00    +0.001 C 
ENDROOT
BRANCH   7  11
ATOM     11  C   UNL     1      33.919 -15.613 -21.302  0.00  0.00    -0.000 C 
ATOM     12  C   UNL     1      34.041 -16.879 -21.774  0.00  0.00    -0.000 C 
BRANCH  12  13
ATOM     13  C   UNL     1      34.513 -18.036 -20.994  0.00  0.00    -0.000 C 
ATOM     14  C   UNL     1      35.860 -18.139 -20.644  0.00  0.00    -0.000 C 
ATOM     15  C   UNL     1      33.614 -19.028 -20.603  0.00  0.00    -0.000 C 
ATOM     16  C   UNL     1      36.307 -19.235 -19.906  0.00  0.00    +0.000 C 
ATOM     17  C   UNL     1      34.061 -20.124 -19.865  0.00  0.00    +0.000 C 
ATOM     18  C   UNL     1      35.408 -20.228 -19.516  0.00  0.00    +0.000 C 
ENDBRANCH  12  13
ENDBRANCH   7  11
BRANCH   6  19
ATOM     19  N   UNL     1      32.166 -14.106 -19.225  0.00  0.00    -0.075 NA
BRANCH  19  20
ATOM     20  O   UNL     1      30.888 -14.514 -18.833  0.00  0.00    -0.294 OA
ATOM     21  H   UNL     1      30.638 -15.414 -18.912  0.00  0.00    +0.238 HD
ENDBRANCH  19  20
ENDBRANCH   6  19
BRANCH   2  22
ATOM     22  C   UNL     1      30.792 -10.345 -22.035  0.00  0.00    +0.128 C 
BRANCH  22  26
ATOM     23  F   UNL     1      31.695  -6.931 -18.691  0.00  0.00    -0.204 F 
ATOM     24  O   UNL     1      32.737  -9.117 -23.626  0.00  0.00    -0.448 OA
ATOM     25  O   UNL     1      34.018  -7.176 -24.221  0.00  0.00    -0.311 OA
ATOM     26  C   UNL     1      31.544  -9.124 -21.590  0.00  0.00    +0.034 C 
ATOM     27  C   UNL     1      32.511  -8.534 -22.405  0.00  0.00    +0.138 C 
ATOM     28  C   UNL     1      33.192  -7.386 -21.982  0.00  0.00    +0.043 C 
ATOM     29  C   UNL     1      31.269  -8.579 -20.336  0.00  0.00    +0.030 C 
ATOM     30  C   UNL     1      34.225  -6.765 -22.871  0.00  0.00    +0.176 C 
ATOM     31  C   UNL     1      32.918  -6.853 -20.718  0.00  0.00    +0.031 C 
ATOM     32  C   UNL     1      31.958  -7.448 -19.898  0.00  0.00    +0.140 C 
ATOM     33  C   UNL     1      33.891  -8.595 -24.292  0.00  0.00    +0.361 C 
ENDBRANCH  22  26
ENDBRANCH   2  22
TORSDOF 6
ENDMDL
