MODEL 1
REMARK VINA RESULT:     -13.0      0.000      0.000
REMARK  Name = 6105620
REMARK  4 active torsions:
REMARK  status: ('A' for Active; 'I' for Inactive)
REMARK    1  A    between atoms: N_2  and  C_7
REMARK    2  A    between atoms: N_3  and  C_21
REMARK    3  A    between atoms: C_9  and  C_29
REMARK    4  A    between atoms: C_30  and  C_31
REMARK                            x       y       z     vdW  Elec       q    Type
REMARK                         _______ _______ _______ _____ _____    ______ ____
ROOT
ATOM      1  N   UNL     1      32.833 -22.426 -16.783  0.00  0.00    -0.086 NA
ATOM      2  N   UNL     1      34.207 -22.166 -16.366  0.00  0.00    -0.132 N 
ATOM      3  N   UNL     1      32.721 -21.889 -18.098  0.00  0.00    -0.240 N 
ATOM      4  N   UNL     1      34.837 -21.424 -17.356  0.00  0.00    -0.146 NA
ATOM      5  C   UNL     1      33.942 -21.292 -18.323  0.00  0.00    +0.162 C 
ATOM      6  H   UNL     1      31.948 -21.934 -18.706  0.00  0.00    +0.170 HD
ENDROOT
BRANCH   2  11
ATOM      7  O   UNL     1      35.791 -26.825 -15.008  0.00  0.00    -0.220 OA
ATOM      8  O   UNL     1      37.758 -23.752 -11.304  0.00  0.00    -0.220 OA
ATOM      9  N   UNL     1      36.999 -26.568 -13.091  0.00  0.00    -0.062 NA
ATOM     10  N   UNL     1      37.471 -25.830 -12.202  0.00  0.00    -0.062 NA
ATOM     11  C   UNL     1      34.973 -22.725 -15.322  0.00  0.00    +0.089 C 
ATOM     12  C   UNL     1      35.214 -24.109 -15.267  0.00  0.00    +0.030 C 
ATOM     13  C   UNL     1      35.512 -21.909 -14.311  0.00  0.00    +0.019 C 
ATOM     14  C   UNL     1      35.975 -24.653 -14.229  0.00  0.00    +0.097 C 
ATOM     15  C   UNL     1      36.497 -23.837 -13.244  0.00  0.00    +0.096 C 
ATOM     16  C   UNL     1      36.271 -22.458 -13.276  0.00  0.00    +0.014 C 
ATOM     17  C   UNL     1      36.249 -26.091 -14.137  0.00  0.00    +0.174 C 
ATOM     18  C   UNL     1      37.287 -24.470 -12.182  0.00  0.00    +0.174 C 
ENDBRANCH   2  11
BRANCH   1  21
ATOM     19  S   UNL     1      32.115 -23.745 -14.568  0.00  0.00    -0.074 S 
ATOM     20  N   UNL     1      30.539 -22.802 -16.437  0.00  0.00    -0.310 N 
ATOM     21  C   UNL     1      31.825 -22.903 -16.086  0.00  0.00    +0.222 C 
ATOM     22  C   UNL     1      29.707 -23.382 -15.534  0.00  0.00    +0.052 C 
ATOM     23  C   UNL     1      30.356 -23.957 -14.435  0.00  0.00    +0.041 C 
ATOM     24  C   UNL     1      28.324 -23.429 -15.639  0.00  0.00    +0.015 C 
ATOM     25  C   UNL     1      29.646 -24.587 -13.427  0.00  0.00    +0.007 C 
ATOM     26  C   UNL     1      27.598 -24.061 -14.628  0.00  0.00    +0.001 C 
ATOM     27  C   UNL     1      28.254 -24.636 -13.530  0.00  0.00    +0.001 C 
ATOM     28  H   UNL     1      30.228 -22.358 -17.259  0.00  0.00    +0.149 HD
ENDBRANCH   1  21
BRANCH   5  29
ATOM     29  C   UNL     1      34.261 -20.543 -19.547  0.00  0.00    +0.037 C 
ATOM     30  C   UNL     1      33.500 -19.550 -19.975  0.00  0.00    +0.003 C 
BRANCH  30  31
ATOM     31  C   UNL     1      33.773 -18.778 -21.200  0.00  0.00    +0.000 C 
ATOM     32  C   UNL     1      33.377 -19.287 -22.427  0.00  0.00    +0.000 C 
ATOM     33  C   UNL     1      34.423 -17.558 -21.102  0.00  0.00    +0.000 C 
ATOM     34  C   UNL     1      33.635 -18.555 -23.586  0.00  0.00    +0.000 C 
ATOM     35  C   UNL     1      34.681 -16.826 -22.261  0.00  0.00    +0.000 C 
ATOM     36  C   UNL     1      34.288 -17.325 -23.503  0.00  0.00    +0.000 C 
ENDBRANCH  30  31
ENDBRANCH   5  29
TORSDOF 4
ENDMDL
MODEL 2
REMARK VINA RESULT:     -12.6      2.304      5.616
REMARK  Name = 6105620
REMARK  4 active torsions:
REMARK  status: ('A' for Active; 'I' for Inactive)
REMARK    1  A    between atoms: N_2  and  C_7
REMARK    2  A    between atoms: N_3  and  C_21
REMARK    3  A    between atoms: C_9  and  C_29
REMARK    4  A    between atoms: C_30  and  C_31
REMARK                            x       y       z     vdW  Elec       q    Type
REMARK                         _______ _______ _______ _____ _____    ______ ____
ROOT
ATOM      1  N   UNL     1      34.948 -22.074 -16.321  0.00  0.00    -0.086 NA
ATOM      2  N   UNL     1      33.568 -22.275 -16.751  0.00  0.00    -0.132 N 
ATOM      3  N   UNL     1      35.546 -21.251 -17.318  0.00  0.00    -0.240 N 
ATOM      4  N   UNL     1      33.399 -21.677 -17.993  0.00  0.00    -0.146 NA
ATOM      5  C   UNL     1      34.562 -21.107 -18.271  0.00  0.00    +0.162 C 
ATOM      6  H   UNL     1      36.455 -20.872 -17.325  0.00  0.00    +0.170 HD
ENDROOT
BRANCH   2  11
ATOM      7  O   UNL     1      32.670 -24.488 -12.240  0.00  0.00    -0.220 OA
ATOM      8  O   UNL     1      27.926 -23.990 -14.307  0.00  0.00    -0.220 OA
ATOM      9  N   UNL     1      30.413 -24.787 -12.100  0.00  0.00    -0.062 NA
ATOM     10  N   UNL     1      29.275 -24.668 -12.596  0.00  0.00    -0.062 NA
ATOM     11  C   UNL     1      32.438 -22.725 -16.036  0.00  0.00    +0.089 C 
ATOM     12  C   UNL     1      32.577 -23.310 -14.765  0.00  0.00    +0.030 C 
ATOM     13  C   UNL     1      31.147 -22.599 -16.580  0.00  0.00    +0.019 C 
ATOM     14  C   UNL     1      31.451 -23.753 -14.065  0.00  0.00    +0.097 C 
ATOM     15  C   UNL     1      30.191 -23.622 -14.614  0.00  0.00    +0.096 C 
ATOM     16  C   UNL     1      30.027 -23.043 -15.877  0.00  0.00    +0.014 C 
ATOM     17  C   UNL     1      31.554 -24.368 -12.738  0.00  0.00    +0.174 C 
ATOM     18  C   UNL     1      29.051 -24.106 -13.828  0.00  0.00    +0.174 C 
ENDBRANCH   2  11
BRANCH   1  21
ATOM     19  S   UNL     1      35.102 -22.349 -13.664  0.00  0.00    -0.074 S 
ATOM     20  N   UNL     1      36.663 -23.435 -15.467  0.00  0.00    -0.310 N 
ATOM     21  C   UNL     1      35.603 -22.632 -15.328  0.00  0.00    +0.222 C 
ATOM     22  C   UNL     1      37.144 -23.874 -14.275  0.00  0.00    +0.052 C 
ATOM     23  C   UNL     1      36.441 -23.403 -13.160  0.00  0.00    +0.041 C 
ATOM     24  C   UNL     1      38.234 -24.717 -14.118  0.00  0.00    +0.015 C 
ATOM     25  C   UNL     1      36.808 -23.761 -11.874  0.00  0.00    +0.007 C 
ATOM     26  C   UNL     1      38.613 -25.085 -12.825  0.00  0.00    +0.001 C 
ATOM     27  C   UNL     1      37.906 -24.609 -11.711  0.00  0.00    +0.001 C 
ATOM     28  H   UNL     1      37.053 -23.682 -16.338  0.00  0.00    +0.149 HD
ENDBRANCH   1  21
BRANCH   5  29
ATOM     29  C   UNL     1      34.758 -20.378 -19.533  0.00  0.00    +0.037 C 
ATOM     30  C   UNL     1      33.858 -19.525 -19.993  0.00  0.00    +0.003 C 
BRANCH  30  31
ATOM     31  C   UNL     1      34.006 -18.780 -21.255  0.00  0.00    +0.000 C 
ATOM     32  C   UNL     1      34.451 -17.467 -21.219  0.00  0.00    +0.000 C 
ATOM     33  C   UNL     1      33.697 -19.403 -22.452  0.00  0.00    +0.000 C 
ATOM     34  C   UNL     1      34.591 -16.761 -22.414  0.00  0.00    +0.000 C 
ATOM     35  C   UNL     1      33.837 -18.697 -23.647  0.00  0.00    +0.000 C 
ATOM     36  C   UNL     1      34.284 -17.376 -23.628  0.00  0.00    +0.000 C 
ENDBRANCH  30  31
ENDBRANCH   5  29
TORSDOF 4
ENDMDL
MODEL 3
REMARK VINA RESULT:     -12.6      1.263      1.702
REMARK  Name = 6105620
REMARK  4 active torsions:
REMARK  status: ('A' for Active; 'I' for Inactive)
REMARK    1  A    between atoms: N_2  and  C_7
REMARK    2  A    between atoms: N_3  and  C_21
REMARK    3  A    between atoms: C_9  and  C_29
REMARK    4  A    between atoms: C_30  and  C_31
REMARK                            x       y       z     vdW  Elec       q    Type
REMARK                         _______ _______ _______ _____ _____    ______ ____
ROOT
ATOM      1  N   UNL     1      32.824 -22.322 -16.930  0.00  0.00    -0.086 NA
ATOM      2  N   UNL     1      34.171 -22.008 -16.466  0.00  0.00    -0.132 N 
ATOM      3  N   UNL     1      32.739 -21.798 -18.252  0.00  0.00    -0.240 N 
ATOM      4  N   UNL     1      34.808 -21.248 -17.439  0.00  0.00    -0.146 NA
ATOM      5  C   UNL     1      33.943 -21.157 -18.438  0.00  0.00    +0.162 C 
ATOM      6  H   UNL     1      31.990 -21.876 -18.887  0.00  0.00    +0.170 HD
ENDROOT
BRANCH   2  11
ATOM      7  O   UNL     1      33.209 -23.684 -11.743  0.00  0.00    -0.220 OA
ATOM      8  O   UNL     1      38.354 -24.261 -12.204  0.00  0.00    -0.220 OA
ATOM      9  N   UNL     1      35.213 -24.313 -10.854  0.00  0.00    -0.062 NA
ATOM     10  N   UNL     1      36.448 -24.450 -10.965  0.00  0.00    -0.062 NA
ATOM     11  C   UNL     1      34.920 -22.530 -15.392  0.00  0.00    +0.089 C 
ATOM     12  C   UNL     1      34.291 -22.900 -14.189  0.00  0.00    +0.030 C 
ATOM     13  C   UNL     1      36.313 -22.692 -15.498  0.00  0.00    +0.019 C 
ATOM     14  C   UNL     1      35.042 -23.417 -13.130  0.00  0.00    +0.097 C 
ATOM     15  C   UNL     1      36.409 -23.570 -13.252  0.00  0.00    +0.096 C 
ATOM     16  C   UNL     1      37.058 -23.209 -14.437  0.00  0.00    +0.014 C 
ATOM     17  C   UNL     1      34.423 -23.814 -11.861  0.00  0.00    +0.174 C 
ATOM     18  C   UNL     1      37.139 -24.118 -12.104  0.00  0.00    +0.174 C 
ENDBRANCH   2  11
BRANCH   1  21
ATOM     19  S   UNL     1      32.057 -24.195 -15.180  0.00  0.00    -0.074 S 
ATOM     20  N   UNL     1      30.550 -22.392 -16.339  0.00  0.00    -0.310 N 
ATOM     21  C   UNL     1      31.811 -22.832 -16.266  0.00  0.00    +0.222 C 
ATOM     22  C   UNL     1      29.705 -23.101 -15.547  0.00  0.00    +0.052 C 
ATOM     23  C   UNL     1      30.317 -24.131 -14.825  0.00  0.00    +0.041 C 
ATOM     24  C   UNL     1      28.343 -22.866 -15.424  0.00  0.00    +0.015 C 
ATOM     25  C   UNL     1      29.589 -24.944 -13.971  0.00  0.00    +0.007 C 
ATOM     26  C   UNL     1      27.599 -23.680 -14.567  0.00  0.00    +0.001 C 
ATOM     27  C   UNL     1      28.218 -24.711 -13.846  0.00  0.00    +0.001 C 
ATOM     28  H   UNL     1      30.265 -21.638 -16.906  0.00  0.00    +0.149 HD
ENDBRANCH   1  21
BRANCH   5  29
ATOM     29  C   UNL     1      34.278 -20.404 -19.656  0.00  0.00    +0.037 C 
ATOM     30  C   UNL     1      33.492 -19.448 -20.123  0.00  0.00    +0.003 C 
BRANCH  30  31
ATOM     31  C   UNL     1      33.779 -18.674 -21.343  0.00  0.00    +0.000 C 
ATOM     32  C   UNL     1      34.405 -17.442 -21.233  0.00  0.00    +0.000 C 
ATOM     33  C   UNL     1      33.419 -19.191 -22.576  0.00  0.00    +0.000 C 
ATOM     34  C   UNL     1      34.678 -16.709 -22.388  0.00  0.00    +0.000 C 
ATOM     35  C   UNL     1      33.691 -18.458 -23.732  0.00  0.00    +0.000 C 
ATOM     36  C   UNL     1      34.321 -17.217 -23.638  0.00  0.00    +0.000 C 
ENDBRANCH  30  31
ENDBRANCH   5  29
TORSDOF 4
ENDMDL
MODEL 4
REMARK VINA RESULT:     -12.3      2.432      5.979
REMARK  Name = 6105620
REMARK  4 active torsions:
REMARK  status: ('A' for Active; 'I' for Inactive)
REMARK    1  A    between atoms: N_2  and  C_7
REMARK    2  A    between atoms: N_3  and  C_21
REMARK    3  A    between atoms: C_9  and  C_29
REMARK    4  A    between atoms: C_30  and  C_31
REMARK                            x       y       z     vdW  Elec       q    Type
REMARK                         _______ _______ _______ _____ _____    ______ ____
ROOT
ATOM      1  N   UNL     1      35.072 -22.287 -16.069  0.00  0.00    -0.086 NA
ATOM      2  N   UNL     1      33.679 -22.488 -16.457  0.00  0.00    -0.132 N 
ATOM      3  N   UNL     1      35.633 -21.443 -17.070  0.00  0.00    -0.240 N 
ATOM      4  N   UNL     1      33.468 -21.868 -17.682  0.00  0.00    -0.146 NA
ATOM      5  C   UNL     1      34.618 -21.288 -17.987  0.00  0.00    +0.162 C 
ATOM      6  H   UNL     1      36.540 -21.059 -17.099  0.00  0.00    +0.170 HD
ENDROOT
BRANCH   2  11
ATOM      7  O   UNL     1      28.603 -21.993 -16.644  0.00  0.00    -0.220 OA
ATOM      8  O   UNL     1      29.366 -25.083 -12.534  0.00  0.00    -0.220 OA
ATOM      9  N   UNL     1      27.766 -23.210 -14.905  0.00  0.00    -0.062 NA
ATOM     10  N   UNL     1      27.950 -23.951 -13.919  0.00  0.00    -0.062 NA
ATOM     11  C   UNL     1      32.576 -22.957 -15.716  0.00  0.00    +0.089 C 
ATOM     12  C   UNL     1      31.263 -22.600 -16.074  0.00  0.00    +0.030 C 
ATOM     13  C   UNL     1      32.763 -23.794 -14.600  0.00  0.00    +0.019 C 
ATOM     14  C   UNL     1      30.176 -23.070 -15.332  0.00  0.00    +0.097 C 
ATOM     15  C   UNL     1      30.379 -23.891 -14.240  0.00  0.00    +0.096 C 
ATOM     16  C   UNL     1      31.674 -24.260 -13.864  0.00  0.00    +0.014 C 
ATOM     17  C   UNL     1      28.794 -22.721 -15.674  0.00  0.00    +0.174 C 
ATOM     18  C   UNL     1      29.196 -24.351 -13.504  0.00  0.00    +0.174 C 
ENDBRANCH   2  11
BRANCH   1  21
ATOM     19  S   UNL     1      35.280 -22.654 -13.426  0.00  0.00    -0.074 S 
ATOM     20  N   UNL     1      36.844 -23.623 -15.294  0.00  0.00    -0.310 N 
ATOM     21  C   UNL     1      35.761 -22.860 -15.108  0.00  0.00    +0.222 C 
ATOM     22  C   UNL     1      37.358 -24.089 -14.126  0.00  0.00    +0.052 C 
ATOM     23  C   UNL     1      36.660 -23.683 -12.984  0.00  0.00    +0.041 C 
ATOM     24  C   UNL     1      38.477 -24.901 -14.017  0.00  0.00    +0.015 C 
ATOM     25  C   UNL     1      37.060 -24.075 -11.717  0.00  0.00    +0.007 C 
ATOM     26  C   UNL     1      38.890 -25.303 -12.745  0.00  0.00    +0.001 C 
ATOM     27  C   UNL     1      38.187 -24.893 -11.603  0.00  0.00    +0.001 C 
ATOM     28  H   UNL     1      37.226 -23.824 -16.179  0.00  0.00    +0.149 HD
ENDBRANCH   1  21
BRANCH   5  29
ATOM     29  C   UNL     1      34.771 -20.534 -19.241  0.00  0.00    +0.037 C 
ATOM     30  C   UNL     1      33.824 -19.727 -19.689  0.00  0.00    +0.003 C 
BRANCH  30  31
ATOM     31  C   UNL     1      33.926 -18.960 -20.943  0.00  0.00    +0.000 C 
ATOM     32  C   UNL     1      33.461 -19.521 -22.122  0.00  0.00    +0.000 C 
ATOM     33  C   UNL     1      34.486 -17.694 -20.920  0.00  0.00    +0.000 C 
ATOM     34  C   UNL     1      33.558 -18.795 -23.309  0.00  0.00    +0.000 C 
ATOM     35  C   UNL     1      34.584 -16.967 -22.107  0.00  0.00    +0.000 C 
ATOM     36  C   UNL     1      34.119 -17.518 -23.301  0.00  0.00    +0.000 C 
ENDBRANCH  30  31
ENDBRANCH   5  29
TORSDOF 4
ENDMDL
MODEL 5
REMARK VINA RESULT:     -10.4     11.704     16.922
REMARK  Name = 6105620
REMARK  4 active torsions:
REMARK  status: ('A' for Active; 'I' for Inactive)
REMARK    1  A    between atoms: N_2  and  C_7
REMARK    2  A    between atoms: N_3  and  C_21
REMARK    3  A    between atoms: C_9  and  C_29
REMARK    4  A    between atoms: C_30  and  C_31
REMARK                            x       y       z     vdW  Elec       q    Type
REMARK                         _______ _______ _______ _____ _____    ______ ____
ROOT
ATOM      1  N   UNL     1      32.651  -8.986 -24.390  0.00  0.00    -0.086 NA
ATOM      2  N   UNL     1      32.701  -9.169 -22.943  0.00  0.00    -0.132 N 
ATOM      3  N   UNL     1      32.723 -10.294 -24.948  0.00  0.00    -0.240 N 
ATOM      4  N   UNL     1      32.893 -10.519 -22.675  0.00  0.00    -0.146 NA
ATOM      5  C   UNL     1      32.900 -11.116 -23.857  0.00  0.00    +0.162 C 
ATOM      6  H   UNL     1      32.661 -10.552 -25.896  0.00  0.00    +0.170 HD
ENDROOT
BRANCH   2  11
ATOM      7  O   UNL     1      30.227  -9.495 -18.491  0.00  0.00    -0.220 OA
ATOM      8  O   UNL     1      31.644  -4.498 -18.724  0.00  0.00    -0.220 OA
ATOM      9  N   UNL     1      30.265  -7.408 -17.572  0.00  0.00    -0.062 NA
ATOM     10  N   UNL     1      30.605  -6.209 -17.628  0.00  0.00    -0.062 NA
ATOM     11  C   UNL     1      32.363  -8.293 -21.892  0.00  0.00    +0.089 C 
ATOM     12  C   UNL     1      31.644  -8.752 -20.774  0.00  0.00    +0.030 C 
ATOM     13  C   UNL     1      32.737  -6.937 -21.938  0.00  0.00    +0.019 C 
ATOM     14  C   UNL     1      31.313  -7.876 -19.738  0.00  0.00    +0.097 C 
ATOM     15  C   UNL     1      31.689  -6.548 -19.800  0.00  0.00    +0.096 C 
ATOM     16  C   UNL     1      32.404  -6.066 -20.900  0.00  0.00    +0.014 C 
ATOM     17  C   UNL     1      30.564  -8.316 -18.556  0.00  0.00    +0.174 C 
ATOM     18  C   UNL     1      31.311  -5.680 -18.679  0.00  0.00    +0.174 C 
ENDBRANCH   2  11
BRANCH   1  21
ATOM     19  S   UNL     1      31.204  -7.130 -25.665  0.00  0.00    -0.074 S 
ATOM     20  N   UNL     1      33.813  -7.226 -25.428  0.00  0.00    -0.310 N 
ATOM     21  C   UNL     1      32.693  -7.875 -25.092  0.00  0.00    +0.222 C 
ATOM     22  C   UNL     1      33.566  -6.106 -26.155  0.00  0.00    +0.052 C 
ATOM     23  C   UNL     1      32.210  -5.862 -26.400  0.00  0.00    +0.041 C 
ATOM     24  C   UNL     1      34.536  -5.239 -26.639  0.00  0.00    +0.015 C 
ATOM     25  C   UNL     1      31.795  -4.759 -27.127  0.00  0.00    +0.007 C 
ATOM     26  C   UNL     1      34.129  -4.123 -27.373  0.00  0.00    +0.001 C 
ATOM     27  C   UNL     1      32.769  -3.885 -27.616  0.00  0.00    +0.001 C 
ATOM     28  H   UNL     1      34.717  -7.526 -25.177  0.00  0.00    +0.149 HD
ENDBRANCH   1  21
BRANCH   5  29
ATOM     29  C   UNL     1      33.093 -12.570 -23.963  0.00  0.00    +0.037 C 
ATOM     30  C   UNL     1      33.410 -13.310 -22.913  0.00  0.00    +0.003 C 
BRANCH  30  31
ATOM     31  C   UNL     1      33.623 -14.766 -22.972  0.00  0.00    +0.000 C 
ATOM     32  C   UNL     1      33.404 -15.437 -24.166  0.00  0.00    +0.000 C 
ATOM     33  C   UNL     1      34.037 -15.438 -21.834  0.00  0.00    +0.000 C 
ATOM     34  C   UNL     1      33.605 -16.816 -24.221  0.00  0.00    +0.000 C 
ATOM     35  C   UNL     1      34.239 -16.818 -21.889  0.00  0.00    +0.000 C 
ATOM     36  C   UNL     1      34.023 -17.506 -23.083  0.00  0.00    +0.000 C 
ENDBRANCH  30  31
ENDBRANCH   5  29
TORSDOF 4
ENDMDL
MODEL 6
REMARK VINA RESULT:     -10.3     12.183     17.428
REMARK  Name = 6105620
REMARK  4 active torsions:
REMARK  status: ('A' for Active; 'I' for Inactive)
REMARK    1  A    between atoms: N_2  and  C_7
REMARK    2  A    between atoms: N_3  and  C_21
REMARK    3  A    between atoms: C_9  and  C_29
REMARK    4  A    between atoms: C_30  and  C_31
REMARK                            x       y       z     vdW  Elec       q    Type
REMARK                         _______ _______ _______ _____ _____    ______ ____
ROOT
ATOM      1  N   UNL     1      32.567  -9.024 -24.278  0.00  0.00    -0.086 NA
ATOM      2  N   UNL     1      32.430  -9.225 -22.840  0.00  0.00    -0.132 N 
ATOM      3  N   UNL     1      32.776 -10.320 -24.831  0.00  0.00    -0.240 N 
ATOM      4  N   UNL     1      32.647 -10.567 -22.558  0.00  0.00    -0.146 NA
ATOM      5  C   UNL     1      32.842 -11.147 -23.732  0.00  0.00    +0.162 C 
ATOM      6  H   UNL     1      32.855 -10.568 -25.780  0.00  0.00    +0.170 HD
ENDROOT
BRANCH   2  11
ATOM      7  O   UNL     1      29.842  -4.828 -22.669  0.00  0.00    -0.220 OA
ATOM      8  O   UNL     1      30.454  -6.065 -17.657  0.00  0.00    -0.220 OA
ATOM      9  N   UNL     1      29.518  -4.349 -20.463  0.00  0.00    -0.062 NA
ATOM     10  N   UNL     1      29.665  -4.646 -19.260  0.00  0.00    -0.062 NA
ATOM     11  C   UNL     1      31.911  -8.379 -21.838  0.00  0.00    +0.089 C 
ATOM     12  C   UNL     1      31.225  -7.198 -22.177  0.00  0.00    +0.030 C 
ATOM     13  C   UNL     1      32.067  -8.697 -20.477  0.00  0.00    +0.019 C 
ATOM     14  C   UNL     1      30.714  -6.366 -21.176  0.00  0.00    +0.097 C 
ATOM     15  C   UNL     1      30.877  -6.694 -19.844  0.00  0.00    +0.096 C 
ATOM     16  C   UNL     1      31.555  -7.863 -19.482  0.00  0.00    +0.014 C 
ATOM     17  C   UNL     1      29.994  -5.128 -21.489  0.00  0.00    +0.174 C 
ATOM     18  C   UNL     1      30.317  -5.780 -18.844  0.00  0.00    +0.174 C 
ENDBRANCH   2  11
BRANCH   1  21
ATOM     19  S   UNL     1      31.249  -7.281 -25.823  0.00  0.00    -0.074 S 
ATOM     20  N   UNL     1      33.754  -7.153 -25.065  0.00  0.00    -0.310 N 
ATOM     21  C   UNL     1      32.652  -7.903 -24.960  0.00  0.00    +0.222 C 
ATOM     22  C   UNL     1      33.560  -6.048 -25.829  0.00  0.00    +0.052 C 
ATOM     23  C   UNL     1      32.265  -5.919 -26.343  0.00  0.00    +0.041 C 
ATOM     24  C   UNL     1      34.527  -5.093 -26.109  0.00  0.00    +0.015 C 
ATOM     25  C   UNL     1      31.909  -4.845 -27.142  0.00  0.00    +0.007 C 
ATOM     26  C   UNL     1      34.180  -4.005 -26.913  0.00  0.00    +0.001 C 
ATOM     27  C   UNL     1      32.881  -3.882 -27.426  0.00  0.00    +0.001 C 
ATOM     28  H   UNL     1      34.612  -7.378 -24.635  0.00  0.00    +0.149 HD
ENDBRANCH   1  21
BRANCH   5  29
ATOM     29  C   UNL     1      33.116 -12.589 -23.821  0.00  0.00    +0.037 C 
ATOM     30  C   UNL     1      33.387 -13.315 -22.749  0.00  0.00    +0.003 C 
BRANCH  30  31
ATOM     31  C   UNL     1      33.677 -14.759 -22.790  0.00  0.00    +0.000 C 
ATOM     32  C   UNL     1      33.579 -15.438 -23.995  0.00  0.00    +0.000 C 
ATOM     33  C   UNL     1      34.042 -15.412 -21.624  0.00  0.00    +0.000 C 
ATOM     34  C   UNL     1      33.854 -16.805 -24.034  0.00  0.00    +0.000 C 
ATOM     35  C   UNL     1      34.317 -16.779 -21.662  0.00  0.00    +0.000 C 
ATOM     36  C   UNL     1      34.223 -17.475 -22.867  0.00  0.00    +0.000 C 
ENDBRANCH  30  31
ENDBRANCH   5  29
TORSDOF 4
ENDMDL
MODEL 7
REMARK VINA RESULT:     -10.3     11.695     15.821
REMARK  Name = 6105620
REMARK  4 active torsions:
REMARK  status: ('A' for Active; 'I' for Inactive)
REMARK    1  A    between atoms: N_2  and  C_7
REMARK    2  A    between atoms: N_3  and  C_21
REMARK    3  A    between atoms: C_9  and  C_29
REMARK    4  A    between atoms: C_30  and  C_31
REMARK                            x       y       z     vdW  Elec       q    Type
REMARK                         _______ _______ _______ _____ _____    ______ ____
ROOT
ATOM      1  N   UNL     1      32.679  -8.205 -23.389  0.00  0.00    -0.086 NA
ATOM      2  N   UNL     1      33.310  -9.164 -24.290  0.00  0.00    -0.132 N 
ATOM      3  N   UNL     1      32.928  -6.922 -23.955  0.00  0.00    -0.240 N 
ATOM      4  N   UNL     1      33.980  -8.462 -25.283  0.00  0.00    -0.146 NA
ATOM      5  C   UNL     1      33.730  -7.184 -25.044  0.00  0.00    +0.162 C 
ATOM      6  H   UNL     1      32.602  -6.048 -23.641  0.00  0.00    +0.170 HD
ENDROOT
BRANCH   2  11
ATOM      7  O   UNL     1      33.941 -13.270 -21.324  0.00  0.00    -0.220 OA
ATOM      8  O   UNL     1      32.221 -15.268 -25.805  0.00  0.00    -0.220 OA
ATOM      9  N   UNL     1      33.348 -15.078 -22.582  0.00  0.00    -0.062 NA
ATOM     10  N   UNL     1      32.936 -15.558 -23.658  0.00  0.00    -0.062 NA
ATOM     11  C   UNL     1      33.137 -10.557 -24.418  0.00  0.00    +0.089 C 
ATOM     12  C   UNL     1      33.424 -11.420 -23.345  0.00  0.00    +0.030 C 
ATOM     13  C   UNL     1      32.673 -11.116 -25.623  0.00  0.00    +0.019 C 
ATOM     14  C   UNL     1      33.248 -12.800 -23.482  0.00  0.00    +0.097 C 
ATOM     15  C   UNL     1      32.792 -13.331 -24.673  0.00  0.00    +0.096 C 
ATOM     16  C   UNL     1      32.500 -12.494 -25.754  0.00  0.00    +0.014 C 
ATOM     17  C   UNL     1      33.536 -13.732 -22.387  0.00  0.00    +0.174 C 
ATOM     18  C   UNL     1      32.629 -14.787 -24.752  0.00  0.00    +0.174 C 
ENDBRANCH   2  11
BRANCH   1  21
ATOM     19  S   UNL     1      32.288  -7.197 -20.941  0.00  0.00    -0.074 S 
ATOM     20  N   UNL     1      31.420  -9.487 -21.874  0.00  0.00    -0.310 N 
ATOM     21  C   UNL     1      32.127  -8.404 -22.213  0.00  0.00    +0.222 C 
ATOM     22  C   UNL     1      30.964  -9.431 -20.596  0.00  0.00    +0.052 C 
ATOM     23  C   UNL     1      31.321  -8.269 -19.904  0.00  0.00    +0.041 C 
ATOM     24  C   UNL     1      30.204 -10.414 -19.978  0.00  0.00    +0.015 C 
ATOM     25  C   UNL     1      30.932  -8.063 -18.591  0.00  0.00    +0.007 C 
ATOM     26  C   UNL     1      29.805 -10.217 -18.654  0.00  0.00    +0.001 C 
ATOM     27  C   UNL     1      30.167  -9.050 -17.965  0.00  0.00    +0.001 C 
ATOM     28  H   UNL     1      31.248 -10.241 -22.483  0.00  0.00    +0.149 HD
ENDBRANCH   1  21
BRANCH   5  29
ATOM     29  C   UNL     1      34.294  -6.134 -25.904  0.00  0.00    +0.037 C 
ATOM     30  C   UNL     1      34.546  -4.918 -25.446  0.00  0.00    +0.003 C 
BRANCH  30  31
ATOM     31  C   UNL     1      35.101  -3.831 -26.271  0.00  0.00    +0.000 C 
ATOM     32  C   UNL     1      36.452  -3.838 -26.583  0.00  0.00    +0.000 C 
ATOM     33  C   UNL     1      34.263  -2.822 -26.718  0.00  0.00    +0.000 C 
ATOM     34  C   UNL     1      36.977  -2.809 -27.364  0.00  0.00    +0.000 C 
ATOM     35  C   UNL     1      34.789  -1.793 -27.499  0.00  0.00    +0.000 C 
ATOM     36  C   UNL     1      36.146  -1.786 -27.822  0.00  0.00    +0.000 C 
ENDBRANCH  30  31
ENDBRANCH   5  29
TORSDOF 4
ENDMDL
MODEL 8
REMARK VINA RESULT:     -10.2     12.224     17.202
REMARK  Name = 6105620
REMARK  4 active torsions:
REMARK  status: ('A' for Active; 'I' for Inactive)
REMARK    1  A    between atoms: N_2  and  C_7
REMARK    2  A    between atoms: N_3  and  C_21
REMARK    3  A    between atoms: C_9  and  C_29
REMARK    4  A    between atoms: C_30  and  C_31
REMARK                            x       y       z     vdW  Elec       q    Type
REMARK                         _______ _______ _______ _____ _____    ______ ____
ROOT
ATOM      1  N   UNL     1      32.364  -9.636 -22.298  0.00  0.00    -0.086 NA
ATOM      2  N   UNL     1      32.454  -9.429 -23.740  0.00  0.00    -0.132 N 
ATOM      3  N   UNL     1      32.658 -11.013 -22.087  0.00  0.00    -0.240 N 
ATOM      4  N   UNL     1      32.694 -10.654 -24.348  0.00  0.00    -0.146 NA
ATOM      5  C   UNL     1      32.800 -11.526 -23.357  0.00  0.00    +0.162 C 
ATOM      6  H   UNL     1      32.741 -11.490 -21.229  0.00  0.00    +0.170 HD
ENDROOT
BRANCH   2  11
ATOM      7  O   UNL     1      29.324  -5.741 -25.368  0.00  0.00    -0.220 OA
ATOM      8  O   UNL     1      33.964  -4.286 -27.206  0.00  0.00    -0.220 OA
ATOM      9  N   UNL     1      30.609  -4.268 -26.543  0.00  0.00    -0.062 NA
ATOM     10  N   UNL     1      31.723  -3.919 -26.984  0.00  0.00    -0.062 NA
ATOM     11  C   UNL     1      32.572  -8.243 -24.493  0.00  0.00    +0.089 C 
ATOM     12  C   UNL     1      31.446  -7.442 -24.756  0.00  0.00    +0.030 C 
ATOM     13  C   UNL     1      33.819  -7.834 -24.999  0.00  0.00    +0.019 C 
ATOM     14  C   UNL     1      31.573  -6.268 -25.504  0.00  0.00    +0.097 C 
ATOM     15  C   UNL     1      32.806  -5.882 -25.993  0.00  0.00    +0.096 C 
ATOM     16  C   UNL     1      33.940  -6.661 -25.745  0.00  0.00    +0.014 C 
ATOM     17  C   UNL     1      30.423  -5.407 -25.800  0.00  0.00    +0.174 C 
ATOM     18  C   UNL     1      32.872  -4.639 -26.770  0.00  0.00    +0.174 C 
ENDBRANCH   2  11
BRANCH   1  21
ATOM     19  S   UNL     1      30.819  -9.366 -20.129  0.00  0.00    -0.074 S 
ATOM     20  N   UNL     1      32.321  -7.533 -21.249  0.00  0.00    -0.310 N 
ATOM     21  C   UNL     1      31.949  -8.812 -21.361  0.00  0.00    +0.222 C 
ATOM     22  C   UNL     1      31.741  -6.914 -20.189  0.00  0.00    +0.052 C 
ATOM     23  C   UNL     1      30.884  -7.729 -19.440  0.00  0.00    +0.041 C 
ATOM     24  C   UNL     1      31.944  -5.589 -19.831  0.00  0.00    +0.015 C 
ATOM     25  C   UNL     1      30.216  -7.244 -18.328  0.00  0.00    +0.007 C 
ATOM     26  C   UNL     1      31.276  -5.089 -18.711  0.00  0.00    +0.001 C 
ATOM     27  C   UNL     1      30.418  -5.911 -17.965  0.00  0.00    +0.001 C 
ATOM     28  H   UNL     1      32.947  -7.089 -21.866  0.00  0.00    +0.149 HD
ENDBRANCH   1  21
BRANCH   5  29
ATOM     29  C   UNL     1      33.049 -12.949 -23.632  0.00  0.00    +0.037 C 
ATOM     30  C   UNL     1      33.305 -13.811 -22.662  0.00  0.00    +0.003 C 
BRANCH  30  31
ATOM     31  C   UNL     1      33.571 -15.243 -22.888  0.00  0.00    +0.000 C 
ATOM     32  C   UNL     1      34.194 -15.982 -21.895  0.00  0.00    +0.000 C 
ATOM     33  C   UNL     1      33.193 -15.822 -24.088  0.00  0.00    +0.000 C 
ATOM     34  C   UNL     1      34.445 -17.338 -22.109  0.00  0.00    +0.000 C 
ATOM     35  C   UNL     1      33.444 -17.178 -24.302  0.00  0.00    +0.000 C 
ATOM     36  C   UNL     1      34.070 -17.936 -23.312  0.00  0.00    +0.000 C 
ENDBRANCH  30  31
ENDBRANCH   5  29
TORSDOF 4
ENDMDL
