MODEL 1
REMARK VINA RESULT:     -11.9      0.000      0.000
REMARK  Name = 446399
REMARK  4 active torsions:
REMARK  status: ('A' for Active; 'I' for Inactive)
REMARK    1  A    between atoms: N_3  and  S_21
REMARK    2  A    between atoms: C_4  and  C_10
REMARK    3  A    between atoms: N_9  and  C_16
REMARK    4  A    between atoms: S_21  and  C_25
REMARK                            x       y       z     vdW  Elec       q    Type
REMARK                         _______ _______ _______ _____ _____    ______ ____
ROOT
ATOM      1  O   UNL     1      32.428 -13.712 -25.127  0.00  0.00    -0.275 OA
ATOM      2  N   UNL     1      32.959 -14.923 -23.218  0.00  0.00    -0.277 N 
ATOM      3  N   UNL     1      34.217 -17.277 -22.232  0.00  0.00    -0.152 NA
ATOM      4  C   UNL     1      32.772 -13.747 -23.942  0.00  0.00    +0.225 C 
ATOM      5  C   UNL     1      33.366 -15.001 -21.810  0.00  0.00    +0.113 C 
ATOM      6  C   UNL     1      32.678 -16.218 -23.838  0.00  0.00    +0.113 C 
ATOM      7  C   UNL     1      34.552 -15.946 -21.642  0.00  0.00    +0.117 C 
ATOM      8  C   UNL     1      33.862 -17.165 -23.680  0.00  0.00    +0.117 C 
ENDROOT
BRANCH   4  10
ATOM      9  N   UNL     1      32.287  -9.729 -22.594  0.00  0.00    -0.307 N 
ATOM     10  C   UNL     1      33.015 -12.455 -23.205  0.00  0.00    +0.080 C 
ATOM     11  C   UNL     1      31.804 -12.130 -22.334  0.00  0.00    +0.031 C 
ATOM     12  C   UNL     1      33.262 -11.323 -24.199  0.00  0.00    +0.031 C 
ATOM     13  C   UNL     1      31.967 -10.785 -21.627  0.00  0.00    +0.091 C 
ATOM     14  C   UNL     1      33.428  -9.983 -23.485  0.00  0.00    +0.091 C 
BRANCH   9  16
ATOM     15  N   UNL     1      31.429  -5.709 -21.635  0.00  0.00    -0.242 NA
ATOM     16  C   UNL     1      32.002  -8.395 -22.276  0.00  0.00    +0.051 C 
ATOM     17  C   UNL     1      32.992  -7.404 -22.360  0.00  0.00    +0.035 C 
ATOM     18  C   UNL     1      30.718  -8.009 -21.862  0.00  0.00    +0.035 C 
ATOM     19  C   UNL     1      32.660  -6.099 -22.035  0.00  0.00    +0.100 C 
ATOM     20  C   UNL     1      30.487  -6.676 -21.560  0.00  0.00    +0.100 C 
ENDBRANCH   9  16
ENDBRANCH   4  10
BRANCH   3  21
ATOM     21  S   UNL     1      35.296 -18.548 -21.839  0.00  0.00    +0.063 S 
ATOM     22  O   UNL     1      36.419 -18.003 -21.108  0.00  0.00    -0.153 OA
ATOM     23  O   UNL     1      35.497 -19.371 -23.012  0.00  0.00    -0.153 OA
BRANCH  21  25
ATOM     24 CL   UNL     1      31.575 -23.267 -15.875  0.00  0.00    -0.082 Cl
ATOM     25  C   UNL     1      34.300 -19.457 -20.701  0.00  0.00    +0.122 C 
ATOM     26  C   UNL     1      34.913 -20.207 -19.712  0.00  0.00    +0.020 C 
ATOM     27  C   UNL     1      32.923 -19.403 -20.816  0.00  0.00    +0.020 C 
ATOM     28  C   UNL     1      34.134 -20.936 -18.798  0.00  0.00    +0.001 C 
ATOM     29  C   UNL     1      32.724 -20.892 -18.902  0.00  0.00    +0.001 C 
ATOM     30  C   UNL     1      32.134 -20.121 -19.917  0.00  0.00    +0.001 C 
ATOM     31  C   UNL     1      34.725 -21.707 -17.784  0.00  0.00    +0.001 C 
ATOM     32  C   UNL     1      31.944 -21.620 -17.988  0.00  0.00    +0.011 C 
ATOM     33  C   UNL     1      33.935 -22.425 -16.885  0.00  0.00    +0.011 C 
ATOM     34  C   UNL     1      32.547 -22.382 -16.987  0.00  0.00    +0.058 C 
ENDBRANCH  21  25
ENDBRANCH   3  21
TORSDOF 4
ENDMDL
MODEL 2
REMARK VINA RESULT:     -10.9      4.480     11.357
REMARK  Name = 446399
REMARK  4 active torsions:
REMARK  status: ('A' for Active; 'I' for Inactive)
REMARK    1  A    between atoms: N_3  and  S_21
REMARK    2  A    between atoms: C_4  and  C_10
REMARK    3  A    between atoms: N_9  and  C_16
REMARK    4  A    between atoms: S_21  and  C_25
REMARK                            x       y       z     vdW  Elec       q    Type
REMARK                         _______ _______ _______ _____ _____    ______ ____
ROOT
ATOM      1  O   UNL     1      33.032 -15.920 -24.775  0.00  0.00    -0.275 OA
ATOM      2  N   UNL     1      33.294 -14.444 -23.001  0.00  0.00    -0.277 N 
ATOM      3  N   UNL     1      32.091 -12.307 -21.557  0.00  0.00    -0.152 NA
ATOM      4  C   UNL     1      33.433 -15.678 -23.633  0.00  0.00    +0.225 C 
ATOM      5  C   UNL     1      33.758 -14.123 -21.646  0.00  0.00    +0.113 C 
ATOM      6  C   UNL     1      32.702 -13.315 -23.721  0.00  0.00    +0.113 C 
ATOM      7  C   UNL     1      32.637 -13.490 -20.826  0.00  0.00    +0.117 C 
ATOM      8  C   UNL     1      31.577 -12.683 -22.910  0.00  0.00    +0.117 C 
ENDROOT
BRANCH   4  10
ATOM      9  N   UNL     1      34.039 -18.894 -20.896  0.00  0.00    -0.307 N 
ATOM     10  C   UNL     1      34.118 -16.766 -22.845  0.00  0.00    +0.080 C 
ATOM     11  C   UNL     1      33.465 -18.110 -23.159  0.00  0.00    +0.031 C 
ATOM     12  C   UNL     1      34.018 -16.474 -21.350  0.00  0.00    +0.031 C 
ATOM     13  C   UNL     1      34.070 -19.237 -22.322  0.00  0.00    +0.091 C 
ATOM     14  C   UNL     1      34.629 -17.601 -20.521  0.00  0.00    +0.091 C 
BRANCH   9  16
ATOM     15  N   UNL     1      34.138 -21.981 -18.018  0.00  0.00    -0.242 NA
ATOM     16  C   UNL     1      34.072 -19.918 -19.941  0.00  0.00    +0.051 C 
ATOM     17  C   UNL     1      32.892 -20.545 -19.511  0.00  0.00    +0.035 C 
ATOM     18  C   UNL     1      35.286 -20.349 -19.384  0.00  0.00    +0.035 C 
ATOM     19  C   UNL     1      32.978 -21.553 -18.564  0.00  0.00    +0.100 C 
ATOM     20  C   UNL     1      35.265 -21.366 -18.443  0.00  0.00    +0.100 C 
ENDBRANCH   9  16
ENDBRANCH   4  10
BRANCH   3  21
ATOM     21  S   UNL     1      31.064 -11.288 -20.641  0.00  0.00    +0.063 S 
ATOM     22  O   UNL     1      31.495 -11.302 -19.260  0.00  0.00    -0.153 OA
ATOM     23  O   UNL     1      29.690 -11.566 -20.997  0.00  0.00    -0.153 OA
BRANCH  21  25
ATOM     24 CL   UNL     1      33.709  -4.407 -24.805  0.00  0.00    -0.082 Cl
ATOM     25  C   UNL     1      31.496  -9.720 -21.326  0.00  0.00    +0.122 C 
ATOM     26  C   UNL     1      32.251  -9.672 -22.486  0.00  0.00    +0.020 C 
ATOM     27  C   UNL     1      31.073  -8.566 -20.693  0.00  0.00    +0.020 C 
ATOM     28  C   UNL     1      32.603  -8.432 -23.045  0.00  0.00    +0.001 C 
ATOM     29  C   UNL     1      32.178  -7.241 -22.409  0.00  0.00    +0.001 C 
ATOM     30  C   UNL     1      31.414  -7.326 -21.234  0.00  0.00    +0.001 C 
ATOM     31  C   UNL     1      33.367  -8.348 -24.220  0.00  0.00    +0.001 C 
ATOM     32  C   UNL     1      32.529  -6.001 -22.967  0.00  0.00    +0.011 C 
ATOM     33  C   UNL     1      33.708  -7.107 -24.760  0.00  0.00    +0.011 C 
ATOM     34  C   UNL     1      33.290  -5.936 -24.135  0.00  0.00    +0.058 C 
ENDBRANCH  21  25
ENDBRANCH   3  21
TORSDOF 4
ENDMDL
MODEL 3
REMARK VINA RESULT:     -10.7      5.247     11.971
REMARK  Name = 446399
REMARK  4 active torsions:
REMARK  status: ('A' for Active; 'I' for Inactive)
REMARK    1  A    between atoms: N_3  and  S_21
REMARK    2  A    between atoms: C_4  and  C_10
REMARK    3  A    between atoms: N_9  and  C_16
REMARK    4  A    between atoms: S_21  and  C_25
REMARK                            x       y       z     vdW  Elec       q    Type
REMARK                         _______ _______ _______ _____ _____    ______ ____
ROOT
ATOM      1  O   UNL     1      31.225 -21.656 -17.499  0.00  0.00    -0.275 OA
ATOM      2  N   UNL     1      33.251 -21.455 -18.617  0.00  0.00    -0.277 N 
ATOM      3  N   UNL     1      34.927 -19.693 -20.094  0.00  0.00    -0.152 NA
ATOM      4  C   UNL     1      32.425 -21.924 -17.596  0.00  0.00    +0.225 C 
ATOM      5  C   UNL     1      34.681 -21.754 -18.761  0.00  0.00    +0.113 C 
ATOM      6  C   UNL     1      32.690 -20.646 -19.699  0.00  0.00    +0.113 C 
ATOM      7  C   UNL     1      35.485 -20.470 -18.947  0.00  0.00    +0.117 C 
ATOM      8  C   UNL     1      33.485 -19.359 -19.885  0.00  0.00    +0.117 C 
ENDROOT
BRANCH   4  10
ATOM      9  N   UNL     1      34.180 -23.206 -13.925  0.00  0.00    -0.307 N 
ATOM     10  C   UNL     1      33.070 -22.809 -16.560  0.00  0.00    +0.080 C 
ATOM     11  C   UNL     1      32.179 -22.877 -15.323  0.00  0.00    +0.031 C 
ATOM     12  C   UNL     1      34.445 -22.263 -16.185  0.00  0.00    +0.031 C 
ATOM     13  C   UNL     1      32.827 -23.699 -14.209  0.00  0.00    +0.091 C 
ATOM     14  C   UNL     1      35.088 -23.092 -15.075  0.00  0.00    +0.091 C 
BRANCH   9  16
ATOM     15  N   UNL     1      35.911 -23.958 -10.149  0.00  0.00    -0.242 NA
ATOM     16  C   UNL     1      34.754 -23.456 -12.673  0.00  0.00    +0.051 C 
ATOM     17  C   UNL     1      34.024 -24.089 -11.655  0.00  0.00    +0.035 C 
ATOM     18  C   UNL     1      36.078 -23.080 -12.396  0.00  0.00    +0.035 C 
ATOM     19  C   UNL     1      34.639 -24.313 -10.433  0.00  0.00    +0.100 C 
ATOM     20  C   UNL     1      36.600 -23.349 -11.141  0.00  0.00    +0.100 C 
ENDBRANCH   9  16
ENDBRANCH   4  10
BRANCH   3  21
ATOM     21  S   UNL     1      35.905 -18.401 -20.650  0.00  0.00    +0.063 S 
ATOM     22  O   UNL     1      37.075 -18.943 -21.304  0.00  0.00    -0.153 OA
ATOM     23  O   UNL     1      36.027 -17.419 -19.594  0.00  0.00    -0.153 OA
BRANCH  21  25
ATOM     24 CL   UNL     1      31.095 -14.096 -26.129  0.00  0.00    -0.082 Cl
ATOM     25  C   UNL     1      34.849 -17.731 -21.896  0.00  0.00    +0.122 C 
ATOM     26  C   UNL     1      34.637 -16.364 -21.941  0.00  0.00    +0.020 C 
ATOM     27  C   UNL     1      34.253 -18.584 -22.807  0.00  0.00    +0.020 C 
ATOM     28  C   UNL     1      33.800 -15.815 -22.927  0.00  0.00    +0.001 C 
ATOM     29  C   UNL     1      33.182 -16.674 -23.867  0.00  0.00    +0.001 C 
ATOM     30  C   UNL     1      33.419 -18.056 -23.793  0.00  0.00    +0.001 C 
ATOM     31  C   UNL     1      33.564 -14.432 -23.001  0.00  0.00    +0.001 C 
ATOM     32  C   UNL     1      32.346 -16.125 -24.854  0.00  0.00    +0.011 C 
ATOM     33  C   UNL     1      32.729 -13.905 -23.988  0.00  0.00    +0.011 C 
ATOM     34  C   UNL     1      32.121 -14.750 -24.912  0.00  0.00    +0.058 C 
ENDBRANCH  21  25
ENDBRANCH   3  21
TORSDOF 4
ENDMDL
MODEL 4
REMARK VINA RESULT:     -10.1      4.553     11.362
REMARK  Name = 446399
REMARK  4 active torsions:
REMARK  status: ('A' for Active; 'I' for Inactive)
REMARK    1  A    between atoms: N_3  and  S_21
REMARK    2  A    between atoms: C_4  and  C_10
REMARK    3  A    between atoms: N_9  and  C_16
REMARK    4  A    between atoms: S_21  and  C_25
REMARK                            x       y       z     vdW  Elec       q    Type
REMARK                         _______ _______ _______ _____ _____    ______ ____
ROOT
ATOM      1  O   UNL     1      36.434 -20.761 -18.931  0.00  0.00    -0.275 OA
ATOM      2  N   UNL     1      34.624 -19.681 -19.907  0.00  0.00    -0.277 N 
ATOM      3  N   UNL     1      33.701 -18.330 -22.235  0.00  0.00    -0.152 NA
ATOM      4  C   UNL     1      35.217 -20.662 -19.115  0.00  0.00    +0.225 C 
ATOM      5  C   UNL     1      33.183 -19.535 -20.146  0.00  0.00    +0.113 C 
ATOM      6  C   UNL     1      35.448 -18.642 -20.527  0.00  0.00    +0.113 C 
ATOM      7  C   UNL     1      32.891 -19.436 -21.641  0.00  0.00    +0.117 C 
ATOM      8  C   UNL     1      35.165 -18.542 -22.021  0.00  0.00    +0.117 C 
ENDROOT
BRANCH   4  10
ATOM      9  N   UNL     1      32.397 -22.336 -16.387  0.00  0.00    -0.307 N 
ATOM     10  C   UNL     1      34.289 -21.651 -18.457  0.00  0.00    +0.080 C 
ATOM     11  C   UNL     1      32.867 -21.095 -18.462  0.00  0.00    +0.031 C 
ATOM     12  C   UNL     1      34.740 -21.920 -17.024  0.00  0.00    +0.031 C 
ATOM     13  C   UNL     1      31.899 -22.025 -17.732  0.00  0.00    +0.091 C 
ATOM     14  C   UNL     1      33.770 -22.854 -16.303  0.00  0.00    +0.091 C 
BRANCH   9  16
ATOM     15  N   UNL     1      29.676 -23.548 -13.396  0.00  0.00    -0.242 NA
ATOM     16  C   UNL     1      31.494 -22.738 -15.395  0.00  0.00    +0.051 C 
ATOM     17  C   UNL     1      30.111 -22.741 -15.633  0.00  0.00    +0.035 C 
ATOM     18  C   UNL     1      31.946 -23.150 -14.131  0.00  0.00    +0.035 C 
ATOM     19  C   UNL     1      29.260 -23.148 -14.618  0.00  0.00    +0.100 C 
ATOM     20  C   UNL     1      31.012 -23.539 -13.184  0.00  0.00    +0.100 C 
ENDBRANCH   9  16
ENDBRANCH   4  10
BRANCH   3  21
ATOM     21  S   UNL     1      33.253 -17.864 -23.822  0.00  0.00    +0.063 S 
ATOM     22  O   UNL     1      31.885 -18.264 -24.063  0.00  0.00    -0.153 OA
ATOM     23  O   UNL     1      34.312 -18.235 -24.735  0.00  0.00    -0.153 OA
BRANCH  21  25
ATOM     24 CL   UNL     1      32.978  -9.407 -24.130  0.00  0.00    -0.082 Cl
ATOM     25  C   UNL     1      33.280 -16.108 -23.644  0.00  0.00    +0.122 C 
ATOM     26  C   UNL     1      32.899 -15.313 -24.712  0.00  0.00    +0.020 C 
ATOM     27  C   UNL     1      33.679 -15.556 -22.441  0.00  0.00    +0.020 C 
ATOM     28  C   UNL     1      32.914 -13.913 -24.587  0.00  0.00    +0.001 C 
ATOM     29  C   UNL     1      33.320 -13.333 -23.362  0.00  0.00    +0.001 C 
ATOM     30  C   UNL     1      33.700 -14.168 -22.299  0.00  0.00    +0.001 C 
ATOM     31  C   UNL     1      32.534 -13.079 -25.651  0.00  0.00    +0.001 C 
ATOM     32  C   UNL     1      33.335 -11.934 -23.236  0.00  0.00    +0.011 C 
ATOM     33  C   UNL     1      32.556 -11.690 -25.508  0.00  0.00    +0.011 C 
ATOM     34  C   UNL     1      32.956 -11.120 -24.303  0.00  0.00    +0.058 C 
ENDBRANCH  21  25
ENDBRANCH   3  21
TORSDOF 4
ENDMDL
MODEL 5
REMARK VINA RESULT:     -10.1      2.097      3.291
REMARK  Name = 446399
REMARK  4 active torsions:
REMARK  status: ('A' for Active; 'I' for Inactive)
REMARK    1  A    between atoms: N_3  and  S_21
REMARK    2  A    between atoms: C_4  and  C_10
REMARK    3  A    between atoms: N_9  and  C_16
REMARK    4  A    between atoms: S_21  and  C_25
REMARK                            x       y       z     vdW  Elec       q    Type
REMARK                         _______ _______ _______ _____ _____    ______ ____
ROOT
ATOM      1  O   UNL     1      31.672 -11.868 -19.772  0.00  0.00    -0.275 OA
ATOM      2  N   UNL     1      32.756 -12.744 -21.630  0.00  0.00    -0.277 N 
ATOM      3  N   UNL     1      33.497 -15.140 -22.975  0.00  0.00    -0.152 NA
ATOM      4  C   UNL     1      31.961 -11.809 -20.971  0.00  0.00    +0.225 C 
ATOM      5  C   UNL     1      33.117 -12.704 -23.052  0.00  0.00    +0.113 C 
ATOM      6  C   UNL     1      33.363 -13.846 -20.883  0.00  0.00    +0.113 C 
ATOM      7  C   UNL     1      32.817 -14.041 -23.724  0.00  0.00    +0.117 C 
ATOM      8  C   UNL     1      33.061 -15.185 -21.546  0.00  0.00    +0.117 C 
ENDROOT
BRANCH   4  10
ATOM      9  N   UNL     1      31.364  -7.859 -22.466  0.00  0.00    -0.307 N 
ATOM     10  C   UNL     1      31.433 -10.666 -21.801  0.00  0.00    +0.080 C 
ATOM     11  C   UNL     1      32.591  -9.993 -22.534  0.00  0.00    +0.031 C 
ATOM     12  C   UNL     1      30.720  -9.654 -20.908  0.00  0.00    +0.031 C 
ATOM     13  C   UNL     1      32.119  -8.775 -23.328  0.00  0.00    +0.091 C 
ATOM     14  C   UNL     1      30.248  -8.443 -21.710  0.00  0.00    +0.091 C 
BRANCH   9  16
ATOM     15  N   UNL     1      31.068  -3.783 -23.528  0.00  0.00    -0.242 NA
ATOM     16  C   UNL     1      31.266  -6.507 -22.819  0.00  0.00    +0.051 C 
ATOM     17  C   UNL     1      32.260  -5.886 -23.590  0.00  0.00    +0.035 C 
ATOM     18  C   UNL     1      30.170  -5.731 -22.410  0.00  0.00    +0.035 C 
ATOM     19  C   UNL     1      32.116  -4.545 -23.912  0.00  0.00    +0.100 C 
ATOM     20  C   UNL     1      30.119  -4.398 -22.786  0.00  0.00    +0.100 C 
ENDBRANCH   9  16
ENDBRANCH   4  10
BRANCH   3  21
ATOM     21  S   UNL     1      33.542 -16.654 -23.774  0.00  0.00    +0.063 S 
ATOM     22  O   UNL     1      34.556 -16.614 -24.805  0.00  0.00    -0.153 OA
ATOM     23  O   UNL     1      32.188 -17.065 -24.075  0.00  0.00    -0.153 OA
BRANCH  21  25
ATOM     24 CL   UNL     1      35.256 -21.929 -17.377  0.00  0.00    -0.082 Cl
ATOM     25  C   UNL     1      34.141 -17.675 -22.465  0.00  0.00    +0.122 C 
ATOM     26  C   UNL     1      33.255 -18.488 -21.779  0.00  0.00    +0.020 C 
ATOM     27  C   UNL     1      35.487 -17.646 -22.148  0.00  0.00    +0.020 C 
ATOM     28  C   UNL     1      33.716 -19.306 -20.734  0.00  0.00    +0.001 C 
ATOM     29  C   UNL     1      35.090 -19.289 -20.397  0.00  0.00    +0.001 C 
ATOM     30  C   UNL     1      35.962 -18.453 -21.113  0.00  0.00    +0.001 C 
ATOM     31  C   UNL     1      32.843 -20.142 -20.019  0.00  0.00    +0.001 C 
ATOM     32  C   UNL     1      35.552 -20.108 -19.353  0.00  0.00    +0.011 C 
ATOM     33  C   UNL     1      33.319 -20.949 -18.984  0.00  0.00    +0.011 C 
ATOM     34  C   UNL     1      34.671 -20.931 -18.652  0.00  0.00    +0.058 C 
ENDBRANCH  21  25
ENDBRANCH   3  21
TORSDOF 4
ENDMDL
MODEL 6
REMARK VINA RESULT:     -10.0      3.533      6.258
REMARK  Name = 446399
REMARK  4 active torsions:
REMARK  status: ('A' for Active; 'I' for Inactive)
REMARK    1  A    between atoms: N_3  and  S_21
REMARK    2  A    between atoms: C_4  and  C_10
REMARK    3  A    between atoms: N_9  and  C_16
REMARK    4  A    between atoms: S_21  and  C_25
REMARK                            x       y       z     vdW  Elec       q    Type
REMARK                         _______ _______ _______ _____ _____    ______ ____
ROOT
ATOM      1  O   UNL     1      36.082 -17.961 -20.116  0.00  0.00    -0.275 OA
ATOM      2  N   UNL     1      34.430 -19.593 -20.140  0.00  0.00    -0.277 N 
ATOM      3  N   UNL     1      33.252 -21.731 -18.679  0.00  0.00    -0.152 NA
ATOM      4  C   UNL     1      34.943 -18.327 -20.418  0.00  0.00    +0.225 C 
ATOM      5  C   UNL     1      33.081 -20.059 -20.485  0.00  0.00    +0.113 C 
ATOM      6  C   UNL     1      35.279 -20.606 -19.513  0.00  0.00    +0.113 C 
ATOM      7  C   UNL     1      32.390 -20.661 -19.264  0.00  0.00    +0.117 C 
ATOM      8  C   UNL     1      34.595 -21.206 -18.289  0.00  0.00    +0.117 C 
ENDROOT
BRANCH   4  10
ATOM      9  N   UNL     1      33.607 -15.049 -22.798  0.00  0.00    -0.307 N 
ATOM     10  C   UNL     1      34.024 -17.367 -21.130  0.00  0.00    +0.080 C 
ATOM     11  C   UNL     1      34.315 -17.402 -22.628  0.00  0.00    +0.031 C 
ATOM     12  C   UNL     1      34.223 -15.953 -20.592  0.00  0.00    +0.031 C 
ATOM     13  C   UNL     1      33.463 -16.385 -23.388  0.00  0.00    +0.091 C 
ATOM     14  C   UNL     1      33.366 -14.944 -21.352  0.00  0.00    +0.091 C 
BRANCH   9  16
ATOM     15  N   UNL     1      32.794 -11.642 -25.155  0.00  0.00    -0.242 NA
ATOM     16  C   UNL     1      33.338 -13.919 -23.580  0.00  0.00    +0.051 C 
ATOM     17  C   UNL     1      33.473 -12.625 -23.053  0.00  0.00    +0.035 C 
ATOM     18  C   UNL     1      32.923 -14.045 -24.916  0.00  0.00    +0.035 C 
ATOM     19  C   UNL     1      33.194 -11.539 -23.868  0.00  0.00    +0.100 C 
ATOM     20  C   UNL     1      32.670 -12.896 -25.647  0.00  0.00    +0.100 C 
ENDBRANCH   9  16
ENDBRANCH   4  10
BRANCH   3  21
ATOM     21  S   UNL     1      32.491 -22.732 -17.515  0.00  0.00    +0.063 S 
ATOM     22  O   UNL     1      32.426 -24.083 -18.025  0.00  0.00    -0.153 OA
ATOM     23  O   UNL     1      31.306 -22.061 -17.025  0.00  0.00    -0.153 OA
BRANCH  21  25
ATOM     24 CL   UNL     1      37.545 -23.258 -10.743  0.00  0.00    -0.082 Cl
ATOM     25  C   UNL     1      33.706 -22.694 -16.236  0.00  0.00    +0.122 C 
ATOM     26  C   UNL     1      33.466 -23.373 -15.053  0.00  0.00    +0.020 C 
ATOM     27  C   UNL     1      34.877 -21.987 -16.437  0.00  0.00    +0.020 C 
ATOM     28  C   UNL     1      34.424 -23.353 -14.025  0.00  0.00    +0.001 C 
ATOM     29  C   UNL     1      35.628 -22.634 -14.215  0.00  0.00    +0.001 C 
ATOM     30  C   UNL     1      35.839 -21.957 -15.427  0.00  0.00    +0.001 C 
ATOM     31  C   UNL     1      34.212 -24.031 -12.813  0.00  0.00    +0.001 C 
ATOM     32  C   UNL     1      36.586 -22.615 -13.188  0.00  0.00    +0.011 C 
ATOM     33  C   UNL     1      35.175 -24.000 -11.803  0.00  0.00    +0.011 C 
ATOM     34  C   UNL     1      36.359 -23.292 -11.990  0.00  0.00    +0.058 C 
ENDBRANCH  21  25
ENDBRANCH   3  21
TORSDOF 4
ENDMDL
MODEL 7
REMARK VINA RESULT:     -10.0      1.683      2.283
REMARK  Name = 446399
REMARK  4 active torsions:
REMARK  status: ('A' for Active; 'I' for Inactive)
REMARK    1  A    between atoms: N_3  and  S_21
REMARK    2  A    between atoms: C_4  and  C_10
REMARK    3  A    between atoms: N_9  and  C_16
REMARK    4  A    between atoms: S_21  and  C_25
REMARK                            x       y       z     vdW  Elec       q    Type
REMARK                         _______ _______ _______ _____ _____    ______ ____
ROOT
ATOM      1  O   UNL     1      31.493 -13.379 -19.540  0.00  0.00    -0.275 OA
ATOM      2  N   UNL     1      33.221 -14.277 -20.805  0.00  0.00    -0.277 N 
ATOM      3  N   UNL     1      34.533 -16.681 -21.575  0.00  0.00    -0.152 NA
ATOM      4  C   UNL     1      32.190 -13.372 -20.558  0.00  0.00    +0.225 C 
ATOM      5  C   UNL     1      34.068 -14.297 -22.004  0.00  0.00    +0.113 C 
ATOM      6  C   UNL     1      33.581 -15.271 -19.793  0.00  0.00    +0.113 C 
ATOM      7  C   UNL     1      34.107 -15.696 -22.614  0.00  0.00    +0.117 C 
ATOM      8  C   UNL     1      33.616 -16.671 -20.395  0.00  0.00    +0.117 C 
ENDROOT
BRANCH   4  10
ATOM      9  N   UNL     1      32.492  -9.777 -22.833  0.00  0.00    -0.307 N 
ATOM     10  C   UNL     1      31.932 -12.336 -21.623  0.00  0.00    +0.080 C 
ATOM     11  C   UNL     1      33.212 -12.095 -22.419  0.00  0.00    +0.031 C 
ATOM     12  C   UNL     1      31.461 -11.033 -20.983  0.00  0.00    +0.031 C 
ATOM     13  C   UNL     1      33.025 -10.992 -23.460  0.00  0.00    +0.091 C 
ATOM     14  C   UNL     1      31.273  -9.937 -22.029  0.00  0.00    +0.091 C 
BRANCH   9  16
ATOM     15  N   UNL     1      33.115  -6.040 -24.696  0.00  0.00    -0.242 NA
ATOM     16  C   UNL     1      32.699  -8.537 -23.451  0.00  0.00    +0.051 C 
ATOM     17  C   UNL     1      31.860  -8.095 -24.486  0.00  0.00    +0.035 C 
ATOM     18  C   UNL     1      33.752  -7.698 -23.055  0.00  0.00    +0.035 C 
ATOM     19  C   UNL     1      32.106  -6.861 -25.065  0.00  0.00    +0.100 C 
ATOM     20  C   UNL     1      33.913  -6.481 -23.698  0.00  0.00    +0.100 C 
ENDBRANCH   9  16
ENDBRANCH   4  10
BRANCH   3  21
ATOM     21  S   UNL     1      34.951 -18.234 -22.165  0.00  0.00    +0.063 S 
ATOM     22  O   UNL     1      36.379 -18.419 -22.039  0.00  0.00    -0.153 OA
ATOM     23  O   UNL     1      34.278 -18.452 -23.427  0.00  0.00    -0.153 OA
BRANCH  21  25
ATOM     24 CL   UNL     1      32.316 -23.290 -15.905  0.00  0.00    -0.082 Cl
ATOM     25  C   UNL     1      34.166 -19.245 -20.949  0.00  0.00    +0.122 C 
ATOM     26  C   UNL     1      34.941 -19.891 -20.001  0.00  0.00    +0.020 C 
ATOM     27  C   UNL     1      32.789 -19.374 -20.964  0.00  0.00    +0.020 C 
ATOM     28  C   UNL     1      34.332 -20.699 -19.026  0.00  0.00    +0.001 C 
ATOM     29  C   UNL     1      32.924 -20.841 -19.028  0.00  0.00    +0.001 C 
ATOM     30  C   UNL     1      32.167 -20.173 -20.004  0.00  0.00    +0.001 C 
ATOM     31  C   UNL     1      35.089 -21.367 -18.051  0.00  0.00    +0.001 C 
ATOM     32  C   UNL     1      32.314 -21.649 -18.053  0.00  0.00    +0.011 C 
ATOM     33  C   UNL     1      34.467 -22.166 -17.090  0.00  0.00    +0.011 C 
ATOM     34  C   UNL     1      33.082 -22.306 -17.092  0.00  0.00    +0.058 C 
ENDBRANCH  21  25
ENDBRANCH   3  21
TORSDOF 4
ENDMDL
MODEL 8
REMARK VINA RESULT:      -9.8      6.646     13.013
REMARK  Name = 446399
REMARK  4 active torsions:
REMARK  status: ('A' for Active; 'I' for Inactive)
REMARK    1  A    between atoms: N_3  and  S_21
REMARK    2  A    between atoms: C_4  and  C_10
REMARK    3  A    between atoms: N_9  and  C_16
REMARK    4  A    between atoms: S_21  and  C_25
REMARK                            x       y       z     vdW  Elec       q    Type
REMARK                         _______ _______ _______ _____ _____    ______ ____
ROOT
ATOM      1  O   UNL     1      31.694  -8.392 -19.389  0.00  0.00    -0.275 OA
ATOM      2  N   UNL     1      30.539  -7.406 -21.147  0.00  0.00    -0.277 N 
ATOM      3  N   UNL     1      30.280  -5.058 -22.732  0.00  0.00    -0.152 NA
ATOM      4  C   UNL     1      31.139  -8.478 -20.488  0.00  0.00    +0.225 C 
ATOM      5  C   UNL     1      29.871  -7.474 -22.452  0.00  0.00    +0.113 C 
ATOM      6  C   UNL     1      30.482  -6.092 -20.505  0.00  0.00    +0.113 C 
ATOM      7  C   UNL     1      30.405  -6.394 -23.389  0.00  0.00    +0.117 C 
ATOM      8  C   UNL     1      31.020  -5.010 -21.434  0.00  0.00    +0.117 C 
ENDROOT
BRANCH   4  10
ATOM      9  N   UNL     1      32.268 -12.374 -21.809  0.00  0.00    -0.307 N 
ATOM     10  C   UNL     1      31.091  -9.812 -21.188  0.00  0.00    +0.080 C 
ATOM     11  C   UNL     1      31.152 -10.933 -20.153  0.00  0.00    +0.031 C 
ATOM     12  C   UNL     1      32.260  -9.936 -22.162  0.00  0.00    +0.031 C 
ATOM     13  C   UNL     1      31.188 -12.309 -20.818  0.00  0.00    +0.091 C 
ATOM     14  C   UNL     1      32.287 -11.312 -22.825  0.00  0.00    +0.091 C 
BRANCH   9  16
ATOM     15  N   UNL     1      33.864 -16.128 -22.896  0.00  0.00    -0.242 NA
ATOM     16  C   UNL     1      32.797 -13.619 -22.170  0.00  0.00    +0.051 C 
ATOM     17  C   UNL     1      33.468 -14.419 -21.232  0.00  0.00    +0.035 C 
ATOM     18  C   UNL     1      32.673 -14.106 -23.481  0.00  0.00    +0.035 C 
ATOM     19  C   UNL     1      33.974 -15.644 -21.639  0.00  0.00    +0.100 C 
ATOM     20  C   UNL     1      33.214 -15.344 -23.787  0.00  0.00    +0.100 C 
ENDBRANCH   9  16
ENDBRANCH   4  10
BRANCH   3  21
ATOM     21  S   UNL     1      30.519  -3.710 -23.761  0.00  0.00    +0.063 S 
ATOM     22  O   UNL     1      31.092  -2.626 -22.994  0.00  0.00    -0.153 OA
ATOM     23  O   UNL     1      29.327  -3.512 -24.558  0.00  0.00    -0.153 OA
BRANCH  21  25
ATOM     24 CL   UNL     1      35.708  -6.769 -29.711  0.00  0.00    -0.082 Cl
ATOM     25  C   UNL     1      31.779  -4.350 -24.818  0.00  0.00    +0.122 C 
ATOM     26  C   UNL     1      31.480  -4.620 -26.143  0.00  0.00    +0.020 C 
ATOM     27  C   UNL     1      33.044  -4.569 -24.306  0.00  0.00    +0.020 C 
ATOM     28  C   UNL     1      32.472  -5.130 -26.998  0.00  0.00    +0.001 C 
ATOM     29  C   UNL     1      33.772  -5.360 -26.488  0.00  0.00    +0.001 C 
ATOM     30  C   UNL     1      34.042  -5.075 -25.141  0.00  0.00    +0.001 C 
ATOM     31  C   UNL     1      32.202  -5.415 -28.346  0.00  0.00    +0.001 C 
ATOM     32  C   UNL     1      34.765  -5.869 -27.343  0.00  0.00    +0.011 C 
ATOM     33  C   UNL     1      33.200  -5.921 -29.180  0.00  0.00    +0.011 C 
ATOM     34  C   UNL     1      34.478  -6.148 -28.679  0.00  0.00    +0.058 C 
ENDBRANCH  21  25
ENDBRANCH   3  21
TORSDOF 4
ENDMDL
MODEL 9
REMARK VINA RESULT:      -9.6      4.735     11.798
REMARK  Name = 446399
REMARK  4 active torsions:
REMARK  status: ('A' for Active; 'I' for Inactive)
REMARK    1  A    between atoms: N_3  and  S_21
REMARK    2  A    between atoms: C_4  and  C_10
REMARK    3  A    between atoms: N_9  and  C_16
REMARK    4  A    between atoms: S_21  and  C_25
REMARK                            x       y       z     vdW  Elec       q    Type
REMARK                         _______ _______ _______ _____ _____    ______ ____
ROOT
ATOM      1  O   UNL     1      31.479 -21.244 -17.443  0.00  0.00    -0.275 OA
ATOM      2  N   UNL     1      33.250 -21.225 -18.945  0.00  0.00    -0.277 N 
ATOM      3  N   UNL     1      34.704 -19.638 -20.806  0.00  0.00    -0.152 NA
ATOM      4  C   UNL     1      32.617 -21.599 -17.760  0.00  0.00    +0.225 C 
ATOM      5  C   UNL     1      34.602 -21.628 -19.352  0.00  0.00    +0.113 C 
ATOM      6  C   UNL     1      32.536 -20.418 -19.934  0.00  0.00    +0.113 C 
ATOM      7  C   UNL     1      35.430 -20.411 -19.754  0.00  0.00    +0.117 C 
ATOM      8  C   UNL     1      33.356 -19.197 -20.335  0.00  0.00    +0.117 C 
ENDROOT
BRANCH   4  10
ATOM      9  N   UNL     1      34.459 -23.084 -14.211  0.00  0.00    -0.307 N 
ATOM     10  C   UNL     1      33.400 -22.490 -16.829  0.00  0.00    +0.080 C 
ATOM     11  C   UNL     1      32.495 -22.955 -15.691  0.00  0.00    +0.031 C 
ATOM     12  C   UNL     1      34.601 -21.735 -16.266  0.00  0.00    +0.031 C 
ATOM     13  C   UNL     1      33.264 -23.798 -14.673  0.00  0.00    +0.091 C 
ATOM     14  C   UNL     1      35.366 -22.584 -15.254  0.00  0.00    +0.091 C 
BRANCH   9  16
ATOM     15  N   UNL     1      36.156 -24.081 -10.476  0.00  0.00    -0.242 NA
ATOM     16  C   UNL     1      35.022 -23.415 -12.972  0.00  0.00    +0.051 C 
ATOM     17  C   UNL     1      34.213 -23.760 -11.878  0.00  0.00    +0.035 C 
ATOM     18  C   UNL     1      36.414 -23.411 -12.786  0.00  0.00    +0.035 C 
ATOM     19  C   UNL     1      34.819 -24.079 -10.673  0.00  0.00    +0.100 C 
ATOM     20  C   UNL     1      36.921 -23.746 -11.540  0.00  0.00    +0.100 C 
ENDBRANCH   9  16
ENDBRANCH   4  10
BRANCH   3  21
ATOM     21  S   UNL     1      35.629 -18.438 -21.605  0.00  0.00    +0.063 S 
ATOM     22  O   UNL     1      35.547 -18.653 -23.033  0.00  0.00    -0.153 OA
ATOM     23  O   UNL     1      36.908 -18.314 -20.941  0.00  0.00    -0.153 OA
BRANCH  21  25
ATOM     24 CL   UNL     1      30.992 -11.384 -20.960  0.00  0.00    -0.082 Cl
ATOM     25  C   UNL     1      34.674 -17.006 -21.218  0.00  0.00    +0.122 C 
ATOM     26  C   UNL     1      34.209 -16.203 -22.246  0.00  0.00    +0.020 C 
ATOM     27  C   UNL     1      34.405 -16.710 -19.894  0.00  0.00    +0.020 C 
ATOM     28  C   UNL     1      33.447 -15.059 -21.954  0.00  0.00    +0.001 C 
ATOM     29  C   UNL     1      33.163 -14.742 -20.605  0.00  0.00    +0.001 C 
ATOM     30  C   UNL     1      33.649 -15.578 -19.587  0.00  0.00    +0.001 C 
ATOM     31  C   UNL     1      32.960 -14.223 -22.973  0.00  0.00    +0.001 C 
ATOM     32  C   UNL     1      32.400 -13.599 -20.313  0.00  0.00    +0.011 C 
ATOM     33  C   UNL     1      32.205 -13.091 -22.665  0.00  0.00    +0.011 C 
ATOM     34  C   UNL     1      31.926 -12.780 -21.337  0.00  0.00    +0.058 C 
ENDBRANCH  21  25
ENDBRANCH   3  21
TORSDOF 4
ENDMDL
