MODEL 1
REMARK VINA RESULT:     -11.7      0.000      0.000
REMARK  Name = 9909438
REMARK  10 active torsions:
REMARK  status: ('A' for Active; 'I' for Inactive)
REMARK    1  A    between atoms: C_1  and  C_2
REMARK    2  A    between atoms: C_1  and  C_18
REMARK    3  A    between atoms: C_2  and  C_7
REMARK    4  A    between atoms: N_4  and  C_10
REMARK    5  A    between atoms: C_10  and  C_11
REMARK    6  A    between atoms: C_18  and  C_19
REMARK    7  A    between atoms: C_22  and  O_25
REMARK    8  A    between atoms: O_25  and  C_26
REMARK    9  A    between atoms: C_26  and  C_30
REMARK   10  A    between atoms: C_30  and  O_31
REMARK                            x       y       z     vdW  Elec       q    Type
REMARK                         _______ _______ _______ _____ _____    ______ ____
ROOT
ATOM      1  C   UNL     1      33.512 -21.925 -18.458  0.00  0.00    +0.014 C 
ENDROOT
BRANCH   1   2
ATOM      2  C   UNL     1      32.817 -20.751 -19.143  0.00  0.00    +0.078 C 
BRANCH   2   7
ATOM      3  O   UNL     1      36.718 -18.479 -20.526  0.00  0.00    -0.191 OA
ATOM      4  N   UNL     1      34.625 -18.738 -21.511  0.00  0.00    -0.151 N 
ATOM      5  N   UNL     1      33.488 -19.378 -21.124  0.00  0.00    -0.229 N 
ATOM      6  N   UNL     1      35.015 -19.694 -19.506  0.00  0.00    -0.308 NA
ATOM      7  C   UNL     1      33.790 -19.927 -19.914  0.00  0.00    +0.187 C 
ATOM      8  C   UNL     1      35.575 -18.919 -20.521  0.00  0.00    +0.286 C 
ATOM      9  H   UNL     1      32.634 -19.432 -21.611  0.00  0.00    +0.173 HD
BRANCH   4  10
ATOM     10  C   UNL     1      34.684 -18.022 -22.754  0.00  0.00    +0.152 C 
BRANCH  10  11
ATOM     11  C   UNL     1      34.111 -16.640 -22.635  0.00  0.00    +0.000 C 
ATOM     12  C   UNL     1      34.160 -15.980 -21.414  0.00  0.00    -0.003 C 
ATOM     13  C   UNL     1      33.537 -16.035 -23.747  0.00  0.00    -0.003 C 
ATOM     14  C   UNL     1      33.050 -14.081 -22.413  0.00  0.00    -0.022 C 
ATOM     15  C   UNL     1      33.627 -14.694 -21.303  0.00  0.00    -0.005 C 
ATOM     16  C   UNL     1      33.005 -14.751 -23.636  0.00  0.00    -0.005 C 
ATOM     17  C   UNL     1      32.481 -12.707 -22.294  0.00  0.00    +0.031 C 
ENDBRANCH  10  11
ENDBRANCH   4  10
ENDBRANCH   2   7
ENDBRANCH   1   2
BRANCH   1  18
ATOM     18  C   UNL     1      32.997 -22.160 -17.034  0.00  0.00    +0.027 C 
BRANCH  18  19
ATOM     19  C   UNL     1      34.117 -22.518 -16.090  0.00  0.00    -0.022 C 
ATOM     20  C   UNL     1      33.848 -23.313 -14.986  0.00  0.00    -0.001 C 
ATOM     21  C   UNL     1      35.396 -22.047 -16.342  0.00  0.00    -0.001 C 
ATOM     22  C   UNL     1      36.176 -23.179 -14.355  0.00  0.00    +0.139 C 
ATOM     23  C   UNL     1      34.884 -23.646 -14.113  0.00  0.00    +0.037 C 
ATOM     24  C   UNL     1      36.432 -22.379 -15.468  0.00  0.00    +0.037 C 
BRANCH  22  25
ATOM     25  O   UNL     1      37.187 -23.501 -13.503  0.00  0.00    -0.472 OA
BRANCH  25  26
ATOM     26  C   UNL     1      37.573 -24.874 -13.443  0.00  0.00    +0.221 C 
ATOM     27  C   UNL     1      37.506 -25.321 -11.986  0.00  0.00    +0.055 C 
ATOM     28  C   UNL     1      36.627 -25.670 -14.338  0.00  0.00    +0.055 C 
BRANCH  26  30
ATOM     29  O   UNL     1      39.978 -24.504 -13.360  0.00  0.00    -0.246 OA
ATOM     30  C   UNL     1      39.001 -24.921 -13.970  0.00  0.00    +0.350 C 
BRANCH  30  31
ATOM     31  O   UNL     1      39.102 -25.479 -15.204  0.00  0.00    -0.478 OA
ATOM     32  H   UNL     1      39.894 -25.907 -15.461  0.00  0.00    +0.295 HD
ENDBRANCH  30  31
ENDBRANCH  26  30
ENDBRANCH  25  26
ENDBRANCH  22  25
ENDBRANCH  18  19
ENDBRANCH   1  18
TORSDOF 10
ENDMDL
MODEL 2
REMARK VINA RESULT:     -11.4      1.170      1.580
REMARK  Name = 9909438
REMARK  10 active torsions:
REMARK  status: ('A' for Active; 'I' for Inactive)
REMARK    1  A    between atoms: C_1  and  C_2
REMARK    2  A    between atoms: C_1  and  C_18
REMARK    3  A    between atoms: C_2  and  C_7
REMARK    4  A    between atoms: N_4  and  C_10
REMARK    5  A    between atoms: C_10  and  C_11
REMARK    6  A    between atoms: C_18  and  C_19
REMARK    7  A    between atoms: C_22  and  O_25
REMARK    8  A    between atoms: O_25  and  C_26
REMARK    9  A    between atoms: C_26  and  C_30
REMARK   10  A    between atoms: C_30  and  O_31
REMARK                            x       y       z     vdW  Elec       q    Type
REMARK                         _______ _______ _______ _____ _____    ______ ____
ROOT
ATOM      1  C   UNL     1      33.313 -21.927 -18.504  0.00  0.00    +0.014 C 
ENDROOT
BRANCH   1   2
ATOM      2  C   UNL     1      32.676 -20.688 -19.127  0.00  0.00    +0.078 C 
BRANCH   2   7
ATOM      3  O   UNL     1      36.638 -18.560 -20.566  0.00  0.00    -0.191 OA
ATOM      4  N   UNL     1      34.543 -18.799 -21.551  0.00  0.00    -0.151 N 
ATOM      5  N   UNL     1      33.389 -19.397 -21.149  0.00  0.00    -0.229 N 
ATOM      6  N   UNL     1      34.901 -19.699 -19.514  0.00  0.00    -0.308 NA
ATOM      7  C   UNL     1      33.672 -19.914 -19.921  0.00  0.00    +0.187 C 
ATOM      8  C   UNL     1      35.484 -18.971 -20.551  0.00  0.00    +0.286 C 
ATOM      9  H   UNL     1      32.536 -19.446 -21.638  0.00  0.00    +0.173 HD
BRANCH   4  10
ATOM     10  C   UNL     1      34.625 -18.125 -22.817  0.00  0.00    +0.152 C 
BRANCH  10  11
ATOM     11  C   UNL     1      34.105 -16.719 -22.740  0.00  0.00    +0.000 C 
ATOM     12  C   UNL     1      34.167 -16.029 -21.536  0.00  0.00    -0.003 C 
ATOM     13  C   UNL     1      33.565 -16.122 -23.873  0.00  0.00    -0.003 C 
ATOM     14  C   UNL     1      33.142 -14.116 -22.596  0.00  0.00    -0.022 C 
ATOM     15  C   UNL     1      33.684 -14.721 -21.464  0.00  0.00    -0.005 C 
ATOM     16  C   UNL     1      33.083 -14.816 -23.802  0.00  0.00    -0.005 C 
ATOM     17  C   UNL     1      32.625 -12.719 -22.519  0.00  0.00    +0.031 C 
ENDBRANCH  10  11
ENDBRANCH   4  10
ENDBRANCH   2   7
ENDBRANCH   1   2
BRANCH   1  18
ATOM     18  C   UNL     1      32.601 -22.369 -17.221  0.00  0.00    +0.027 C 
BRANCH  18  19
ATOM     19  C   UNL     1      33.579 -22.632 -16.105  0.00  0.00    -0.022 C 
ATOM     20  C   UNL     1      33.141 -23.266 -14.952  0.00  0.00    -0.001 C 
ATOM     21  C   UNL     1      34.900 -22.237 -16.250  0.00  0.00    -0.001 C 
ATOM     22  C   UNL     1      35.378 -23.120 -14.052  0.00  0.00    +0.139 C 
ATOM     23  C   UNL     1      34.046 -23.512 -13.919  0.00  0.00    +0.037 C 
ATOM     24  C   UNL     1      35.805 -22.482 -15.216  0.00  0.00    +0.037 C 
BRANCH  22  25
ATOM     25  O   UNL     1      36.262 -23.357 -13.044  0.00  0.00    -0.472 OA
BRANCH  25  26
ATOM     26  C   UNL     1      36.707 -24.702 -12.874  0.00  0.00    +0.221 C 
ATOM     27  C   UNL     1      35.869 -25.596 -13.783  0.00  0.00    +0.055 C 
ATOM     28  C   UNL     1      38.192 -24.756 -13.219  0.00  0.00    +0.055 C 
BRANCH  26  30
ATOM     29  O   UNL     1      36.720 -24.271 -10.478  0.00  0.00    -0.246 OA
ATOM     30  C   UNL     1      36.469 -25.030 -11.406  0.00  0.00    +0.350 C 
BRANCH  30  31
ATOM     31  O   UNL     1      35.942 -26.267 -11.209  0.00  0.00    -0.478 OA
ATOM     32  H   UNL     1      35.309 -26.607 -11.810  0.00  0.00    +0.295 HD
ENDBRANCH  30  31
ENDBRANCH  26  30
ENDBRANCH  25  26
ENDBRANCH  22  25
ENDBRANCH  18  19
ENDBRANCH   1  18
TORSDOF 10
ENDMDL
MODEL 3
REMARK VINA RESULT:     -11.3      5.361     12.840
REMARK  Name = 9909438
REMARK  10 active torsions:
REMARK  status: ('A' for Active; 'I' for Inactive)
REMARK    1  A    between atoms: C_1  and  C_2
REMARK    2  A    between atoms: C_1  and  C_18
REMARK    3  A    between atoms: C_2  and  C_7
REMARK    4  A    between atoms: N_4  and  C_10
REMARK    5  A    between atoms: C_10  and  C_11
REMARK    6  A    between atoms: C_18  and  C_19
REMARK    7  A    between atoms: C_22  and  O_25
REMARK    8  A    between atoms: O_25  and  C_26
REMARK    9  A    between atoms: C_26  and  C_30
REMARK   10  A    between atoms: C_30  and  O_31
REMARK                            x       y       z     vdW  Elec       q    Type
REMARK                         _______ _______ _______ _____ _____    ______ ____
ROOT
ATOM      1  C   UNL     1      32.552 -13.425 -20.705  0.00  0.00    +0.014 C 
ENDROOT
BRANCH   1   2
ATOM      2  C   UNL     1      33.460 -14.394 -19.950  0.00  0.00    +0.078 C 
BRANCH   2   7
ATOM      3  O   UNL     1      34.184 -17.231 -23.654  0.00  0.00    -0.191 OA
ATOM      4  N   UNL     1      34.628 -17.478 -21.383  0.00  0.00    -0.151 N 
ATOM      5  N   UNL     1      34.417 -16.679 -20.302  0.00  0.00    -0.229 N 
ATOM      6  N   UNL     1      33.663 -15.572 -22.107  0.00  0.00    -0.308 NA
ATOM      7  C   UNL     1      33.835 -15.555 -20.806  0.00  0.00    +0.187 C 
ATOM      8  C   UNL     1      34.163 -16.812 -22.504  0.00  0.00    +0.286 C 
ATOM      9  H   UNL     1      34.637 -16.870 -19.362  0.00  0.00    +0.173 HD
BRANCH   4  10
ATOM     10  C   UNL     1      35.227 -18.775 -21.238  0.00  0.00    +0.152 C 
BRANCH  10  11
ATOM     11  C   UNL     1      34.449 -19.652 -20.300  0.00  0.00    +0.000 C 
ATOM     12  C   UNL     1      35.126 -20.490 -19.423  0.00  0.00    -0.003 C 
ATOM     13  C   UNL     1      33.060 -19.618 -20.321  0.00  0.00    -0.003 C 
ATOM     14  C   UNL     1      33.009 -21.277 -18.565  0.00  0.00    -0.022 C 
ATOM     15  C   UNL     1      34.403 -21.305 -18.551  0.00  0.00    -0.005 C 
ATOM     16  C   UNL     1      32.337 -20.433 -19.449  0.00  0.00    -0.005 C 
ATOM     17  C   UNL     1      32.237 -22.148 -17.633  0.00  0.00    +0.031 C 
ENDBRANCH  10  11
ENDBRANCH   4  10
ENDBRANCH   2   7
ENDBRANCH   1   2
BRANCH   1  18
ATOM     18  C   UNL     1      31.415 -12.886 -19.829  0.00  0.00    +0.027 C 
BRANCH  18  19
ATOM     19  C   UNL     1      31.146 -11.429 -20.104  0.00  0.00    -0.022 C 
ATOM     20  C   UNL     1      31.327 -10.934 -21.387  0.00  0.00    -0.001 C 
ATOM     21  C   UNL     1      30.720 -10.608 -19.071  0.00  0.00    -0.001 C 
ATOM     22  C   UNL     1      30.648  -8.749 -20.612  0.00  0.00    +0.139 C 
ATOM     23  C   UNL     1      31.077  -9.586 -21.643  0.00  0.00    +0.037 C 
ATOM     24  C   UNL     1      30.470  -9.259 -19.326  0.00  0.00    +0.037 C 
BRANCH  22  25
ATOM     25  O   UNL     1      30.405  -7.433 -20.860  0.00  0.00    -0.472 OA
BRANCH  25  26
ATOM     26  C   UNL     1      31.510  -6.537 -20.752  0.00  0.00    +0.221 C 
ATOM     27  C   UNL     1      32.745  -7.242 -21.304  0.00  0.00    +0.055 C 
ATOM     28  C   UNL     1      31.170  -5.270 -21.531  0.00  0.00    +0.055 C 
BRANCH  26  30
ATOM     29  O   UNL     1      30.817  -5.671 -18.584  0.00  0.00    -0.246 OA
ATOM     30  C   UNL     1      31.658  -6.247 -19.264  0.00  0.00    +0.350 C 
BRANCH  30  31
ATOM     31  O   UNL     1      32.831  -6.692 -18.743  0.00  0.00    -0.478 OA
ATOM     32  H   UNL     1      33.612  -6.665 -19.259  0.00  0.00    +0.295 HD
ENDBRANCH  30  31
ENDBRANCH  26  30
ENDBRANCH  25  26
ENDBRANCH  22  25
ENDBRANCH  18  19
ENDBRANCH   1  18
TORSDOF 10
ENDMDL
MODEL 4
REMARK VINA RESULT:     -11.3      5.596     12.991
REMARK  Name = 9909438
REMARK  10 active torsions:
REMARK  status: ('A' for Active; 'I' for Inactive)
REMARK    1  A    between atoms: C_1  and  C_2
REMARK    2  A    between atoms: C_1  and  C_18
REMARK    3  A    between atoms: C_2  and  C_7
REMARK    4  A    between atoms: N_4  and  C_10
REMARK    5  A    between atoms: C_10  and  C_11
REMARK    6  A    between atoms: C_18  and  C_19
REMARK    7  A    between atoms: C_22  and  O_25
REMARK    8  A    between atoms: O_25  and  C_26
REMARK    9  A    between atoms: C_26  and  C_30
REMARK   10  A    between atoms: C_30  and  O_31
REMARK                            x       y       z     vdW  Elec       q    Type
REMARK                         _______ _______ _______ _____ _____    ______ ____
ROOT
ATOM      1  C   UNL     1      32.141 -13.420 -20.672  0.00  0.00    +0.014 C 
ENDROOT
BRANCH   1   2
ATOM      2  C   UNL     1      33.339 -14.188 -20.120  0.00  0.00    +0.078 C 
BRANCH   2   7
ATOM      3  O   UNL     1      34.105 -16.825 -23.961  0.00  0.00    -0.191 OA
ATOM      4  N   UNL     1      34.547 -17.182 -21.704  0.00  0.00    -0.151 N 
ATOM      5  N   UNL     1      34.324 -16.441 -20.585  0.00  0.00    -0.229 N 
ATOM      6  N   UNL     1      33.560 -15.253 -22.333  0.00  0.00    -0.308 NA
ATOM      7  C   UNL     1      33.729 -15.300 -21.032  0.00  0.00    +0.187 C 
ATOM      8  C   UNL     1      34.076 -16.465 -22.791  0.00  0.00    +0.286 C 
ATOM      9  H   UNL     1      34.544 -16.678 -19.655  0.00  0.00    +0.173 HD
BRANCH   4  10
ATOM     10  C   UNL     1      35.161 -18.477 -21.624  0.00  0.00    +0.152 C 
BRANCH  10  11
ATOM     11  C   UNL     1      34.458 -19.373 -20.645  0.00  0.00    +0.000 C 
ATOM     12  C   UNL     1      33.071 -19.460 -20.668  0.00  0.00    -0.003 C 
ATOM     13  C   UNL     1      35.201 -20.104 -19.726  0.00  0.00    -0.003 C 
ATOM     14  C   UNL     1      33.155 -21.030 -18.834  0.00  0.00    -0.022 C 
ATOM     15  C   UNL     1      32.418 -20.293 -19.759  0.00  0.00    -0.005 C 
ATOM     16  C   UNL     1      34.547 -20.937 -18.818  0.00  0.00    -0.005 C 
ATOM     17  C   UNL     1      32.456 -21.920 -17.862  0.00  0.00    +0.031 C 
ENDBRANCH  10  11
ENDBRANCH   4  10
ENDBRANCH   2   7
ENDBRANCH   1   2
BRANCH   1  18
ATOM     18  C   UNL     1      31.326 -12.736 -19.569  0.00  0.00    +0.027 C 
BRANCH  18  19
ATOM     19  C   UNL     1      31.089 -11.279 -19.875  0.00  0.00    -0.022 C 
ATOM     20  C   UNL     1      31.188 -10.834 -21.185  0.00  0.00    -0.001 C 
ATOM     21  C   UNL     1      30.777 -10.408 -18.843  0.00  0.00    -0.001 C 
ATOM     22  C   UNL     1      30.652  -8.600 -20.440  0.00  0.00    +0.139 C 
ATOM     23  C   UNL     1      30.968  -9.487 -21.470  0.00  0.00    +0.037 C 
ATOM     24  C   UNL     1      30.558  -9.059 -19.127  0.00  0.00    +0.037 C 
BRANCH  22  25
ATOM     25  O   UNL     1      30.439  -7.284 -20.716  0.00  0.00    -0.472 OA
BRANCH  25  26
ATOM     26  C   UNL     1      31.576  -6.423 -20.691  0.00  0.00    +0.221 C 
ATOM     27  C   UNL     1      32.828  -7.294 -20.665  0.00  0.00    +0.055 C 
ATOM     28  C   UNL     1      31.519  -5.528 -21.926  0.00  0.00    +0.055 C 
BRANCH  26  30
ATOM     29  O   UNL     1      32.041  -5.851 -18.371  0.00  0.00    -0.246 OA
ATOM     30  C   UNL     1      31.444  -5.607 -19.412  0.00  0.00    +0.350 C 
BRANCH  30  31
ATOM     31  O   UNL     1      30.587  -4.560 -19.528  0.00  0.00    -0.478 OA
ATOM     32  H   UNL     1      30.852  -3.786 -19.984  0.00  0.00    +0.295 HD
ENDBRANCH  30  31
ENDBRANCH  26  30
ENDBRANCH  25  26
ENDBRANCH  22  25
ENDBRANCH  18  19
ENDBRANCH   1  18
TORSDOF 10
ENDMDL
MODEL 5
REMARK VINA RESULT:     -11.1      2.786      4.357
REMARK  Name = 9909438
REMARK  10 active torsions:
REMARK  status: ('A' for Active; 'I' for Inactive)
REMARK    1  A    between atoms: C_1  and  C_2
REMARK    2  A    between atoms: C_1  and  C_18
REMARK    3  A    between atoms: C_2  and  C_7
REMARK    4  A    between atoms: N_4  and  C_10
REMARK    5  A    between atoms: C_10  and  C_11
REMARK    6  A    between atoms: C_18  and  C_19
REMARK    7  A    between atoms: C_22  and  O_25
REMARK    8  A    between atoms: O_25  and  C_26
REMARK    9  A    between atoms: C_26  and  C_30
REMARK   10  A    between atoms: C_30  and  O_31
REMARK                            x       y       z     vdW  Elec       q    Type
REMARK                         _______ _______ _______ _____ _____    ______ ____
ROOT
ATOM      1  C   UNL     1      34.408 -19.297 -21.063  0.00  0.00    +0.014 C 
ENDROOT
BRANCH   1   2
ATOM      2  C   UNL     1      34.202 -19.387 -22.573  0.00  0.00    +0.078 C 
BRANCH   2   7
ATOM      3  O   UNL     1      32.201 -15.943 -25.108  0.00  0.00    -0.191 OA
ATOM      4  N   UNL     1      33.842 -15.921 -23.459  0.00  0.00    -0.151 N 
ATOM      5  N   UNL     1      34.438 -16.901 -22.727  0.00  0.00    -0.229 N 
ATOM      6  N   UNL     1      32.941 -17.895 -24.076  0.00  0.00    -0.308 NA
ATOM      7  C   UNL     1      33.854 -18.058 -23.147  0.00  0.00    +0.187 C 
ATOM      8  C   UNL     1      32.920 -16.518 -24.301  0.00  0.00    +0.286 C 
ATOM      9  H   UNL     1      35.138 -16.798 -22.042  0.00  0.00    +0.173 HD
BRANCH   4  10
ATOM     10  C   UNL     1      34.215 -14.544 -23.294  0.00  0.00    +0.152 C 
BRANCH  10  11
ATOM     11  C   UNL     1      33.333 -13.837 -22.306  0.00  0.00    +0.000 C 
ATOM     12  C   UNL     1      33.251 -14.305 -21.001  0.00  0.00    -0.003 C 
ATOM     13  C   UNL     1      32.606 -12.722 -22.708  0.00  0.00    -0.003 C 
ATOM     14  C   UNL     1      31.699 -12.529 -20.478  0.00  0.00    -0.022 C 
ATOM     15  C   UNL     1      32.431 -13.648 -20.082  0.00  0.00    -0.005 C 
ATOM     16  C   UNL     1      31.787 -12.066 -21.790  0.00  0.00    -0.005 C 
ATOM     17  C   UNL     1      30.822 -11.827 -19.496  0.00  0.00    +0.031 C 
ENDBRANCH  10  11
ENDBRANCH   4  10
ENDBRANCH   2   7
ENDBRANCH   1   2
BRANCH   1  18
ATOM     18  C   UNL     1      33.095 -19.431 -20.284  0.00  0.00    +0.027 C 
BRANCH  18  19
ATOM     19  C   UNL     1      33.172 -20.524 -19.249  0.00  0.00    -0.022 C 
ATOM     20  C   UNL     1      34.411 -21.029 -18.884  0.00  0.00    -0.001 C 
ATOM     21  C   UNL     1      32.004 -21.006 -18.679  0.00  0.00    -0.001 C 
ATOM     22  C   UNL     1      33.315 -22.534 -17.344  0.00  0.00    +0.139 C 
ATOM     23  C   UNL     1      34.484 -22.040 -17.926  0.00  0.00    +0.037 C 
ATOM     24  C   UNL     1      32.076 -22.018 -17.721  0.00  0.00    +0.037 C 
BRANCH  22  25
ATOM     25  O   UNL     1      33.385 -23.522 -16.410  0.00  0.00    -0.472 OA
BRANCH  25  26
ATOM     26  C   UNL     1      33.530 -23.119 -15.049  0.00  0.00    +0.221 C 
ATOM     27  C   UNL     1      34.617 -22.050 -14.986  0.00  0.00    +0.055 C 
ATOM     28  C   UNL     1      32.180 -22.601 -14.563  0.00  0.00    +0.055 C 
BRANCH  26  30
ATOM     29  O   UNL     1      34.859 -25.115 -14.631  0.00  0.00    -0.246 OA
ATOM     30  C   UNL     1      33.945 -24.374 -14.293  0.00  0.00    +0.350 C 
BRANCH  30  31
ATOM     31  O   UNL     1      33.195 -24.606 -13.184  0.00  0.00    -0.478 OA
ATOM     32  H   UNL     1      32.939 -25.480 -12.967  0.00  0.00    +0.295 HD
ENDBRANCH  30  31
ENDBRANCH  26  30
ENDBRANCH  25  26
ENDBRANCH  22  25
ENDBRANCH  18  19
ENDBRANCH   1  18
TORSDOF 10
ENDMDL
MODEL 6
REMARK VINA RESULT:     -11.0      4.035     10.190
REMARK  Name = 9909438
REMARK  10 active torsions:
REMARK  status: ('A' for Active; 'I' for Inactive)
REMARK    1  A    between atoms: C_1  and  C_2
REMARK    2  A    between atoms: C_1  and  C_18
REMARK    3  A    between atoms: C_2  and  C_7
REMARK    4  A    between atoms: N_4  and  C_10
REMARK    5  A    between atoms: C_10  and  C_11
REMARK    6  A    between atoms: C_18  and  C_19
REMARK    7  A    between atoms: C_22  and  O_25
REMARK    8  A    between atoms: O_25  and  C_26
REMARK    9  A    between atoms: C_26  and  C_30
REMARK   10  A    between atoms: C_30  and  O_31
REMARK                            x       y       z     vdW  Elec       q    Type
REMARK                         _______ _______ _______ _____ _____    ______ ____
ROOT
ATOM      1  C   UNL     1      33.239 -22.272 -16.536  0.00  0.00    +0.014 C 
ENDROOT
BRANCH   1   2
ATOM      2  C   UNL     1      34.308 -22.766 -15.564  0.00  0.00    +0.078 C 
BRANCH   2   7
ATOM      3  O   UNL     1      33.618 -24.342 -11.167  0.00  0.00    -0.191 OA
ATOM      4  N   UNL     1      32.200 -24.153 -13.002  0.00  0.00    -0.151 N 
ATOM      5  N   UNL     1      32.382 -23.713 -14.277  0.00  0.00    -0.229 N 
ATOM      6  N   UNL     1      34.350 -23.504 -13.212  0.00  0.00    -0.308 NA
ATOM      7  C   UNL     1      33.691 -23.341 -14.335  0.00  0.00    +0.187 C 
ATOM      8  C   UNL     1      33.406 -24.036 -12.333  0.00  0.00    +0.286 C 
ATOM      9  H   UNL     1      31.714 -23.672 -14.999  0.00  0.00    +0.173 HD
BRANCH   4  10
ATOM     10  C   UNL     1      30.923 -24.644 -12.565  0.00  0.00    +0.152 C 
BRANCH  10  11
ATOM     11  C   UNL     1      29.795 -24.083 -13.382  0.00  0.00    +0.000 C 
ATOM     12  C   UNL     1      28.895 -24.947 -13.993  0.00  0.00    -0.003 C 
ATOM     13  C   UNL     1      29.664 -22.706 -13.519  0.00  0.00    -0.003 C 
ATOM     14  C   UNL     1      27.708 -23.046 -14.895  0.00  0.00    -0.022 C 
ATOM     15  C   UNL     1      27.846 -24.426 -14.753  0.00  0.00    -0.005 C 
ATOM     16  C   UNL     1      28.616 -22.186 -14.278  0.00  0.00    -0.005 C 
ATOM     17  C   UNL     1      26.587 -22.489 -15.707  0.00  0.00    +0.031 C 
ENDBRANCH  10  11
ENDBRANCH   4  10
ENDBRANCH   2   7
ENDBRANCH   1   2
BRANCH   1  18
ATOM     18  C   UNL     1      33.567 -22.620 -17.992  0.00  0.00    +0.027 C 
BRANCH  18  19
ATOM     19  C   UNL     1      33.649 -21.385 -18.852  0.00  0.00    -0.022 C 
ATOM     20  C   UNL     1      32.483 -20.818 -19.343  0.00  0.00    -0.001 C 
ATOM     21  C   UNL     1      34.890 -20.836 -19.139  0.00  0.00    -0.001 C 
ATOM     22  C   UNL     1      33.800 -19.112 -20.434  0.00  0.00    +0.139 C 
ATOM     23  C   UNL     1      32.557 -19.675 -20.138  0.00  0.00    +0.037 C 
ATOM     24  C   UNL     1      34.966 -19.693 -19.935  0.00  0.00    +0.037 C 
BRANCH  22  25
ATOM     25  O   UNL     1      33.874 -17.997 -21.211  0.00  0.00    -0.472 OA
BRANCH  25  26
ATOM     26  C   UNL     1      34.592 -18.109 -22.439  0.00  0.00    +0.221 C 
ATOM     27  C   UNL     1      36.078 -18.212 -22.111  0.00  0.00    +0.055 C 
ATOM     28  C   UNL     1      34.075 -19.341 -23.177  0.00  0.00    +0.055 C 
BRANCH  26  30
ATOM     29  O   UNL     1      33.652 -16.795 -24.261  0.00  0.00    -0.246 OA
ATOM     30  C   UNL     1      34.283 -16.834 -23.212  0.00  0.00    +0.350 C 
BRANCH  30  31
ATOM     31  O   UNL     1      34.780 -15.715 -22.623  0.00  0.00    -0.478 OA
ATOM     32  H   UNL     1      34.926 -15.697 -21.698  0.00  0.00    +0.295 HD
ENDBRANCH  30  31
ENDBRANCH  26  30
ENDBRANCH  25  26
ENDBRANCH  22  25
ENDBRANCH  18  19
ENDBRANCH   1  18
TORSDOF 10
ENDMDL
MODEL 7
REMARK VINA RESULT:     -11.0      2.162      3.088
REMARK  Name = 9909438
REMARK  10 active torsions:
REMARK  status: ('A' for Active; 'I' for Inactive)
REMARK    1  A    between atoms: C_1  and  C_2
REMARK    2  A    between atoms: C_1  and  C_18
REMARK    3  A    between atoms: C_2  and  C_7
REMARK    4  A    between atoms: N_4  and  C_10
REMARK    5  A    between atoms: C_10  and  C_11
REMARK    6  A    between atoms: C_18  and  C_19
REMARK    7  A    between atoms: C_22  and  O_25
REMARK    8  A    between atoms: O_25  and  C_26
REMARK    9  A    between atoms: C_26  and  C_30
REMARK   10  A    between atoms: C_30  and  O_31
REMARK                            x       y       z     vdW  Elec       q    Type
REMARK                         _______ _______ _______ _____ _____    ______ ____
ROOT
ATOM      1  C   UNL     1      33.615 -20.347 -19.375  0.00  0.00    +0.014 C 
ENDROOT
BRANCH   1   2
ATOM      2  C   UNL     1      34.847 -19.771 -20.069  0.00  0.00    +0.078 C 
BRANCH   2   7
ATOM      3  O   UNL     1      32.917 -18.006 -24.000  0.00  0.00    -0.191 OA
ATOM      4  N   UNL     1      34.282 -17.065 -22.368  0.00  0.00    -0.151 N 
ATOM      5  N   UNL     1      34.855 -17.558 -21.237  0.00  0.00    -0.229 N 
ATOM      6  N   UNL     1      33.684 -19.231 -22.175  0.00  0.00    -0.308 NA
ATOM      7  C   UNL     1      34.459 -18.860 -21.182  0.00  0.00    +0.187 C 
ATOM      8  C   UNL     1      33.561 -18.085 -22.961  0.00  0.00    +0.286 C 
ATOM      9  H   UNL     1      35.431 -17.080 -20.597  0.00  0.00    +0.173 HD
BRANCH   4  10
ATOM     10  C   UNL     1      34.488 -15.700 -22.766  0.00  0.00    +0.152 C 
BRANCH  10  11
ATOM     11  C   UNL     1      33.572 -14.758 -22.039  0.00  0.00    +0.000 C 
ATOM     12  C   UNL     1      33.593 -14.716 -20.650  0.00  0.00    -0.003 C 
ATOM     13  C   UNL     1      32.713 -13.939 -22.762  0.00  0.00    -0.003 C 
ATOM     14  C   UNL     1      31.877 -13.015 -20.692  0.00  0.00    -0.022 C 
ATOM     15  C   UNL     1      32.742 -13.840 -19.974  0.00  0.00    -0.005 C 
ATOM     16  C   UNL     1      31.863 -13.064 -22.086  0.00  0.00    -0.005 C 
ATOM     17  C   UNL     1      30.968 -12.080 -19.969  0.00  0.00    +0.031 C 
ENDBRANCH  10  11
ENDBRANCH   4  10
ENDBRANCH   2   7
ENDBRANCH   1   2
BRANCH   1  18
ATOM     18  C   UNL     1      33.771 -21.835 -19.045  0.00  0.00    +0.027 C 
BRANCH  18  19
ATOM     19  C   UNL     1      34.035 -22.054 -17.577  0.00  0.00    -0.022 C 
ATOM     20  C   UNL     1      35.281 -21.740 -17.056  0.00  0.00    -0.001 C 
ATOM     21  C   UNL     1      33.028 -22.563 -16.772  0.00  0.00    -0.001 C 
ATOM     22  C   UNL     1      34.521 -22.452 -14.876  0.00  0.00    +0.139 C 
ATOM     23  C   UNL     1      35.527 -21.941 -15.697  0.00  0.00    +0.037 C 
ATOM     24  C   UNL     1      33.272 -22.764 -15.413  0.00  0.00    +0.037 C 
BRANCH  22  25
ATOM     25  O   UNL     1      34.760 -22.650 -13.551  0.00  0.00    -0.472 OA
BRANCH  25  26
ATOM     26  C   UNL     1      35.201 -23.948 -13.157  0.00  0.00    +0.221 C 
ATOM     27  C   UNL     1      34.679 -24.955 -14.178  0.00  0.00    +0.055 C 
ATOM     28  C   UNL     1      36.726 -23.929 -13.091  0.00  0.00    +0.055 C 
BRANCH  26  30
ATOM     29  O   UNL     1      35.018 -24.999 -10.969  0.00  0.00    -0.246 OA
ATOM     30  C   UNL     1      34.592 -24.189 -11.783  0.00  0.00    +0.350 C 
BRANCH  30  31
ATOM     31  O   UNL     1      33.509 -23.409 -11.530  0.00  0.00    -0.478 OA
ATOM     32  H   UNL     1      33.300 -22.698 -12.102  0.00  0.00    +0.295 HD
ENDBRANCH  30  31
ENDBRANCH  26  30
ENDBRANCH  25  26
ENDBRANCH  22  25
ENDBRANCH  18  19
ENDBRANCH   1  18
TORSDOF 10
ENDMDL
MODEL 8
REMARK VINA RESULT:     -10.9      3.492     10.086
REMARK  Name = 9909438
REMARK  10 active torsions:
REMARK  status: ('A' for Active; 'I' for Inactive)
REMARK    1  A    between atoms: C_1  and  C_2
REMARK    2  A    between atoms: C_1  and  C_18
REMARK    3  A    between atoms: C_2  and  C_7
REMARK    4  A    between atoms: N_4  and  C_10
REMARK    5  A    between atoms: C_10  and  C_11
REMARK    6  A    between atoms: C_18  and  C_19
REMARK    7  A    between atoms: C_22  and  O_25
REMARK    8  A    between atoms: O_25  and  C_26
REMARK    9  A    between atoms: C_26  and  C_30
REMARK   10  A    between atoms: C_30  and  O_31
REMARK                            x       y       z     vdW  Elec       q    Type
REMARK                         _______ _______ _______ _____ _____    ______ ____
ROOT
ATOM      1  C   UNL     1      36.076 -21.593 -16.731  0.00  0.00    +0.014 C 
ENDROOT
BRANCH   1   2
ATOM      2  C   UNL     1      36.159 -21.612 -15.207  0.00  0.00    +0.078 C 
BRANCH   2   7
ATOM      3  O   UNL     1      34.443 -25.878 -14.131  0.00  0.00    -0.191 OA
ATOM      4  N   UNL     1      33.834 -23.733 -13.467  0.00  0.00    -0.151 N 
ATOM      5  N   UNL     1      34.307 -22.495 -13.773  0.00  0.00    -0.229 N 
ATOM      6  N   UNL     1      35.554 -23.983 -14.904  0.00  0.00    -0.308 NA
ATOM      7  C   UNL     1      35.335 -22.717 -14.639  0.00  0.00    +0.187 C 
ATOM      8  C   UNL     1      34.589 -24.662 -14.160  0.00  0.00    +0.286 C 
ATOM      9  H   UNL     1      33.980 -21.627 -13.442  0.00  0.00    +0.173 HD
BRANCH   4  10
ATOM     10  C   UNL     1      32.723 -23.899 -12.571  0.00  0.00    +0.152 C 
BRANCH  10  11
ATOM     11  C   UNL     1      31.409 -23.878 -13.296  0.00  0.00    +0.000 C 
ATOM     12  C   UNL     1      31.172 -22.904 -14.259  0.00  0.00    -0.003 C 
ATOM     13  C   UNL     1      30.443 -24.831 -12.997  0.00  0.00    -0.003 C 
ATOM     14  C   UNL     1      28.976 -23.838 -14.639  0.00  0.00    -0.022 C 
ATOM     15  C   UNL     1      29.950 -22.885 -14.934  0.00  0.00    -0.005 C 
ATOM     16  C   UNL     1      29.222 -24.811 -13.671  0.00  0.00    -0.005 C 
ATOM     17  C   UNL     1      27.670 -23.816 -15.359  0.00  0.00    +0.031 C 
ENDBRANCH  10  11
ENDBRANCH   4  10
ENDBRANCH   2   7
ENDBRANCH   1   2
BRANCH   1  18
ATOM     18  C   UNL     1      34.656 -21.860 -17.243  0.00  0.00    +0.027 C 
BRANCH  18  19
ATOM     19  C   UNL     1      34.338 -21.028 -18.460  0.00  0.00    -0.022 C 
ATOM     20  C   UNL     1      35.373 -20.438 -19.169  0.00  0.00    -0.001 C 
ATOM     21  C   UNL     1      33.018 -20.868 -18.850  0.00  0.00    -0.001 C 
ATOM     22  C   UNL     1      33.756 -19.500 -20.700  0.00  0.00    +0.139 C 
ATOM     23  C   UNL     1      35.081 -19.669 -20.296  0.00  0.00    +0.037 C 
ATOM     24  C   UNL     1      32.725 -20.099 -19.977  0.00  0.00    +0.037 C 
BRANCH  22  25
ATOM     25  O   UNL     1      33.470 -18.749 -21.798  0.00  0.00    -0.472 OA
BRANCH  25  26
ATOM     26  C   UNL     1      34.353 -17.669 -22.094  0.00  0.00    +0.221 C 
ATOM     27  C   UNL     1      34.149 -16.588 -21.037  0.00  0.00    +0.055 C 
ATOM     28  C   UNL     1      35.779 -18.213 -22.098  0.00  0.00    +0.055 C 
BRANCH  26  30
ATOM     29  O   UNL     1      33.213 -17.786 -24.242  0.00  0.00    -0.246 OA
ATOM     30  C   UNL     1      33.947 -17.174 -23.476  0.00  0.00    +0.350 C 
BRANCH  30  31
ATOM     31  O   UNL     1      34.482 -15.967 -23.794  0.00  0.00    -0.478 OA
ATOM     32  H   UNL     1      35.088 -15.555 -23.211  0.00  0.00    +0.295 HD
ENDBRANCH  30  31
ENDBRANCH  26  30
ENDBRANCH  25  26
ENDBRANCH  22  25
ENDBRANCH  18  19
ENDBRANCH   1  18
TORSDOF 10
ENDMDL
MODEL 9
REMARK VINA RESULT:     -10.7      6.274     13.077
REMARK  Name = 9909438
REMARK  10 active torsions:
REMARK  status: ('A' for Active; 'I' for Inactive)
REMARK    1  A    between atoms: C_1  and  C_2
REMARK    2  A    between atoms: C_1  and  C_18
REMARK    3  A    between atoms: C_2  and  C_7
REMARK    4  A    between atoms: N_4  and  C_10
REMARK    5  A    between atoms: C_10  and  C_11
REMARK    6  A    between atoms: C_18  and  C_19
REMARK    7  A    between atoms: C_22  and  O_25
REMARK    8  A    between atoms: O_25  and  C_26
REMARK    9  A    between atoms: C_26  and  C_30
REMARK   10  A    between atoms: C_30  and  O_31
REMARK                            x       y       z     vdW  Elec       q    Type
REMARK                         _______ _______ _______ _____ _____    ______ ____
ROOT
ATOM      1  C   UNL     1      31.569 -13.359 -20.429  0.00  0.00    +0.014 C 
ENDROOT
BRANCH   1   2
ATOM      2  C   UNL     1      33.055 -13.608 -20.679  0.00  0.00    +0.078 C 
BRANCH   2   7
ATOM      3  O   UNL     1      33.176 -15.241 -25.107  0.00  0.00    -0.191 OA
ATOM      4  N   UNL     1      33.873 -16.153 -23.083  0.00  0.00    -0.151 N 
ATOM      5  N   UNL     1      33.836 -15.704 -21.799  0.00  0.00    -0.229 N 
ATOM      6  N   UNL     1      32.934 -14.102 -23.091  0.00  0.00    -0.308 NA
ATOM      7  C   UNL     1      33.261 -14.472 -21.875  0.00  0.00    +0.187 C 
ATOM      8  C   UNL     1      33.315 -15.179 -23.892  0.00  0.00    +0.286 C 
ATOM      9  H   UNL     1      34.156 -16.168 -20.991  0.00  0.00    +0.173 HD
BRANCH   4  10
ATOM     10  C   UNL     1      34.413 -17.446 -23.399  0.00  0.00    +0.152 C 
BRANCH  10  11
ATOM     11  C   UNL     1      34.607 -18.289 -22.172  0.00  0.00    +0.000 C 
ATOM     12  C   UNL     1      35.838 -18.289 -21.527  0.00  0.00    -0.003 C 
ATOM     13  C   UNL     1      33.555 -19.062 -21.695  0.00  0.00    -0.003 C 
ATOM     14  C   UNL     1      34.968 -19.851 -19.902  0.00  0.00    -0.022 C 
ATOM     15  C   UNL     1      36.018 -19.073 -20.386  0.00  0.00    -0.005 C 
ATOM     16  C   UNL     1      33.736 -19.845 -20.556  0.00  0.00    -0.005 C 
ATOM     17  C   UNL     1      35.162 -20.689 -18.683  0.00  0.00    +0.031 C 
ENDBRANCH  10  11
ENDBRANCH   4  10
ENDBRANCH   2   7
ENDBRANCH   1   2
BRANCH   1  18
ATOM     18  C   UNL     1      31.323 -12.453 -19.218  0.00  0.00    +0.027 C 
BRANCH  18  19
ATOM     19  C   UNL     1      31.096 -11.022 -19.632  0.00  0.00    -0.022 C 
ATOM     20  C   UNL     1      31.058 -10.702 -20.981  0.00  0.00    -0.001 C 
ATOM     21  C   UNL     1      30.928 -10.050 -18.658  0.00  0.00    -0.001 C 
ATOM     22  C   UNL     1      30.676  -8.389 -20.395  0.00  0.00    +0.139 C 
ATOM     23  C   UNL     1      30.847  -9.377 -21.365  0.00  0.00    +0.037 C 
ATOM     24  C   UNL     1      30.718  -8.725 -19.042  0.00  0.00    +0.037 C 
BRANCH  22  25
ATOM     25  O   UNL     1      30.472  -7.096 -20.769  0.00  0.00    -0.472 OA
BRANCH  25  26
ATOM     26  C   UNL     1      31.596  -6.219 -20.712  0.00  0.00    +0.221 C 
ATOM     27  C   UNL     1      32.858  -7.072 -20.636  0.00  0.00    +0.055 C 
ATOM     28  C   UNL     1      31.569  -5.336 -21.956  0.00  0.00    +0.055 C 
BRANCH  26  30
ATOM     29  O   UNL     1      32.024  -5.578 -18.403  0.00  0.00    -0.246 OA
ATOM     30  C   UNL     1      31.408  -5.395 -19.446  0.00  0.00    +0.350 C 
BRANCH  30  31
ATOM     31  O   UNL     1      30.478  -4.414 -19.575  0.00  0.00    -0.478 OA
ATOM     32  H   UNL     1      30.685  -3.536 -19.323  0.00  0.00    +0.295 HD
ENDBRANCH  30  31
ENDBRANCH  26  30
ENDBRANCH  25  26
ENDBRANCH  22  25
ENDBRANCH  18  19
ENDBRANCH   1  18
TORSDOF 10
ENDMDL
