MODEL 1
REMARK VINA RESULT:     -11.6      0.000      0.000
REMARK  Name = 24743471
REMARK  3 active torsions:
REMARK  status: ('A' for Active; 'I' for Inactive)
REMARK    1  A    between atoms: C_1  and  N_7
REMARK    2  A    between atoms: C_6  and  C_17
REMARK    3  A    between atoms: C_22  and  N_24
REMARK                            x       y       z     vdW  Elec       q    Type
REMARK                         _______ _______ _______ _____ _____    ______ ____
ROOT
ATOM      1  C   UNL     1      35.245 -23.107 -14.956  0.00  0.00    +0.048 C 
ATOM      2  C   UNL     1      36.270 -22.316 -15.474  0.00  0.00    +0.015 C 
ATOM      3  C   UNL     1      34.003 -23.144 -15.590  0.00  0.00    +0.015 C 
ATOM      4  C   UNL     1      36.053 -21.560 -16.627  0.00  0.00    +0.001 C 
ATOM      5  C   UNL     1      33.786 -22.388 -16.743  0.00  0.00    +0.001 C 
ATOM      6  C   UNL     1      34.812 -21.597 -17.260  0.00  0.00    +0.000 C 
ENDROOT
BRANCH   1   7
ATOM      7  N   UNL     1      35.459 -23.857 -13.816  0.00  0.00    -0.311 N 
ATOM      8  N   UNL     1      38.115 -26.035 -13.189  0.00  0.00    +0.387 N 
ATOM      9  C   UNL     1      36.025 -25.615 -12.317  0.00  0.00    -0.003 C 
ATOM     10  C   UNL     1      35.972 -25.230 -13.806  0.00  0.00    +0.050 C 
ATOM     11  C   UNL     1      35.138 -24.606 -11.609  0.00  0.00    +0.021 C 
ATOM     12  C   UNL     1      37.502 -25.545 -11.956  0.00  0.00    -0.076 C 
ATOM     13  C   UNL     1      37.431 -25.318 -14.270  0.00  0.00    -0.057 C 
ATOM     14  C   UNL     1      35.241 -23.347 -12.463  0.00  0.00    +0.091 C 
ATOM     15  C   UNL     1      39.556 -25.833 -13.213  0.00  0.00    -0.101 C 
ATOM     16  H   UNL     1      38.006 -27.045 -13.285  0.00  0.00    -0.080 HD
ENDBRANCH   1   7
BRANCH   6  17
ATOM     17  C   UNL     1      34.586 -20.813 -18.456  0.00  0.00    +0.000 C 
ATOM     18  C   UNL     1      35.659 -20.189 -19.093  0.00  0.00    +0.001 C 
ATOM     19  C   UNL     1      33.296 -20.681 -18.970  0.00  0.00    +0.001 C 
ATOM     20  C   UNL     1      35.442 -19.434 -20.245  0.00  0.00    +0.017 C 
ATOM     21  C   UNL     1      33.079 -19.926 -20.123  0.00  0.00    +0.017 C 
ATOM     22  C   UNL     1      34.152 -19.302 -20.760  0.00  0.00    +0.077 C 
BRANCH  22  24
ATOM     23  O   UNL     1      34.520 -16.378 -21.170  0.00  0.00    -0.268 OA
ATOM     24  N   UNL     1      33.928 -18.520 -21.953  0.00  0.00    -0.155 N 
ATOM     25  N   UNL     1      33.525 -19.275 -23.030  0.00  0.00    -0.170 NA
ATOM     26  C   UNL     1      34.103 -17.135 -22.047  0.00  0.00    +0.272 C 
ATOM     27  C   UNL     1      33.769 -16.508 -23.351  0.00  0.00    +0.062 C 
ATOM     28  C   UNL     1      33.271 -18.672 -24.140  0.00  0.00    +0.118 C 
ATOM     29  C   UNL     1      33.363 -17.237 -24.384  0.00  0.00    +0.027 C 
ENDBRANCH  22  24
ENDBRANCH   6  17
TORSDOF 3
ENDMDL
MODEL 2
REMARK VINA RESULT:     -10.3      7.686     15.140
REMARK  Name = 24743471
REMARK  3 active torsions:
REMARK  status: ('A' for Active; 'I' for Inactive)
REMARK    1  A    between atoms: C_1  and  N_7
REMARK    2  A    between atoms: C_6  and  C_17
REMARK    3  A    between atoms: C_22  and  N_24
REMARK                            x       y       z     vdW  Elec       q    Type
REMARK                         _______ _______ _______ _____ _____    ______ ____
ROOT
ATOM      1  C   UNL     1      32.668  -8.320 -23.410  0.00  0.00    +0.048 C 
ATOM      2  C   UNL     1      33.606  -8.993 -24.193  0.00  0.00    +0.015 C 
ATOM      3  C   UNL     1      31.921  -9.018 -22.461  0.00  0.00    +0.015 C 
ATOM      4  C   UNL     1      33.796 -10.365 -24.028  0.00  0.00    +0.001 C 
ATOM      5  C   UNL     1      32.112 -10.391 -22.296  0.00  0.00    +0.001 C 
ATOM      6  C   UNL     1      33.050 -11.063 -23.080  0.00  0.00    +0.000 C 
ENDROOT
BRANCH   1   7
ATOM      7  N   UNL     1      32.480  -6.961 -23.572  0.00  0.00    -0.311 N 
ATOM      8  N   UNL     1      29.955  -5.000 -22.168  0.00  0.00    +0.387 N 
ATOM      9  C   UNL     1      31.494  -4.818 -23.872  0.00  0.00    -0.003 C 
ATOM     10  C   UNL     1      31.173  -6.314 -23.721  0.00  0.00    +0.050 C 
ATOM     11  C   UNL     1      32.968  -4.757 -24.233  0.00  0.00    +0.021 C 
ATOM     12  C   UNL     1      31.132  -4.210 -22.523  0.00  0.00    -0.076 C 
ATOM     13  C   UNL     1      30.327  -6.392 -22.443  0.00  0.00    -0.057 C 
ATOM     14  C   UNL     1      33.571  -5.989 -23.567  0.00  0.00    +0.091 C 
ATOM     15  C   UNL     1      29.544  -4.798 -20.787  0.00  0.00    -0.101 C 
ATOM     16  H   UNL     1      29.138  -4.718 -22.712  0.00  0.00    -0.080 HD
ENDBRANCH   1   7
BRANCH   6  17
ATOM     17  C   UNL     1      33.247 -12.487 -22.908  0.00  0.00    +0.000 C 
ATOM     18  C   UNL     1      33.404 -13.018 -21.628  0.00  0.00    +0.001 C 
ATOM     19  C   UNL     1      33.280 -13.326 -24.022  0.00  0.00    +0.001 C 
ATOM     20  C   UNL     1      33.594 -14.391 -21.462  0.00  0.00    +0.017 C 
ATOM     21  C   UNL     1      33.470 -14.698 -23.855  0.00  0.00    +0.017 C 
ATOM     22  C   UNL     1      33.627 -15.230 -22.575  0.00  0.00    +0.077 C 
BRANCH  22  24
ATOM     23  O   UNL     1      33.028 -17.439 -24.475  0.00  0.00    -0.268 OA
ATOM     24  N   UNL     1      33.824 -16.650 -22.403  0.00  0.00    -0.155 N 
ATOM     25  N   UNL     1      34.401 -16.977 -21.198  0.00  0.00    -0.170 NA
ATOM     26  C   UNL     1      33.486 -17.625 -23.348  0.00  0.00    +0.272 C 
ATOM     27  C   UNL     1      33.720 -19.039 -22.960  0.00  0.00    +0.062 C 
ATOM     28  C   UNL     1      34.598 -18.222 -20.931  0.00  0.00    +0.118 C 
ATOM     29  C   UNL     1      34.261 -19.352 -21.788  0.00  0.00    +0.027 C 
ENDBRANCH  22  24
ENDBRANCH   6  17
TORSDOF 3
ENDMDL
MODEL 3
REMARK VINA RESULT:     -10.3      7.715     15.186
REMARK  Name = 24743471
REMARK  3 active torsions:
REMARK  status: ('A' for Active; 'I' for Inactive)
REMARK    1  A    between atoms: C_1  and  N_7
REMARK    2  A    between atoms: C_6  and  C_17
REMARK    3  A    between atoms: C_22  and  N_24
REMARK                            x       y       z     vdW  Elec       q    Type
REMARK                         _______ _______ _______ _____ _____    ______ ____
ROOT
ATOM      1  C   UNL     1      32.625  -8.232 -23.481  0.00  0.00    +0.048 C 
ATOM      2  C   UNL     1      31.916  -8.957 -22.524  0.00  0.00    +0.015 C 
ATOM      3  C   UNL     1      33.504  -8.887 -24.344  0.00  0.00    +0.015 C 
ATOM      4  C   UNL     1      32.087 -10.339 -22.429  0.00  0.00    +0.001 C 
ATOM      5  C   UNL     1      33.674 -10.269 -24.248  0.00  0.00    +0.001 C 
ATOM      6  C   UNL     1      32.965 -10.994 -23.291  0.00  0.00    +0.000 C 
ENDROOT
BRANCH   1   7
ATOM      7  N   UNL     1      32.457  -6.864 -23.577  0.00  0.00    -0.311 N 
ATOM      8  N   UNL     1      29.943  -4.939 -22.105  0.00  0.00    +0.387 N 
ATOM      9  C   UNL     1      31.505  -4.694 -23.781  0.00  0.00    -0.003 C 
ATOM     10  C   UNL     1      31.161  -6.192 -23.708  0.00  0.00    +0.050 C 
ATOM     11  C   UNL     1      32.983  -4.637 -24.122  0.00  0.00    +0.021 C 
ATOM     12  C   UNL     1      31.135  -4.150 -22.408  0.00  0.00    -0.076 C 
ATOM     13  C   UNL     1      30.299  -6.320 -22.446  0.00  0.00    -0.057 C 
ATOM     14  C   UNL     1      33.562  -5.910 -23.512  0.00  0.00    +0.091 C 
ATOM     15  C   UNL     1      29.519  -4.799 -20.720  0.00  0.00    -0.101 C 
ATOM     16  H   UNL     1      29.137  -4.619 -22.644  0.00  0.00    -0.080 HD
ENDBRANCH   1   7
BRANCH   6  17
ATOM     17  C   UNL     1      33.142 -12.427 -23.192  0.00  0.00    +0.000 C 
ATOM     18  C   UNL     1      33.538 -12.998 -21.983  0.00  0.00    +0.001 C 
ATOM     19  C   UNL     1      32.917 -13.235 -24.306  0.00  0.00    +0.001 C 
ATOM     20  C   UNL     1      33.709 -14.380 -21.888  0.00  0.00    +0.017 C 
ATOM     21  C   UNL     1      33.087 -14.617 -24.211  0.00  0.00    +0.017 C 
ATOM     22  C   UNL     1      33.484 -15.188 -23.001  0.00  0.00    +0.077 C 
BRANCH  22  24
ATOM     23  O   UNL     1      34.536 -16.785 -20.722  0.00  0.00    -0.268 OA
ATOM     24  N   UNL     1      33.661 -16.618 -22.903  0.00  0.00    -0.155 N 
ATOM     25  N   UNL     1      33.240 -17.297 -24.023  0.00  0.00    -0.170 NA
ATOM     26  C   UNL     1      34.192 -17.285 -21.793  0.00  0.00    +0.272 C 
ATOM     27  C   UNL     1      34.340 -18.757 -21.907  0.00  0.00    +0.062 C 
ATOM     28  C   UNL     1      33.376 -18.578 -24.050  0.00  0.00    +0.118 C 
ATOM     29  C   UNL     1      33.948 -19.408 -22.997  0.00  0.00    +0.027 C 
ENDBRANCH  22  24
ENDBRANCH   6  17
TORSDOF 3
ENDMDL
MODEL 4
REMARK VINA RESULT:     -10.2      1.095      2.093
REMARK  Name = 24743471
REMARK  3 active torsions:
REMARK  status: ('A' for Active; 'I' for Inactive)
REMARK    1  A    between atoms: C_1  and  N_7
REMARK    2  A    between atoms: C_6  and  C_17
REMARK    3  A    between atoms: C_22  and  N_24
REMARK                            x       y       z     vdW  Elec       q    Type
REMARK                         _______ _______ _______ _____ _____    ______ ____
ROOT
ATOM      1  C   UNL     1      35.704 -23.419 -14.894  0.00  0.00    +0.048 C 
ATOM      2  C   UNL     1      36.722 -22.647 -15.453  0.00  0.00    +0.015 C 
ATOM      3  C   UNL     1      34.419 -23.377 -15.436  0.00  0.00    +0.015 C 
ATOM      4  C   UNL     1      36.456 -21.832 -16.554  0.00  0.00    +0.001 C 
ATOM      5  C   UNL     1      34.153 -22.562 -16.538  0.00  0.00    +0.001 C 
ATOM      6  C   UNL     1      35.172 -21.790 -17.095  0.00  0.00    +0.000 C 
ENDROOT
BRANCH   1   7
ATOM      7  N   UNL     1      35.966 -24.227 -13.805  0.00  0.00    -0.311 N 
ATOM      8  N   UNL     1      36.312 -23.234 -10.476  0.00  0.00    +0.387 N 
ATOM      9  C   UNL     1      36.815 -25.083 -11.755  0.00  0.00    -0.003 C 
ATOM     10  C   UNL     1      36.854 -23.866 -12.696  0.00  0.00    +0.050 C 
ATOM     11  C   UNL     1      36.257 -26.221 -12.592  0.00  0.00    +0.021 C 
ATOM     12  C   UNL     1      35.933 -24.641 -10.595  0.00  0.00    -0.076 C 
ATOM     13  C   UNL     1      36.300 -22.715 -11.847  0.00  0.00    -0.057 C 
ATOM     14  C   UNL     1      35.346 -25.535 -13.604  0.00  0.00    +0.091 C 
ATOM     15  C   UNL     1      35.426 -22.491  -9.592  0.00  0.00    -0.101 C 
ATOM     16  H   UNL     1      37.233 -23.130 -10.046  0.00  0.00    -0.080 HD
ENDBRANCH   1   7
BRANCH   6  17
ATOM     17  C   UNL     1      34.895 -20.945 -18.237  0.00  0.00    +0.000 C 
ATOM     18  C   UNL     1      33.599 -20.865 -18.746  0.00  0.00    +0.001 C 
ATOM     19  C   UNL     1      35.924 -20.212 -18.828  0.00  0.00    +0.001 C 
ATOM     20  C   UNL     1      33.331 -20.050 -19.847  0.00  0.00    +0.017 C 
ATOM     21  C   UNL     1      35.656 -19.397 -19.929  0.00  0.00    +0.017 C 
ATOM     22  C   UNL     1      34.360 -19.317 -20.438  0.00  0.00    +0.077 C 
BRANCH  22  24
ATOM     23  O   UNL     1      34.420 -16.348 -20.620  0.00  0.00    -0.268 OA
ATOM     24  N   UNL     1      34.083 -18.474 -21.577  0.00  0.00    -0.155 N 
ATOM     25  N   UNL     1      33.792 -19.182 -22.720  0.00  0.00    -0.170 NA
ATOM     26  C   UNL     1      34.110 -17.075 -21.563  0.00  0.00    +0.272 C 
ATOM     27  C   UNL     1      33.744 -16.388 -22.828  0.00  0.00    +0.062 C 
ATOM     28  C   UNL     1      33.504 -18.526 -23.791  0.00  0.00    +0.118 C 
ATOM     29  C   UNL     1      33.446 -17.075 -23.925  0.00  0.00    +0.027 C 
ENDBRANCH  22  24
ENDBRANCH   6  17
TORSDOF 3
ENDMDL
MODEL 5
REMARK VINA RESULT:     -10.1      7.620     15.179
REMARK  Name = 24743471
REMARK  3 active torsions:
REMARK  status: ('A' for Active; 'I' for Inactive)
REMARK    1  A    between atoms: C_1  and  N_7
REMARK    2  A    between atoms: C_6  and  C_17
REMARK    3  A    between atoms: C_22  and  N_24
REMARK                            x       y       z     vdW  Elec       q    Type
REMARK                         _______ _______ _______ _____ _____    ______ ____
ROOT
ATOM      1  C   UNL     1      32.121  -8.456 -23.215  0.00  0.00    +0.048 C 
ATOM      2  C   UNL     1      32.886  -9.118 -24.176  0.00  0.00    +0.015 C 
ATOM      3  C   UNL     1      31.648  -9.150 -22.101  0.00  0.00    +0.015 C 
ATOM      4  C   UNL     1      33.177 -10.474 -24.022  0.00  0.00    +0.001 C 
ATOM      5  C   UNL     1      31.941 -10.505 -21.948  0.00  0.00    +0.001 C 
ATOM      6  C   UNL     1      32.705 -11.166 -22.909  0.00  0.00    +0.000 C 
ENDROOT
BRANCH   1   7
ATOM      7  N   UNL     1      31.833  -7.114 -23.365  0.00  0.00    -0.311 N 
ATOM      8  N   UNL     1      33.901  -4.649 -24.722  0.00  0.00    +0.387 N 
ATOM      9  C   UNL     1      31.995  -4.742 -23.432  0.00  0.00    -0.003 C 
ATOM     10  C   UNL     1      32.790  -6.026 -23.143  0.00  0.00    +0.050 C 
ATOM     11  C   UNL     1      30.534  -5.153 -23.377  0.00  0.00    +0.021 C 
ATOM     12  C   UNL     1      32.488  -4.285 -24.798  0.00  0.00    -0.076 C 
ATOM     13  C   UNL     1      33.919  -6.013 -24.182  0.00  0.00    -0.057 C 
ATOM     14  C   UNL     1      30.535  -6.614 -23.814  0.00  0.00    +0.091 C 
ATOM     15  C   UNL     1      34.572  -4.552 -26.009  0.00  0.00    -0.101 C 
ATOM     16  H   UNL     1      34.421  -4.005 -24.124  0.00  0.00    -0.080 HD
ENDBRANCH   1   7
BRANCH   6  17
ATOM     17  C   UNL     1      33.007 -12.573 -22.749  0.00  0.00    +0.000 C 
ATOM     18  C   UNL     1      32.915 -13.434 -23.843  0.00  0.00    +0.001 C 
ATOM     19  C   UNL     1      33.390 -13.067 -21.502  0.00  0.00    +0.001 C 
ATOM     20  C   UNL     1      33.206 -14.789 -23.690  0.00  0.00    +0.017 C 
ATOM     21  C   UNL     1      33.681 -14.423 -21.349  0.00  0.00    +0.017 C 
ATOM     22  C   UNL     1      33.589 -15.283 -22.443  0.00  0.00    +0.077 C 
BRANCH  22  24
ATOM     23  O   UNL     1      33.394 -17.472 -24.450  0.00  0.00    -0.268 OA
ATOM     24  N   UNL     1      33.890 -16.687 -22.285  0.00  0.00    -0.155 N 
ATOM     25  N   UNL     1      34.362 -17.004 -21.032  0.00  0.00    -0.170 NA
ATOM     26  C   UNL     1      33.743 -17.655 -23.284  0.00  0.00    +0.272 C 
ATOM     27  C   UNL     1      34.058 -19.056 -22.907  0.00  0.00    +0.062 C 
ATOM     28  C   UNL     1      34.638 -18.236 -20.775  0.00  0.00    +0.118 C 
ATOM     29  C   UNL     1      34.496 -19.361 -21.690  0.00  0.00    +0.027 C 
ENDBRANCH  22  24
ENDBRANCH   6  17
TORSDOF 3
ENDMDL
MODEL 6
REMARK VINA RESULT:      -9.9      7.615     15.130
REMARK  Name = 24743471
REMARK  3 active torsions:
REMARK  status: ('A' for Active; 'I' for Inactive)
REMARK    1  A    between atoms: C_1  and  N_7
REMARK    2  A    between atoms: C_6  and  C_17
REMARK    3  A    between atoms: C_22  and  N_24
REMARK                            x       y       z     vdW  Elec       q    Type
REMARK                         _______ _______ _______ _____ _____    ______ ____
ROOT
ATOM      1  C   UNL     1      32.071  -8.430 -23.114  0.00  0.00    +0.048 C 
ATOM      2  C   UNL     1      32.780  -9.073 -24.128  0.00  0.00    +0.015 C 
ATOM      3  C   UNL     1      31.642  -9.150 -21.999  0.00  0.00    +0.015 C 
ATOM      4  C   UNL     1      33.061 -10.436 -24.027  0.00  0.00    +0.001 C 
ATOM      5  C   UNL     1      31.923 -10.513 -21.898  0.00  0.00    +0.001 C 
ATOM      6  C   UNL     1      32.633 -11.155 -22.913  0.00  0.00    +0.000 C 
ENDROOT
BRANCH   1   7
ATOM      7  N   UNL     1      31.793  -7.081 -23.212  0.00  0.00    -0.311 N 
ATOM      8  N   UNL     1      33.803  -4.611 -24.644  0.00  0.00    +0.387 N 
ATOM      9  C   UNL     1      31.985  -4.711 -23.232  0.00  0.00    -0.003 C 
ATOM     10  C   UNL     1      32.779  -6.013 -23.029  0.00  0.00    +0.050 C 
ATOM     11  C   UNL     1      30.525  -5.103 -23.090  0.00  0.00    +0.021 C 
ATOM     12  C   UNL     1      32.393  -4.227 -24.617  0.00  0.00    -0.076 C 
ATOM     13  C   UNL     1      33.836  -5.988 -24.139  0.00  0.00    -0.057 C 
ATOM     14  C   UNL     1      30.475  -6.553 -23.562  0.00  0.00    +0.091 C 
ATOM     15  C   UNL     1      34.388  -4.491 -25.971  0.00  0.00    -0.101 C 
ATOM     16  H   UNL     1      34.371  -3.989 -24.067  0.00  0.00    -0.080 HD
ENDBRANCH   1   7
BRANCH   6  17
ATOM     17  C   UNL     1      32.924 -12.569 -22.808  0.00  0.00    +0.000 C 
ATOM     18  C   UNL     1      33.261 -13.120 -21.571  0.00  0.00    +0.001 C 
ATOM     19  C   UNL     1      32.869 -13.379 -23.941  0.00  0.00    +0.001 C 
ATOM     20  C   UNL     1      33.541 -14.483 -21.469  0.00  0.00    +0.017 C 
ATOM     21  C   UNL     1      33.150 -14.742 -23.839  0.00  0.00    +0.017 C 
ATOM     22  C   UNL     1      33.486 -15.293 -22.603  0.00  0.00    +0.077 C 
BRANCH  22  24
ATOM     23  O   UNL     1      34.482 -16.821 -20.252  0.00  0.00    -0.268 OA
ATOM     24  N   UNL     1      33.777 -16.704 -22.497  0.00  0.00    -0.155 N 
ATOM     25  N   UNL     1      33.509 -17.402 -23.651  0.00  0.00    -0.170 NA
ATOM     26  C   UNL     1      34.270 -17.336 -21.350  0.00  0.00    +0.272 C 
ATOM     27  C   UNL     1      34.554 -18.789 -21.459  0.00  0.00    +0.062 C 
ATOM     28  C   UNL     1      33.757 -18.666 -23.674  0.00  0.00    +0.118 C 
ATOM     29  C   UNL     1      34.311 -19.457 -22.581  0.00  0.00    +0.027 C 
ENDBRANCH  22  24
ENDBRANCH   6  17
TORSDOF 3
ENDMDL
MODEL 7
REMARK VINA RESULT:      -9.3      6.606     13.945
REMARK  Name = 24743471
REMARK  3 active torsions:
REMARK  status: ('A' for Active; 'I' for Inactive)
REMARK    1  A    between atoms: C_1  and  N_7
REMARK    2  A    between atoms: C_6  and  C_17
REMARK    3  A    between atoms: C_22  and  N_24
REMARK                            x       y       z     vdW  Elec       q    Type
REMARK                         _______ _______ _______ _____ _____    ______ ____
ROOT
ATOM      1  C   UNL     1      32.129 -10.060 -22.812  0.00  0.00    +0.048 C 
ATOM      2  C   UNL     1      31.543 -10.676 -21.707  0.00  0.00    +0.015 C 
ATOM      3  C   UNL     1      33.107 -10.731 -23.548  0.00  0.00    +0.015 C 
ATOM      4  C   UNL     1      31.935 -11.963 -21.337  0.00  0.00    +0.001 C 
ATOM      5  C   UNL     1      33.497 -12.018 -23.178  0.00  0.00    +0.001 C 
ATOM      6  C   UNL     1      32.911 -12.633 -22.072  0.00  0.00    +0.000 C 
ENDROOT
BRANCH   1   7
ATOM      7  N   UNL     1      31.742  -8.786 -23.180  0.00  0.00    -0.311 N 
ATOM      8  N   UNL     1      30.807  -6.171 -21.065  0.00  0.00    +0.387 N 
ATOM      9  C   UNL     1      30.626  -6.690 -23.302  0.00  0.00    -0.003 C 
ATOM     10  C   UNL     1      30.668  -8.024 -22.537  0.00  0.00    +0.050 C 
ATOM     11  C   UNL     1      31.376  -6.945 -24.598  0.00  0.00    +0.021 C 
ATOM     12  C   UNL     1      31.281  -5.688 -22.361  0.00  0.00    -0.076 C 
ATOM     13  C   UNL     1      31.010  -7.623 -21.097  0.00  0.00    -0.057 C 
ATOM     14  C   UNL     1      32.397  -8.019 -24.238  0.00  0.00    +0.091 C 
ATOM     15  C   UNL     1      31.494  -5.538 -19.950  0.00  0.00    -0.101 C 
ATOM     16  H   UNL     1      29.825  -5.935 -20.915  0.00  0.00    -0.080 HD
ENDBRANCH   1   7
BRANCH   6  17
ATOM     17  C   UNL     1      33.317 -13.968 -21.688  0.00  0.00    +0.000 C 
ATOM     18  C   UNL     1      33.730 -14.878 -22.663  0.00  0.00    +0.001 C 
ATOM     19  C   UNL     1      33.295 -14.346 -20.346  0.00  0.00    +0.001 C 
ATOM     20  C   UNL     1      34.122 -16.165 -22.294  0.00  0.00    +0.017 C 
ATOM     21  C   UNL     1      33.687 -15.633 -19.977  0.00  0.00    +0.017 C 
ATOM     22  C   UNL     1      34.099 -16.542 -20.951  0.00  0.00    +0.077 C 
BRANCH  22  24
ATOM     23  O   UNL     1      32.575 -19.089 -21.163  0.00  0.00    -0.268 OA
ATOM     24  N   UNL     1      34.505 -17.875 -20.569  0.00  0.00    -0.155 N 
ATOM     25  N   UNL     1      35.789 -17.933 -20.080  0.00  0.00    -0.170 NA
ATOM     26  C   UNL     1      33.706 -19.018 -20.682  0.00  0.00    +0.272 C 
ATOM     27  C   UNL     1      34.288 -20.290 -20.185  0.00  0.00    +0.062 C 
ATOM     28  C   UNL     1      36.243 -19.072 -19.685  0.00  0.00    +0.118 C 
ATOM     29  C   UNL     1      35.522 -20.340 -19.697  0.00  0.00    +0.027 C 
ENDBRANCH  22  24
ENDBRANCH   6  17
TORSDOF 3
ENDMDL
MODEL 8
REMARK VINA RESULT:      -9.1      6.909     11.514
REMARK  Name = 24743471
REMARK  3 active torsions:
REMARK  status: ('A' for Active; 'I' for Inactive)
REMARK    1  A    between atoms: C_1  and  N_7
REMARK    2  A    between atoms: C_6  and  C_17
REMARK    3  A    between atoms: C_22  and  N_24
REMARK                            x       y       z     vdW  Elec       q    Type
REMARK                         _______ _______ _______ _____ _____    ______ ____
ROOT
ATOM      1  C   UNL     1      33.301 -15.302 -22.621  0.00  0.00    +0.048 C 
ATOM      2  C   UNL     1      33.494 -14.770 -21.346  0.00  0.00    +0.015 C 
ATOM      3  C   UNL     1      32.703 -14.529 -23.616  0.00  0.00    +0.015 C 
ATOM      4  C   UNL     1      33.088 -13.464 -21.067  0.00  0.00    +0.001 C 
ATOM      5  C   UNL     1      32.298 -13.224 -23.337  0.00  0.00    +0.001 C 
ATOM      6  C   UNL     1      32.491 -12.692 -22.062  0.00  0.00    +0.000 C 
ENDROOT
BRANCH   1   7
ATOM      7  N   UNL     1      33.703 -16.594 -22.899  0.00  0.00    -0.311 N 
ATOM      8  N   UNL     1      34.201 -19.187 -20.615  0.00  0.00    +0.387 N 
ATOM      9  C   UNL     1      34.759 -18.723 -22.801  0.00  0.00    -0.003 C 
ATOM     10  C   UNL     1      34.634 -17.371 -22.076  0.00  0.00    +0.050 C 
ATOM     11  C   UNL     1      34.237 -18.475 -24.206  0.00  0.00    +0.021 C 
ATOM     12  C   UNL     1      33.929 -19.685 -21.962  0.00  0.00    -0.076 C 
ATOM     13  C   UNL     1      34.051 -17.731 -20.704  0.00  0.00    -0.057 C 
ATOM     14  C   UNL     1      33.206 -17.365 -24.036  0.00  0.00    +0.091 C 
ATOM     15  C   UNL     1      33.322 -19.777 -19.616  0.00  0.00    -0.101 C 
ATOM     16  H   UNL     1      35.138 -19.447 -20.303  0.00  0.00    -0.080 HD
ENDBRANCH   1   7
BRANCH   6  17
ATOM     17  C   UNL     1      32.070 -11.338 -21.772  0.00  0.00    +0.000 C 
ATOM     18  C   UNL     1      32.519 -10.284 -22.568  0.00  0.00    +0.001 C 
ATOM     19  C   UNL     1      31.217 -11.087 -20.698  0.00  0.00    +0.001 C 
ATOM     20  C   UNL     1      32.114  -8.978 -22.290  0.00  0.00    +0.017 C 
ATOM     21  C   UNL     1      30.811  -9.782 -20.420  0.00  0.00    +0.017 C 
ATOM     22  C   UNL     1      31.261  -8.728 -21.216  0.00  0.00    +0.077 C 
BRANCH  22  24
ATOM     23  O   UNL     1      31.939  -7.023 -18.873  0.00  0.00    -0.268 OA
ATOM     24  N   UNL     1      30.841  -7.376 -20.928  0.00  0.00    -0.155 N 
ATOM     25  N   UNL     1      30.052  -6.830 -21.913  0.00  0.00    -0.170 NA
ATOM     26  C   UNL     1      31.191  -6.657 -19.779  0.00  0.00    +0.272 C 
ATOM     27  C   UNL     1      30.614  -5.295 -19.644  0.00  0.00    +0.062 C 
ATOM     28  C   UNL     1      29.601  -5.635 -21.745  0.00  0.00    +0.118 C 
ATOM     29  C   UNL     1      29.838  -4.777 -20.590  0.00  0.00    +0.027 C 
ENDBRANCH  22  24
ENDBRANCH   6  17
TORSDOF 3
ENDMDL
MODEL 9
REMARK VINA RESULT:      -8.9      6.926     11.560
REMARK  Name = 24743471
REMARK  3 active torsions:
REMARK  status: ('A' for Active; 'I' for Inactive)
REMARK    1  A    between atoms: C_1  and  N_7
REMARK    2  A    between atoms: C_6  and  C_17
REMARK    3  A    between atoms: C_22  and  N_24
REMARK                            x       y       z     vdW  Elec       q    Type
REMARK                         _______ _______ _______ _____ _____    ______ ____
ROOT
ATOM      1  C   UNL     1      33.313 -15.322 -22.606  0.00  0.00    +0.048 C 
ATOM      2  C   UNL     1      33.458 -14.793 -21.324  0.00  0.00    +0.015 C 
ATOM      3  C   UNL     1      32.746 -14.549 -23.620  0.00  0.00    +0.015 C 
ATOM      4  C   UNL     1      33.035 -13.491 -21.055  0.00  0.00    +0.001 C 
ATOM      5  C   UNL     1      32.324 -13.247 -23.350  0.00  0.00    +0.001 C 
ATOM      6  C   UNL     1      32.468 -12.719 -22.067  0.00  0.00    +0.000 C 
ENDROOT
BRANCH   1   7
ATOM      7  N   UNL     1      33.732 -16.611 -22.874  0.00  0.00    -0.311 N 
ATOM      8  N   UNL     1      34.167 -19.208 -20.581  0.00  0.00    +0.387 N 
ATOM      9  C   UNL     1      34.797 -18.733 -22.746  0.00  0.00    -0.003 C 
ATOM     10  C   UNL     1      34.640 -17.385 -22.022  0.00  0.00    +0.050 C 
ATOM     11  C   UNL     1      34.322 -18.485 -24.167  0.00  0.00    +0.021 C 
ATOM     12  C   UNL     1      33.945 -19.703 -21.938  0.00  0.00    -0.076 C 
ATOM     13  C   UNL     1      34.012 -17.753 -20.672  0.00  0.00    -0.057 C 
ATOM     14  C   UNL     1      33.279 -17.382 -24.029  0.00  0.00    +0.091 C 
ATOM     15  C   UNL     1      33.259 -19.805 -19.614  0.00  0.00    -0.101 C 
ATOM     16  H   UNL     1      35.095 -19.463 -20.238  0.00  0.00    -0.080 HD
ENDBRANCH   1   7
BRANCH   6  17
ATOM     17  C   UNL     1      32.029 -11.368 -21.789  0.00  0.00    +0.000 C 
ATOM     18  C   UNL     1      31.136 -11.128 -20.744  0.00  0.00    +0.001 C 
ATOM     19  C   UNL     1      32.498 -10.309 -22.565  0.00  0.00    +0.001 C 
ATOM     20  C   UNL     1      30.713  -9.826 -20.475  0.00  0.00    +0.017 C 
ATOM     21  C   UNL     1      32.075  -9.007 -22.296  0.00  0.00    +0.017 C 
ATOM     22  C   UNL     1      31.182  -8.766 -21.251  0.00  0.00    +0.077 C 
BRANCH  22  24
ATOM     23  O   UNL     1      29.735  -6.870 -23.030  0.00  0.00    -0.268 OA
ATOM     24  N   UNL     1      30.743  -7.418 -20.973  0.00  0.00    -0.155 N 
ATOM     25  N   UNL     1      31.021  -7.010 -19.689  0.00  0.00    -0.170 NA
ATOM     26  C   UNL     1      30.088  -6.585 -21.886  0.00  0.00    +0.272 C 
ATOM     27  C   UNL     1      29.764  -5.212 -21.423  0.00  0.00    +0.062 C 
ATOM     28  C   UNL     1      30.695  -5.813 -19.343  0.00  0.00    +0.118 C 
ATOM     29  C   UNL     1      30.050  -4.815 -20.188  0.00  0.00    +0.027 C 
ENDBRANCH  22  24
ENDBRANCH   6  17
TORSDOF 3
ENDMDL
