MODEL 1
REMARK VINA RESULT:     -12.1      0.000      0.000
REMARK  Name = 208951
REMARK  4 active torsions:
REMARK  status: ('A' for Active; 'I' for Inactive)
REMARK    1  A    between atoms: N_1  and  C_19
REMARK    2  A    between atoms: N_2  and  C_11
REMARK    3  A    between atoms: C_19  and  C_20
REMARK    4  A    between atoms: C_23  and  C_26
REMARK                            x       y       z     vdW  Elec       q    Type
REMARK                         _______ _______ _______ _____ _____    ______ ____
ROOT
ATOM      1  N   UNL     1      33.657 -15.939 -23.390  0.00  0.00    +0.392 N 
ATOM      2  N   UNL     1      33.084 -13.145 -23.235  0.00  0.00    -0.309 N 
ATOM      3  C   UNL     1      33.480 -15.288 -22.087  0.00  0.00    -0.055 C 
ATOM      4  C   UNL     1      32.788 -15.304 -24.388  0.00  0.00    -0.055 C 
ATOM      5  C   UNL     1      33.836 -13.802 -22.161  0.00  0.00    +0.068 C 
ATOM      6  C   UNL     1      33.123 -13.817 -24.540  0.00  0.00    +0.068 C 
ATOM      7  H   UNL     1      34.628 -15.832 -23.683  0.00  0.00    -0.079 HD
ENDROOT
BRANCH   2  11
ATOM      8  O   UNL     1      31.406 -11.736 -21.267  0.00  0.00    -0.406 OA
ATOM      9  O   UNL     1      30.050 -10.796 -19.647  0.00  0.00    -0.223 OA
ATOM     10  N   UNL     1      31.121  -9.456 -21.225  0.00  0.00    -0.287 N 
ATOM     11  C   UNL     1      32.915 -11.756 -23.217  0.00  0.00    +0.084 C 
ATOM     12  C   UNL     1      32.119 -11.111 -22.279  0.00  0.00    +0.179 A 
ATOM     13  C   UNL     1      33.552 -10.921 -24.158  0.00  0.00    +0.018 C 
ATOM     14  C   UNL     1      31.961  -9.742 -22.269  0.00  0.00    +0.098 A 
ATOM     15  C   UNL     1      33.382  -9.522 -24.139  0.00  0.00    +0.003 C 
ATOM     16  C   UNL     1      32.573  -8.912 -23.179  0.00  0.00    +0.020 C 
ATOM     17  C   UNL     1      30.784 -10.654 -20.617  0.00  0.00    +0.419 A 
ATOM     18  H   UNL     1      30.814  -8.561 -20.955  0.00  0.00    +0.172 HD
ENDBRANCH   2  11
BRANCH   1  19
ATOM     19  C   UNL     1      33.365 -17.369 -23.293  0.00  0.00    -0.050 C 
BRANCH  19  20
ATOM     20  C   UNL     1      34.201 -18.021 -22.226  0.00  0.00    -0.043 C 
ATOM     21  C   UNL     1      33.605 -18.900 -21.331  0.00  0.00    -0.006 C 
ATOM     22  C   UNL     1      35.558 -17.737 -22.150  0.00  0.00    -0.006 C 
ATOM     23  C   UNL     1      34.381 -19.506 -20.342  0.00  0.00    -0.000 C 
ATOM     24  C   UNL     1      36.333 -18.342 -21.162  0.00  0.00    -0.000 C 
ATOM     25  C   UNL     1      35.745 -19.226 -20.258  0.00  0.00    -0.000 C 
BRANCH  23  26
ATOM     26  C   UNL     1      33.771 -20.425 -19.405  0.00  0.00    -0.000 C 
ATOM     27  C   UNL     1      32.383 -20.484 -19.289  0.00  0.00    -0.000 C 
ATOM     28  C   UNL     1      34.573 -21.252 -18.617  0.00  0.00    -0.000 C 
ATOM     29  C   UNL     1      31.795 -21.370 -18.387  0.00  0.00    -0.000 C 
ATOM     30  C   UNL     1      33.985 -22.137 -17.714  0.00  0.00    -0.000 C 
ATOM     31  C   UNL     1      32.596 -22.197 -17.599  0.00  0.00    +0.000 C 
ENDBRANCH  23  26
ENDBRANCH  19  20
ENDBRANCH   1  19
TORSDOF 4
ENDMDL
MODEL 2
REMARK VINA RESULT:     -11.9      1.382      2.343
REMARK  Name = 208951
REMARK  4 active torsions:
REMARK  status: ('A' for Active; 'I' for Inactive)
REMARK    1  A    between atoms: N_1  and  C_19
REMARK    2  A    between atoms: N_2  and  C_11
REMARK    3  A    between atoms: C_19  and  C_20
REMARK    4  A    between atoms: C_23  and  C_26
REMARK                            x       y       z     vdW  Elec       q    Type
REMARK                         _______ _______ _______ _____ _____    ______ ____
ROOT
ATOM      1  N   UNL     1      33.849 -16.110 -23.196  0.00  0.00    +0.392 N 
ATOM      2  N   UNL     1      32.661 -13.652 -22.355  0.00  0.00    -0.309 N 
ATOM      3  C   UNL     1      33.794 -15.760 -21.771  0.00  0.00    -0.055 C 
ATOM      4  C   UNL     1      32.664 -15.584 -23.885  0.00  0.00    -0.055 C 
ATOM      5  C   UNL     1      33.756 -14.242 -21.579  0.00  0.00    +0.068 C 
ATOM      6  C   UNL     1      32.590 -14.060 -23.764  0.00  0.00    +0.068 C 
ATOM      7  H   UNL     1      34.683 -15.689 -23.606  0.00  0.00    -0.079 HD
ENDROOT
BRANCH   2  11
ATOM      8  O   UNL     1      33.609 -11.148 -23.582  0.00  0.00    -0.406 OA
ATOM      9  O   UNL     1      34.468  -9.284 -24.650  0.00  0.00    -0.223 OA
ATOM     10  N   UNL     1      32.807  -9.066 -23.029  0.00  0.00    -0.287 N 
ATOM     11  C   UNL     1      32.169 -12.388 -22.012  0.00  0.00    +0.084 C 
ATOM     12  C   UNL     1      32.630 -11.218 -22.604  0.00  0.00    +0.179 A 
ATOM     13  C   UNL     1      31.164 -12.226 -21.036  0.00  0.00    +0.018 C 
ATOM     14  C   UNL     1      32.136  -9.979 -22.258  0.00  0.00    +0.098 A 
ATOM     15  C   UNL     1      30.667 -10.953 -20.690  0.00  0.00    +0.003 C 
ATOM     16  C   UNL     1      31.156  -9.801 -21.309  0.00  0.00    +0.020 C 
ATOM     17  C   UNL     1      33.696  -9.765 -23.829  0.00  0.00    +0.419 A 
ATOM     18  H   UNL     1      32.680  -8.090 -23.016  0.00  0.00    +0.172 HD
ENDBRANCH   2  11
BRANCH   1  19
ATOM     19  C   UNL     1      33.939 -17.559 -23.364  0.00  0.00    -0.050 C 
BRANCH  19  20
ATOM     20  C   UNL     1      34.622 -18.201 -22.187  0.00  0.00    -0.043 C 
ATOM     21  C   UNL     1      33.893 -19.024 -21.338  0.00  0.00    -0.006 C 
ATOM     22  C   UNL     1      35.972 -17.962 -21.965  0.00  0.00    -0.006 C 
ATOM     23  C   UNL     1      34.528 -19.619 -20.247  0.00  0.00    -0.000 C 
ATOM     24  C   UNL     1      36.605 -18.557 -20.875  0.00  0.00    -0.000 C 
ATOM     25  C   UNL     1      35.883 -19.385 -20.016  0.00  0.00    -0.000 C 
BRANCH  23  26
ATOM     26  C   UNL     1      33.780 -20.479 -19.356  0.00  0.00    -0.000 C 
ATOM     27  C   UNL     1      34.452 -21.367 -18.516  0.00  0.00    -0.000 C 
ATOM     28  C   UNL     1      32.386 -20.421 -19.336  0.00  0.00    -0.000 C 
ATOM     29  C   UNL     1      33.731 -22.197 -17.657  0.00  0.00    -0.000 C 
ATOM     30  C   UNL     1      31.665 -21.250 -18.478  0.00  0.00    -0.000 C 
ATOM     31  C   UNL     1      32.338 -22.138 -17.638  0.00  0.00    +0.000 C 
ENDBRANCH  23  26
ENDBRANCH  19  20
ENDBRANCH   1  19
TORSDOF 4
ENDMDL
MODEL 3
REMARK VINA RESULT:     -11.5      1.729      3.147
REMARK  Name = 208951
REMARK  4 active torsions:
REMARK  status: ('A' for Active; 'I' for Inactive)
REMARK    1  A    between atoms: N_1  and  C_19
REMARK    2  A    between atoms: N_2  and  C_11
REMARK    3  A    between atoms: C_19  and  C_20
REMARK    4  A    between atoms: C_23  and  C_26
REMARK                            x       y       z     vdW  Elec       q    Type
REMARK                         _______ _______ _______ _____ _____    ______ ____
ROOT
ATOM      1  N   UNL     1      33.368 -14.412 -22.175  0.00  0.00    +0.392 N 
ATOM      2  N   UNL     1      32.225 -12.094 -20.959  0.00  0.00    -0.309 N 
ATOM      3  C   UNL     1      33.401 -13.117 -22.865  0.00  0.00    -0.055 C 
ATOM      4  C   UNL     1      33.471 -14.208 -20.726  0.00  0.00    -0.055 C 
ATOM      5  C   UNL     1      32.241 -12.225 -22.419  0.00  0.00    +0.068 C 
ATOM      6  C   UNL     1      32.311 -13.353 -20.207  0.00  0.00    +0.068 C 
ATOM      7  H   UNL     1      32.480 -14.872 -22.381  0.00  0.00    -0.079 HD
ENDROOT
BRANCH   2  11
ATOM      8  O   UNL     1      31.768  -9.515 -22.306  0.00  0.00    -0.406 OA
ATOM      9  O   UNL     1      31.498  -7.560 -23.512  0.00  0.00    -0.223 OA
ATOM     10  N   UNL     1      30.666  -7.743 -21.343  0.00  0.00    -0.287 N 
ATOM     11  C   UNL     1      31.553 -11.019 -20.364  0.00  0.00    +0.084 C 
ATOM     12  C   UNL     1      31.349  -9.811 -21.019  0.00  0.00    +0.179 A 
ATOM     13  C   UNL     1      31.039 -11.102 -19.054  0.00  0.00    +0.018 C 
ATOM     14  C   UNL     1      30.685  -8.760 -20.424  0.00  0.00    +0.098 A 
ATOM     15  C   UNL     1      30.362 -10.020 -18.456  0.00  0.00    +0.003 C 
ATOM     16  C   UNL     1      30.176  -8.821 -19.147  0.00  0.00    +0.020 C 
ATOM     17  C   UNL     1      31.318  -8.193 -22.479  0.00  0.00    +0.419 A 
ATOM     18  H   UNL     1      30.263  -6.855 -21.218  0.00  0.00    +0.172 HD
ENDBRANCH   2  11
BRANCH   1  19
ATOM     19  C   UNL     1      34.448 -15.274 -22.650  0.00  0.00    -0.050 C 
BRANCH  19  20
ATOM     20  C   UNL     1      34.001 -16.709 -22.733  0.00  0.00    -0.043 C 
ATOM     21  C   UNL     1      34.118 -17.527 -21.617  0.00  0.00    -0.006 C 
ATOM     22  C   UNL     1      33.477 -17.194 -23.923  0.00  0.00    -0.006 C 
ATOM     23  C   UNL     1      33.701 -18.857 -21.695  0.00  0.00    -0.000 C 
ATOM     24  C   UNL     1      33.061 -18.523 -24.000  0.00  0.00    -0.000 C 
ATOM     25  C   UNL     1      33.174 -19.354 -22.887  0.00  0.00    -0.000 C 
BRANCH  23  26
ATOM     26  C   UNL     1      33.816 -19.720 -20.539  0.00  0.00    -0.000 C 
ATOM     27  C   UNL     1      32.668 -20.216 -19.922  0.00  0.00    -0.000 C 
ATOM     28  C   UNL     1      35.076 -20.055 -20.041  0.00  0.00    -0.000 C 
ATOM     29  C   UNL     1      32.779 -21.048 -18.808  0.00  0.00    -0.000 C 
ATOM     30  C   UNL     1      35.187 -20.887 -18.927  0.00  0.00    -0.000 C 
ATOM     31  C   UNL     1      34.038 -21.384 -18.311  0.00  0.00    +0.000 C 
ENDBRANCH  23  26
ENDBRANCH  19  20
ENDBRANCH   1  19
TORSDOF 4
ENDMDL
MODEL 4
REMARK VINA RESULT:     -11.4      6.678     12.220
REMARK  Name = 208951
REMARK  4 active torsions:
REMARK  status: ('A' for Active; 'I' for Inactive)
REMARK    1  A    between atoms: N_1  and  C_19
REMARK    2  A    between atoms: N_2  and  C_11
REMARK    3  A    between atoms: C_19  and  C_20
REMARK    4  A    between atoms: C_23  and  C_26
REMARK                            x       y       z     vdW  Elec       q    Type
REMARK                         _______ _______ _______ _____ _____    ______ ____
ROOT
ATOM      1  N   UNL     1      33.394 -21.919 -17.172  0.00  0.00    +0.392 N 
ATOM      2  N   UNL     1      34.216 -23.218 -14.765  0.00  0.00    -0.309 N 
ATOM      3  C   UNL     1      34.819 -22.109 -16.879  0.00  0.00    -0.055 C 
ATOM      4  C   UNL     1      32.619 -23.044 -16.634  0.00  0.00    -0.055 C 
ATOM      5  C   UNL     1      35.066 -22.189 -15.371  0.00  0.00    +0.068 C 
ATOM      6  C   UNL     1      32.791 -23.155 -15.117  0.00  0.00    +0.068 C 
ATOM      7  H   UNL     1      33.077 -21.058 -16.724  0.00  0.00    -0.079 HD
ENDROOT
BRANCH   2  11
ATOM      8  O   UNL     1      36.541 -24.977 -14.346  0.00  0.00    -0.406 OA
ATOM      9  O   UNL     1      38.404 -26.340 -14.199  0.00  0.00    -0.223 OA
ATOM     10  N   UNL     1      37.120 -25.874 -12.311  0.00  0.00    -0.287 N 
ATOM     11  C   UNL     1      34.561 -23.761 -13.521  0.00  0.00    +0.084 C 
ATOM     12  C   UNL     1      35.663 -24.589 -13.346  0.00  0.00    +0.179 A 
ATOM     13  C   UNL     1      33.803 -23.496 -12.363  0.00  0.00    +0.018 C 
ATOM     14  C   UNL     1      35.994 -25.117 -12.117  0.00  0.00    +0.098 A 
ATOM     15  C   UNL     1      34.151 -24.042 -11.110  0.00  0.00    +0.003 C 
ATOM     16  C   UNL     1      35.267 -24.870 -10.975  0.00  0.00    +0.020 C 
ATOM     17  C   UNL     1      37.454 -25.793 -13.653  0.00  0.00    +0.419 A 
ATOM     18  H   UNL     1      37.603 -26.382 -11.621  0.00  0.00    +0.172 HD
ENDBRANCH   2  11
BRANCH   1  19
ATOM     19  C   UNL     1      33.178 -21.790 -18.612  0.00  0.00    -0.050 C 
BRANCH  19  20
ATOM     20  C   UNL     1      34.130 -20.793 -19.215  0.00  0.00    -0.043 C 
ATOM     21  C   UNL     1      33.694 -19.965 -20.242  0.00  0.00    -0.006 C 
ATOM     22  C   UNL     1      35.431 -20.711 -18.737  0.00  0.00    -0.006 C 
ATOM     23  C   UNL     1      34.577 -19.040 -20.800  0.00  0.00    -0.000 C 
ATOM     24  C   UNL     1      36.312 -19.787 -19.295  0.00  0.00    -0.000 C 
ATOM     25  C   UNL     1      35.886 -18.951 -20.326  0.00  0.00    -0.000 C 
BRANCH  23  26
ATOM     26  C   UNL     1      34.134 -18.171 -21.869  0.00  0.00    -0.000 C 
ATOM     27  C   UNL     1      34.372 -16.799 -21.797  0.00  0.00    -0.000 C 
ATOM     28  C   UNL     1      33.470 -18.707 -22.974  0.00  0.00    -0.000 C 
ATOM     29  C   UNL     1      33.946 -15.962 -22.829  0.00  0.00    -0.000 C 
ATOM     30  C   UNL     1      33.043 -17.870 -24.004  0.00  0.00    -0.000 C 
ATOM     31  C   UNL     1      33.282 -16.497 -23.932  0.00  0.00    +0.000 C 
ENDBRANCH  23  26
ENDBRANCH  19  20
ENDBRANCH   1  19
TORSDOF 4
ENDMDL
MODEL 5
REMARK VINA RESULT:     -11.1      4.806     10.421
REMARK  Name = 208951
REMARK  4 active torsions:
REMARK  status: ('A' for Active; 'I' for Inactive)
REMARK    1  A    between atoms: N_1  and  C_19
REMARK    2  A    between atoms: N_2  and  C_11
REMARK    3  A    between atoms: C_19  and  C_20
REMARK    4  A    between atoms: C_23  and  C_26
REMARK                            x       y       z     vdW  Elec       q    Type
REMARK                         _______ _______ _______ _____ _____    ______ ____
ROOT
ATOM      1  N   UNL     1      34.883 -19.995 -20.205  0.00  0.00    +0.392 N 
ATOM      2  N   UNL     1      33.623 -21.311 -18.004  0.00  0.00    -0.309 N 
ATOM      3  C   UNL     1      33.512 -19.645 -19.816  0.00  0.00    -0.055 C 
ATOM      4  C   UNL     1      35.661 -20.362 -19.015  0.00  0.00    -0.055 C 
ATOM      5  C   UNL     1      32.817 -20.823 -19.128  0.00  0.00    +0.068 C 
ATOM      6  C   UNL     1      35.039 -21.565 -18.301  0.00  0.00    +0.068 C 
ATOM      7  H   UNL     1      34.852 -20.795 -20.838  0.00  0.00    -0.079 HD
ENDROOT
BRANCH   2  11
ATOM      8  O   UNL     1      35.123 -22.611 -15.829  0.00  0.00    -0.406 OA
ATOM      9  O   UNL     1      36.457 -23.562 -14.196  0.00  0.00    -0.223 OA
ATOM     10  N   UNL     1      34.144 -23.849 -14.158  0.00  0.00    -0.287 N 
ATOM     11  C   UNL     1      33.019 -22.064 -16.991  0.00  0.00    +0.084 C 
ATOM     12  C   UNL     1      33.746 -22.669 -15.974  0.00  0.00    +0.179 A 
ATOM     13  C   UNL     1      31.623 -22.253 -16.943  0.00  0.00    +0.018 C 
ATOM     14  C   UNL     1      33.141 -23.407 -14.980  0.00  0.00    +0.098 A 
ATOM     15  C   UNL     1      31.014 -23.011 -15.922  0.00  0.00    +0.003 C 
ATOM     16  C   UNL     1      31.780 -23.603 -14.916  0.00  0.00    +0.020 C 
ATOM     17  C   UNL     1      35.342 -23.371 -14.666  0.00  0.00    +0.419 A 
ATOM     18  H   UNL     1      34.034 -24.404 -13.354  0.00  0.00    +0.172 HD
ENDBRANCH   2  11
BRANCH   1  19
ATOM     19  C   UNL     1      35.517 -18.881 -20.908  0.00  0.00    -0.050 C 
BRANCH  19  20
ATOM     20  C   UNL     1      34.654 -18.394 -22.040  0.00  0.00    -0.043 C 
ATOM     21  C   UNL     1      34.422 -17.032 -22.187  0.00  0.00    -0.006 C 
ATOM     22  C   UNL     1      34.101 -19.311 -22.924  0.00  0.00    -0.006 C 
ATOM     23  C   UNL     1      33.622 -16.581 -23.237  0.00  0.00    -0.000 C 
ATOM     24  C   UNL     1      33.302 -18.859 -23.973  0.00  0.00    -0.000 C 
ATOM     25  C   UNL     1      33.062 -17.495 -24.130  0.00  0.00    -0.000 C 
BRANCH  23  26
ATOM     26  C   UNL     1      33.375 -15.164 -23.401  0.00  0.00    -0.000 C 
ATOM     27  C   UNL     1      33.747 -14.270 -22.398  0.00  0.00    -0.000 C 
ATOM     28  C   UNL     1      32.765 -14.693 -24.565  0.00  0.00    -0.000 C 
ATOM     29  C   UNL     1      33.509 -12.905 -22.556  0.00  0.00    -0.000 C 
ATOM     30  C   UNL     1      32.526 -13.328 -24.722  0.00  0.00    -0.000 C 
ATOM     31  C   UNL     1      32.899 -12.434 -23.718  0.00  0.00    +0.000 C 
ENDBRANCH  23  26
ENDBRANCH  19  20
ENDBRANCH   1  19
TORSDOF 4
ENDMDL
MODEL 6
REMARK VINA RESULT:     -10.8      2.641      4.575
REMARK  Name = 208951
REMARK  4 active torsions:
REMARK  status: ('A' for Active; 'I' for Inactive)
REMARK    1  A    between atoms: N_1  and  C_19
REMARK    2  A    between atoms: N_2  and  C_11
REMARK    3  A    between atoms: C_19  and  C_20
REMARK    4  A    between atoms: C_23  and  C_26
REMARK                            x       y       z     vdW  Elec       q    Type
REMARK                         _______ _______ _______ _____ _____    ______ ____
ROOT
ATOM      1  N   UNL     1      34.356 -18.404 -21.009  0.00  0.00    +0.392 N 
ATOM      2  N   UNL     1      33.843 -15.930 -22.340  0.00  0.00    -0.309 N 
ATOM      3  C   UNL     1      34.595 -18.272 -22.452  0.00  0.00    -0.055 C 
ATOM      4  C   UNL     1      34.636 -17.129 -20.338  0.00  0.00    -0.055 C 
ATOM      5  C   UNL     1      33.693 -17.197 -23.063  0.00  0.00    +0.068 C 
ATOM      6  C   UNL     1      33.735 -16.015 -20.878  0.00  0.00    +0.068 C 
ATOM      7  H   UNL     1      33.377 -18.648 -20.859  0.00  0.00    -0.079 HD
ENDROOT
BRANCH   2  11
ATOM      8  O   UNL     1      32.216 -15.797 -24.792  0.00  0.00    -0.406 OA
ATOM      9  O   UNL     1      30.933 -15.880 -26.715  0.00  0.00    -0.223 OA
ATOM     10  N   UNL     1      31.595 -13.834 -25.814  0.00  0.00    -0.287 N 
ATOM     11  C   UNL     1      33.470 -14.730 -22.957  0.00  0.00    +0.084 C 
ATOM     12  C   UNL     1      32.701 -14.690 -24.114  0.00  0.00    +0.179 A 
ATOM     13  C   UNL     1      33.855 -13.479 -22.434  0.00  0.00    +0.018 C 
ATOM     14  C   UNL     1      32.339 -13.503 -24.711  0.00  0.00    +0.098 A 
ATOM     15  C   UNL     1      33.479 -12.270 -23.054  0.00  0.00    +0.003 C 
ATOM     16  C   UNL     1      32.705 -12.272 -24.216  0.00  0.00    +0.020 C 
ATOM     17  C   UNL     1      31.518 -15.217 -25.867  0.00  0.00    +0.419 A 
ATOM     18  H   UNL     1      31.189 -13.205 -26.452  0.00  0.00    +0.172 HD
ENDBRANCH   2  11
BRANCH   1  19
ATOM     19  C   UNL     1      35.183 -19.471 -20.448  0.00  0.00    -0.050 C 
BRANCH  19  20
ATOM     20  C   UNL     1      34.393 -20.326 -19.495  0.00  0.00    -0.043 C 
ATOM     21  C   UNL     1      35.018 -20.860 -18.375  0.00  0.00    -0.006 C 
ATOM     22  C   UNL     1      33.049 -20.568 -19.746  0.00  0.00    -0.006 C 
ATOM     23  C   UNL     1      34.284 -21.651 -17.491  0.00  0.00    -0.000 C 
ATOM     24  C   UNL     1      32.316 -21.359 -18.863  0.00  0.00    -0.000 C 
ATOM     25  C   UNL     1      32.933 -21.901 -17.735  0.00  0.00    -0.000 C 
BRANCH  23  26
ATOM     26  C   UNL     1      34.923 -22.211 -16.320  0.00  0.00    -0.000 C 
ATOM     27  C   UNL     1      34.172 -22.937 -15.395  0.00  0.00    -0.000 C 
ATOM     28  C   UNL     1      36.292 -22.027 -16.117  0.00  0.00    -0.000 C 
ATOM     29  C   UNL     1      34.789 -23.478 -14.267  0.00  0.00    -0.000 C 
ATOM     30  C   UNL     1      36.907 -22.567 -14.989  0.00  0.00    -0.000 C 
ATOM     31  C   UNL     1      36.156 -23.293 -14.064  0.00  0.00    +0.000 C 
ENDBRANCH  23  26
ENDBRANCH  19  20
ENDBRANCH   1  19
TORSDOF 4
ENDMDL
MODEL 7
REMARK VINA RESULT:     -10.7      2.898      5.722
REMARK  Name = 208951
REMARK  4 active torsions:
REMARK  status: ('A' for Active; 'I' for Inactive)
REMARK    1  A    between atoms: N_1  and  C_19
REMARK    2  A    between atoms: N_2  and  C_11
REMARK    3  A    between atoms: C_19  and  C_20
REMARK    4  A    between atoms: C_23  and  C_26
REMARK                            x       y       z     vdW  Elec       q    Type
REMARK                         _______ _______ _______ _____ _____    ______ ____
ROOT
ATOM      1  N   UNL     1      35.030 -20.271 -19.334  0.00  0.00    +0.392 N 
ATOM      2  N   UNL     1      34.422 -18.271 -21.281  0.00  0.00    -0.309 N 
ATOM      3  C   UNL     1      33.829 -20.387 -20.169  0.00  0.00    -0.055 C 
ATOM      4  C   UNL     1      36.106 -19.625 -20.095  0.00  0.00    -0.055 C 
ATOM      5  C   UNL     1      33.339 -19.011 -20.624  0.00  0.00    +0.068 C 
ATOM      6  C   UNL     1      35.694 -18.222 -20.548  0.00  0.00    +0.068 C 
ATOM      7  H   UNL     1      34.812 -19.696 -18.520  0.00  0.00    -0.079 HD
ENDROOT
BRANCH   2  11
ATOM      8  O   UNL     1      33.879 -15.532 -20.348  0.00  0.00    -0.406 OA
ATOM      9  O   UNL     1      33.480 -13.441 -19.441  0.00  0.00    -0.223 OA
ATOM     10  N   UNL     1      33.378 -13.777 -21.746  0.00  0.00    -0.287 N 
ATOM     11  C   UNL     1      34.117 -17.208 -22.139  0.00  0.00    +0.084 C 
ATOM     12  C   UNL     1      33.864 -15.923 -21.677  0.00  0.00    +0.179 A 
ATOM     13  C   UNL     1      34.049 -17.383 -23.536  0.00  0.00    +0.018 C 
ATOM     14  C   UNL     1      33.566 -14.884 -22.532  0.00  0.00    +0.098 A 
ATOM     15  C   UNL     1      33.743 -16.312 -24.401  0.00  0.00    +0.003 C 
ATOM     16  C   UNL     1      33.495 -15.034 -23.898  0.00  0.00    +0.020 C 
ATOM     17  C   UNL     1      33.566 -14.162 -20.428  0.00  0.00    +0.419 A 
ATOM     18  H   UNL     1      33.152 -12.873 -22.060  0.00  0.00    +0.172 HD
ENDBRANCH   2  11
BRANCH   1  19
ATOM     19  C   UNL     1      35.456 -21.587 -18.861  0.00  0.00    -0.050 C 
BRANCH  19  20
ATOM     20  C   UNL     1      35.178 -21.751 -17.392  0.00  0.00    -0.043 C 
ATOM     21  C   UNL     1      33.930 -22.199 -16.977  0.00  0.00    -0.006 C 
ATOM     22  C   UNL     1      36.172 -21.454 -16.470  0.00  0.00    -0.006 C 
ATOM     23  C   UNL     1      33.674 -22.352 -15.614  0.00  0.00    -0.000 C 
ATOM     24  C   UNL     1      35.915 -21.607 -15.108  0.00  0.00    -0.000 C 
ATOM     25  C   UNL     1      34.666 -22.055 -14.680  0.00  0.00    -0.000 C 
BRANCH  23  26
ATOM     26  C   UNL     1      32.378 -22.819 -15.170  0.00  0.00    -0.000 C 
ATOM     27  C   UNL     1      32.253 -23.460 -13.937  0.00  0.00    -0.000 C 
ATOM     28  C   UNL     1      31.254 -22.627 -15.974  0.00  0.00    -0.000 C 
ATOM     29  C   UNL     1      31.004 -23.909 -13.508  0.00  0.00    -0.000 C 
ATOM     30  C   UNL     1      30.006 -23.078 -15.545  0.00  0.00    -0.000 C 
ATOM     31  C   UNL     1      29.880 -23.718 -14.312  0.00  0.00    +0.000 C 
ENDBRANCH  23  26
ENDBRANCH  19  20
ENDBRANCH   1  19
TORSDOF 4
ENDMDL
MODEL 8
REMARK VINA RESULT:     -10.7      3.073      6.070
REMARK  Name = 208951
REMARK  4 active torsions:
REMARK  status: ('A' for Active; 'I' for Inactive)
REMARK    1  A    between atoms: N_1  and  C_19
REMARK    2  A    between atoms: N_2  and  C_11
REMARK    3  A    between atoms: C_19  and  C_20
REMARK    4  A    between atoms: C_23  and  C_26
REMARK                            x       y       z     vdW  Elec       q    Type
REMARK                         _______ _______ _______ _____ _____    ______ ____
ROOT
ATOM      1  N   UNL     1      35.022 -20.065 -19.169  0.00  0.00    +0.392 N 
ATOM      2  N   UNL     1      34.435 -18.212 -21.262  0.00  0.00    -0.309 N 
ATOM      3  C   UNL     1      33.897 -20.305 -20.081  0.00  0.00    -0.055 C 
ATOM      4  C   UNL     1      36.108 -19.385 -19.885  0.00  0.00    -0.055 C 
ATOM      5  C   UNL     1      33.356 -18.990 -20.646  0.00  0.00    +0.068 C 
ATOM      6  C   UNL     1      35.641 -18.038 -20.442  0.00  0.00    +0.068 C 
ATOM      7  H   UNL     1      34.705 -19.466 -18.406  0.00  0.00    -0.079 HD
ENDROOT
BRANCH   2  11
ATOM      8  O   UNL     1      33.888 -15.411 -20.537  0.00  0.00    -0.406 OA
ATOM      9  O   UNL     1      33.487 -13.258 -19.789  0.00  0.00    -0.223 OA
ATOM     10  N   UNL     1      33.384 -13.766 -22.062  0.00  0.00    -0.287 N 
ATOM     11  C   UNL     1      34.128 -17.217 -22.197  0.00  0.00    +0.084 C 
ATOM     12  C   UNL     1      33.873 -15.900 -21.833  0.00  0.00    +0.179 A 
ATOM     13  C   UNL     1      34.060 -17.495 -23.578  0.00  0.00    +0.018 C 
ATOM     14  C   UNL     1      33.573 -14.929 -22.763  0.00  0.00    +0.098 A 
ATOM     15  C   UNL     1      33.751 -16.493 -24.520  0.00  0.00    +0.003 C 
ATOM     16  C   UNL     1      33.502 -15.181 -24.113  0.00  0.00    +0.020 C 
ATOM     17  C   UNL     1      33.573 -14.051 -20.719  0.00  0.00    +0.419 A 
ATOM     18  H   UNL     1      33.156 -12.888 -22.443  0.00  0.00    +0.172 HD
ENDBRANCH   2  11
BRANCH   1  19
ATOM     19  C   UNL     1      35.495 -21.324 -18.595  0.00  0.00    -0.050 C 
BRANCH  19  20
ATOM     20  C   UNL     1      34.504 -21.874 -17.606  0.00  0.00    -0.043 C 
ATOM     21  C   UNL     1      34.920 -22.172 -16.314  0.00  0.00    -0.006 C 
ATOM     22  C   UNL     1      33.187 -22.076 -17.996  0.00  0.00    -0.006 C 
ATOM     23  C   UNL     1      34.000 -22.681 -15.397  0.00  0.00    -0.000 C 
ATOM     24  C   UNL     1      32.269 -22.585 -17.079  0.00  0.00    -0.000 C 
ATOM     25  C   UNL     1      32.675 -22.888 -15.780  0.00  0.00    -0.000 C 
BRANCH  23  26
ATOM     26  C   UNL     1      34.421 -22.994 -14.048  0.00  0.00    -0.000 C 
ATOM     27  C   UNL     1      35.719 -22.694 -13.635  0.00  0.00    -0.000 C 
ATOM     28  C   UNL     1      33.528 -23.595 -13.160  0.00  0.00    -0.000 C 
ATOM     29  C   UNL     1      36.124 -22.995 -12.335  0.00  0.00    -0.000 C 
ATOM     30  C   UNL     1      33.933 -23.896 -11.861  0.00  0.00    -0.000 C 
ATOM     31  C   UNL     1      35.232 -23.596 -11.448  0.00  0.00    +0.000 C 
ENDBRANCH  23  26
ENDBRANCH  19  20
ENDBRANCH   1  19
TORSDOF 4
ENDMDL
MODEL 9
REMARK VINA RESULT:     -10.5      3.014      5.828
REMARK  Name = 208951
REMARK  4 active torsions:
REMARK  status: ('A' for Active; 'I' for Inactive)
REMARK    1  A    between atoms: N_1  and  C_19
REMARK    2  A    between atoms: N_2  and  C_11
REMARK    3  A    between atoms: C_19  and  C_20
REMARK    4  A    between atoms: C_23  and  C_26
REMARK                            x       y       z     vdW  Elec       q    Type
REMARK                         _______ _______ _______ _____ _____    ______ ____
ROOT
ATOM      1  N   UNL     1      32.845 -10.472 -23.273  0.00  0.00    +0.392 N 
ATOM      2  N   UNL     1      31.766  -7.871 -22.793  0.00  0.00    -0.309 N 
ATOM      3  C   UNL     1      33.502  -9.281 -23.826  0.00  0.00    -0.055 C 
ATOM      4  C   UNL     1      32.235 -10.150 -21.978  0.00  0.00    -0.055 C 
ATOM      5  C   UNL     1      32.497  -8.145 -24.034  0.00  0.00    +0.068 C 
ATOM      6  C   UNL     1      31.187  -9.043 -22.125  0.00  0.00    +0.068 C 
ATOM      7  H   UNL     1      32.113 -10.773 -23.917  0.00  0.00    -0.079 HD
ENDROOT
BRANCH   2  11
ATOM      8  O   UNL     1      31.675  -6.439 -20.222  0.00  0.00    -0.406 OA
ATOM      9  O   UNL     1      31.702  -5.454 -18.128  0.00  0.00    -0.223 OA
ATOM     10  N   UNL     1      30.640  -4.409 -19.921  0.00  0.00    -0.287 N 
ATOM     11  C   UNL     1      31.132  -6.635 -22.618  0.00  0.00    +0.084 C 
ATOM     12  C   UNL     1      31.102  -5.977 -21.395  0.00  0.00    +0.179 A 
ATOM     13  C   UNL     1      30.483  -5.980 -23.684  0.00  0.00    +0.018 C 
ATOM     14  C   UNL     1      30.476  -4.759 -21.236  0.00  0.00    +0.098 A 
ATOM     15  C   UNL     1      29.845  -4.735 -23.509  0.00  0.00    +0.003 C 
ATOM     16  C   UNL     1      29.837  -4.105 -22.263  0.00  0.00    +0.020 C 
ATOM     17  C   UNL     1      31.362  -5.418 -19.305  0.00  0.00    +0.419 A 
ATOM     18  H   UNL     1      30.305  -3.589 -19.492  0.00  0.00    +0.172 HD
ENDBRANCH   2  11
BRANCH   1  19
ATOM     19  C   UNL     1      33.804 -11.566 -23.130  0.00  0.00    -0.050 C 
BRANCH  19  20
ATOM     20  C   UNL     1      33.307 -12.815 -23.805  0.00  0.00    -0.043 C 
ATOM     21  C   UNL     1      33.641 -14.056 -23.280  0.00  0.00    -0.006 C 
ATOM     22  C   UNL     1      32.519 -12.710 -24.944  0.00  0.00    -0.006 C 
ATOM     23  C   UNL     1      33.178 -15.214 -23.906  0.00  0.00    -0.000 C 
ATOM     24  C   UNL     1      32.057 -13.867 -25.569  0.00  0.00    -0.000 C 
ATOM     25  C   UNL     1      32.387 -15.119 -25.051  0.00  0.00    -0.000 C 
BRANCH  23  26
ATOM     26  C   UNL     1      33.519 -16.513 -23.368  0.00  0.00    -0.000 C 
ATOM     27  C   UNL     1      33.158 -17.671 -24.057  0.00  0.00    -0.000 C 
ATOM     28  C   UNL     1      34.209 -16.609 -22.158  0.00  0.00    -0.000 C 
ATOM     29  C   UNL     1      33.486 -18.923 -23.538  0.00  0.00    -0.000 C 
ATOM     30  C   UNL     1      34.537 -17.861 -21.640  0.00  0.00    -0.000 C 
ATOM     31  C   UNL     1      34.176 -19.018 -22.330  0.00  0.00    +0.000 C 
ENDBRANCH  23  26
ENDBRANCH  19  20
ENDBRANCH   1  19
TORSDOF 4
ENDMDL
