MODEL 1
REMARK VINA RESULT:     -11.8      0.000      0.000
REMARK  Name = 10407120
REMARK  4 active torsions:
REMARK  status: ('A' for Active; 'I' for Inactive)
REMARK    1  A    between atoms: N_2  and  C_19
REMARK    2  A    between atoms: C_3  and  C_6
REMARK    3  A    between atoms: C_5  and  C_16
REMARK    4  A    between atoms: C_19  and  C_21
REMARK                            x       y       z     vdW  Elec       q    Type
REMARK                         _______ _______ _______ _____ _____    ______ ____
ROOT
ATOM      1  O   UNL     1      32.014 -16.186 -25.112  0.00  0.00    -0.270 OA
ATOM      2  N   UNL     1      33.048 -14.206 -24.464  0.00  0.00    -0.267 N 
ATOM      3  C   UNL     1      32.707 -15.554 -24.313  0.00  0.00    +0.250 C 
ATOM      4  C   UNL     1      32.568 -13.476 -25.630  0.00  0.00    +0.116 C 
ENDROOT
BRANCH   3   6
ATOM      5  C   UNL     1      33.825 -17.428 -23.157  0.00  0.00    +0.006 C 
ATOM      6  C   UNL     1      33.211 -16.224 -23.077  0.00  0.00    +0.058 C 
BRANCH   5  16
ATOM      7  O   UNL     1      35.669 -21.828 -17.108  0.00  0.00    -0.275 OA
ATOM      8  N   UNL     1      35.884 -20.301 -18.811  0.00  0.00    -0.270 N 
ATOM      9  N   UNL     1      36.184 -18.783 -20.600  0.00  0.00    -0.229 NA
ATOM     10  C   UNL     1      33.112 -20.570 -19.334  0.00  0.00    +0.039 C 
ATOM     11  C   UNL     1      33.999 -19.743 -20.213  0.00  0.00    +0.010 C 
ATOM     12  C   UNL     1      33.888 -21.719 -18.709  0.00  0.00    +0.090 C 
ATOM     13  C   UNL     1      35.352 -19.597 -19.908  0.00  0.00    +0.130 C 
ATOM     14  C   UNL     1      33.488 -19.017 -21.290  0.00  0.00    +0.000 C 
ATOM     15  C   UNL     1      35.206 -21.276 -18.106  0.00  0.00    +0.227 C 
ATOM     16  C   UNL     1      34.327 -18.191 -22.028  0.00  0.00    +0.019 C 
ATOM     17  C   UNL     1      35.653 -18.108 -21.644  0.00  0.00    +0.100 C 
ATOM     18  H   UNL     1      36.801 -20.083 -18.526  0.00  0.00    +0.156 HD
ENDBRANCH   5  16
ENDBRANCH   3   6
BRANCH   2  19
ATOM     19  C   UNL     1      33.839 -13.428 -23.514  0.00  0.00    +0.158 C 
BRANCH  19  21
ATOM     20  O   UNL     1      32.253 -12.836 -21.812  0.00  0.00    -0.456 OA
ATOM     21  C   UNL     1      33.016 -12.380 -22.823  0.00  0.00    +0.139 A 
ATOM     22  C   UNL     1      32.887 -11.046 -23.018  0.00  0.00    +0.013 A 
ATOM     23  C   UNL     1      31.954 -10.608 -22.041  0.00  0.00    +0.033 A 
ATOM     24  C   UNL     1      31.595 -11.747 -21.326  0.00  0.00    +0.145 A 
ATOM     25  C   UNL     1      33.567 -10.213 -24.030  0.00  0.00    +0.034 C 
ATOM     26  C   UNL     1      31.375  -9.379 -21.682  0.00  0.00    +0.003 C 
ATOM     27  C   UNL     1      30.691 -11.751 -20.266  0.00  0.00    +0.037 C 
ATOM     28  C   UNL     1      30.461  -9.352 -20.620  0.00  0.00    +0.000 C 
ATOM     29  C   UNL     1      30.126 -10.518 -19.927  0.00  0.00    +0.003 C 
ENDBRANCH  19  21
ENDBRANCH   2  19
TORSDOF 4
ENDMDL
MODEL 2
REMARK VINA RESULT:     -11.6      1.073      2.153
REMARK  Name = 10407120
REMARK  4 active torsions:
REMARK  status: ('A' for Active; 'I' for Inactive)
REMARK    1  A    between atoms: N_2  and  C_19
REMARK    2  A    between atoms: C_3  and  C_6
REMARK    3  A    between atoms: C_5  and  C_16
REMARK    4  A    between atoms: C_19  and  C_21
REMARK                            x       y       z     vdW  Elec       q    Type
REMARK                         _______ _______ _______ _____ _____    ______ ____
ROOT
ATOM      1  O   UNL     1      33.685 -15.929 -25.088  0.00  0.00    -0.270 OA
ATOM      2  N   UNL     1      32.797 -14.208 -23.803  0.00  0.00    -0.267 N 
ATOM      3  C   UNL     1      33.458 -15.426 -23.987  0.00  0.00    +0.250 C 
ATOM      4  C   UNL     1      32.335 -13.463 -24.966  0.00  0.00    +0.116 C 
ENDROOT
BRANCH   3   6
ATOM      5  C   UNL     1      34.154 -17.467 -22.784  0.00  0.00    +0.006 C 
ATOM      6  C   UNL     1      33.872 -16.144 -22.745  0.00  0.00    +0.058 C 
BRANCH   5  16
ATOM      7  O   UNL     1      35.355 -22.122 -16.765  0.00  0.00    -0.275 OA
ATOM      8  N   UNL     1      35.748 -20.528 -18.372  0.00  0.00    -0.270 N 
ATOM      9  N   UNL     1      36.234 -18.941 -20.056  0.00  0.00    -0.229 NA
ATOM     10  C   UNL     1      33.044 -20.758 -19.188  0.00  0.00    +0.039 C 
ATOM     11  C   UNL     1      34.019 -19.902 -19.936  0.00  0.00    +0.010 C 
ATOM     12  C   UNL     1      33.749 -21.936 -18.535  0.00  0.00    +0.090 C 
ATOM     13  C   UNL     1      35.333 -19.777 -19.488  0.00  0.00    +0.130 C 
ATOM     14  C   UNL     1      33.623 -19.129 -21.029  0.00  0.00    +0.000 C 
ATOM     15  C   UNL     1      34.999 -21.527 -17.782  0.00  0.00    +0.227 C 
ATOM     16  C   UNL     1      34.536 -18.278 -21.642  0.00  0.00    +0.019 C 
ATOM     17  C   UNL     1      35.816 -18.220 -21.121  0.00  0.00    +0.100 C 
ATOM     18  H   UNL     1      36.631 -20.329 -17.986  0.00  0.00    +0.156 HD
ENDBRANCH   5  16
ENDBRANCH   3   6
BRANCH   2  19
ATOM     19  C   UNL     1      32.486 -13.608 -22.506  0.00  0.00    +0.158 C 
BRANCH  19  21
ATOM     20  O   UNL     1      33.485 -11.616 -23.395  0.00  0.00    -0.456 OA
ATOM     21  C   UNL     1      32.564 -12.110 -22.548  0.00  0.00    +0.139 A 
ATOM     22  C   UNL     1      31.880 -11.142 -21.892  0.00  0.00    +0.013 A 
ATOM     23  C   UNL     1      32.414  -9.914 -22.364  0.00  0.00    +0.033 A 
ATOM     24  C   UNL     1      33.398 -10.260 -23.286  0.00  0.00    +0.145 A 
ATOM     25  C   UNL     1      30.805 -11.316 -20.895  0.00  0.00    +0.034 C 
ATOM     26  C   UNL     1      32.176  -8.552 -22.116  0.00  0.00    +0.003 C 
ATOM     27  C   UNL     1      34.170  -9.337 -23.988  0.00  0.00    +0.037 C 
ATOM     28  C   UNL     1      32.938  -7.600 -22.806  0.00  0.00    +0.000 C 
ATOM     29  C   UNL     1      33.917  -7.988 -23.724  0.00  0.00    +0.003 C 
ENDBRANCH  19  21
ENDBRANCH   2  19
TORSDOF 4
ENDMDL
MODEL 3
REMARK VINA RESULT:     -10.9      2.460      9.089
REMARK  Name = 10407120
REMARK  4 active torsions:
REMARK  status: ('A' for Active; 'I' for Inactive)
REMARK    1  A    between atoms: N_2  and  C_19
REMARK    2  A    between atoms: C_3  and  C_6
REMARK    3  A    between atoms: C_5  and  C_16
REMARK    4  A    between atoms: C_19  and  C_21
REMARK                            x       y       z     vdW  Elec       q    Type
REMARK                         _______ _______ _______ _____ _____    ______ ____
ROOT
ATOM      1  O   UNL     1      33.291 -15.967 -24.966  0.00  0.00    -0.270 OA
ATOM      2  N   UNL     1      33.976 -16.875 -22.938  0.00  0.00    -0.267 N 
ATOM      3  C   UNL     1      33.566 -15.831 -23.772  0.00  0.00    +0.250 C 
ATOM      4  C   UNL     1      34.098 -18.220 -23.485  0.00  0.00    +0.116 C 
ENDROOT
BRANCH   3   6
ATOM      5  C   UNL     1      32.313 -13.821 -23.071  0.00  0.00    +0.006 C 
ATOM      6  C   UNL     1      33.495 -14.478 -23.145  0.00  0.00    +0.058 C 
BRANCH   5  16
ATOM      7  O   UNL     1      30.885  -7.180 -19.439  0.00  0.00    -0.275 OA
ATOM      8  N   UNL     1      31.639  -8.645 -21.040  0.00  0.00    -0.270 N 
ATOM      9  N   UNL     1      32.508 -10.114 -22.676  0.00  0.00    -0.229 NA
ATOM     10  C   UNL     1      30.372 -10.754 -19.634  0.00  0.00    +0.039 C 
ATOM     11  C   UNL     1      31.231 -11.015 -20.833  0.00  0.00    +0.010 C 
ATOM     12  C   UNL     1      30.843  -9.514 -18.891  0.00  0.00    +0.090 C 
ATOM     13  C   UNL     1      31.809  -9.955 -21.528  0.00  0.00    +0.130 C 
ATOM     14  C   UNL     1      31.392 -12.302 -21.349  0.00  0.00    +0.000 C 
ATOM     15  C   UNL     1      31.085  -8.335 -19.813  0.00  0.00    +0.227 C 
ATOM     16  C   UNL     1      32.124 -12.494 -22.515  0.00  0.00    +0.019 C 
ATOM     17  C   UNL     1      32.654 -11.377 -23.136  0.00  0.00    +0.100 C 
ATOM     18  H   UNL     1      31.933  -7.900 -21.611  0.00  0.00    +0.156 HD
ENDBRANCH   5  16
ENDBRANCH   3   6
BRANCH   2  19
ATOM     19  C   UNL     1      34.339 -16.732 -21.529  0.00  0.00    +0.158 C 
BRANCH  19  21
ATOM     20  O   UNL     1      33.076 -18.507 -20.523  0.00  0.00    -0.456 OA
ATOM     21  C   UNL     1      34.309 -18.046 -20.806  0.00  0.00    +0.139 A 
ATOM     22  C   UNL     1      35.290 -18.875 -20.375  0.00  0.00    +0.013 A 
ATOM     23  C   UNL     1      34.623 -19.966 -19.759  0.00  0.00    +0.033 A 
ATOM     24  C   UNL     1      33.263 -19.691 -19.876  0.00  0.00    +0.145 A 
ATOM     25  C   UNL     1      36.749 -18.691 -20.512  0.00  0.00    +0.034 C 
ATOM     26  C   UNL     1      35.015 -21.153 -19.117  0.00  0.00    +0.003 C 
ATOM     27  C   UNL     1      32.254 -20.523 -19.395  0.00  0.00    +0.037 C 
ATOM     28  C   UNL     1      34.023 -22.009 -18.622  0.00  0.00    +0.000 C 
ATOM     29  C   UNL     1      32.668 -21.697 -18.759  0.00  0.00    +0.003 C 
ENDBRANCH  19  21
ENDBRANCH   2  19
TORSDOF 4
ENDMDL
MODEL 4
REMARK VINA RESULT:     -10.8      2.554      9.557
REMARK  Name = 10407120
REMARK  4 active torsions:
REMARK  status: ('A' for Active; 'I' for Inactive)
REMARK    1  A    between atoms: N_2  and  C_19
REMARK    2  A    between atoms: C_3  and  C_6
REMARK    3  A    between atoms: C_5  and  C_16
REMARK    4  A    between atoms: C_19  and  C_21
REMARK                            x       y       z     vdW  Elec       q    Type
REMARK                         _______ _______ _______ _____ _____    ______ ____
ROOT
ATOM      1  O   UNL     1      32.524 -16.248 -25.017  0.00  0.00    -0.270 OA
ATOM      2  N   UNL     1      33.695 -17.042 -23.173  0.00  0.00    -0.267 N 
ATOM      3  C   UNL     1      33.042 -16.055 -23.916  0.00  0.00    +0.250 C 
ATOM      4  C   UNL     1      33.788 -18.394 -23.708  0.00  0.00    +0.116 C 
ENDROOT
BRANCH   3   6
ATOM      5  C   UNL     1      32.815 -13.602 -24.097  0.00  0.00    +0.006 C 
ATOM      6  C   UNL     1      33.016 -14.689 -23.314  0.00  0.00    +0.058 C 
BRANCH   5  16
ATOM      7  O   UNL     1      33.229  -6.106 -22.372  0.00  0.00    -0.275 OA
ATOM      8  N   UNL     1      32.692  -8.333 -22.200  0.00  0.00    -0.270 N 
ATOM      9  N   UNL     1      32.040 -10.599 -22.019  0.00  0.00    -0.229 NA
ATOM     10  C   UNL     1      34.300  -8.844 -24.477  0.00  0.00    +0.039 C 
ATOM     11  C   UNL     1      33.475  -9.920 -23.842  0.00  0.00    +0.010 C 
ATOM     12  C   UNL     1      33.650  -7.482 -24.289  0.00  0.00    +0.090 C 
ATOM     13  C   UNL     1      32.724  -9.649 -22.700  0.00  0.00    +0.130 C 
ATOM     14  C   UNL     1      33.511 -11.237 -24.305  0.00  0.00    +0.000 C 
ATOM     15  C   UNL     1      33.209  -7.236 -22.861  0.00  0.00    +0.227 C 
ATOM     16  C   UNL     1      32.800 -12.226 -23.635  0.00  0.00    +0.019 C 
ATOM     17  C   UNL     1      32.090 -11.859 -22.507  0.00  0.00    +0.100 C 
ATOM     18  H   UNL     1      32.273  -8.185 -21.322  0.00  0.00    +0.156 HD
ENDBRANCH   5  16
ENDBRANCH   3   6
BRANCH   2  19
ATOM     19  C   UNL     1      34.346 -16.830 -21.881  0.00  0.00    +0.158 C 
BRANCH  19  21
ATOM     20  O   UNL     1      33.121 -18.554 -20.746  0.00  0.00    -0.456 OA
ATOM     21  C   UNL     1      34.344 -18.073 -21.040  0.00  0.00    +0.139 A 
ATOM     22  C   UNL     1      35.343 -18.819 -20.511  0.00  0.00    +0.013 A 
ATOM     23  C   UNL     1      34.699 -19.875 -19.814  0.00  0.00    +0.033 A 
ATOM     24  C   UNL     1      33.334 -19.666 -19.989  0.00  0.00    +0.145 A 
ATOM     25  C   UNL     1      36.797 -18.590 -20.628  0.00  0.00    +0.034 C 
ATOM     26  C   UNL     1      35.118 -20.981 -19.055  0.00  0.00    +0.003 C 
ATOM     27  C   UNL     1      32.344 -20.489 -19.458  0.00  0.00    +0.037 C 
ATOM     28  C   UNL     1      34.144 -21.828 -18.508  0.00  0.00    +0.000 C 
ATOM     29  C   UNL     1      32.782 -21.584 -18.706  0.00  0.00    +0.003 C 
ENDBRANCH  19  21
ENDBRANCH   2  19
TORSDOF 4
ENDMDL
MODEL 5
REMARK VINA RESULT:     -10.7      5.796     12.483
REMARK  Name = 10407120
REMARK  4 active torsions:
REMARK  status: ('A' for Active; 'I' for Inactive)
REMARK    1  A    between atoms: N_2  and  C_19
REMARK    2  A    between atoms: C_3  and  C_6
REMARK    3  A    between atoms: C_5  and  C_16
REMARK    4  A    between atoms: C_19  and  C_21
REMARK                            x       y       z     vdW  Elec       q    Type
REMARK                         _______ _______ _______ _____ _____    ______ ____
ROOT
ATOM      1  O   UNL     1      29.808 -24.158 -15.392  0.00  0.00    -0.270 OA
ATOM      2  N   UNL     1      31.035 -23.719 -13.467  0.00  0.00    -0.267 N 
ATOM      3  C   UNL     1      30.709 -23.548 -14.815  0.00  0.00    +0.250 C 
ATOM      4  C   UNL     1      30.280 -24.674 -12.666  0.00  0.00    +0.116 C 
ENDROOT
BRANCH   3   6
ATOM      5  C   UNL     1      32.266 -22.984 -16.648  0.00  0.00    +0.006 C 
ATOM      6  C   UNL     1      31.548 -22.575 -15.575  0.00  0.00    +0.058 C 
BRANCH   5  16
ATOM      7  O   UNL     1      36.159 -18.240 -21.303  0.00  0.00    -0.275 OA
ATOM      8  N   UNL     1      35.745 -19.793 -19.662  0.00  0.00    -0.270 N 
ATOM      9  N   UNL     1      35.368 -21.332 -17.906  0.00  0.00    -0.229 NA
ATOM     10  C   UNL     1      33.018 -19.805 -20.432  0.00  0.00    +0.039 C 
ATOM     11  C   UNL     1      33.499 -20.571 -19.238  0.00  0.00    +0.010 C 
ATOM     12  C   UNL     1      33.873 -18.569 -20.661  0.00  0.00    +0.090 C 
ATOM     13  C   UNL     1      34.853 -20.579 -18.907  0.00  0.00    +0.130 C 
ATOM     14  C   UNL     1      32.638 -21.377 -18.492  0.00  0.00    +0.000 C 
ATOM     15  C   UNL     1      35.358 -18.865 -20.608  0.00  0.00    +0.227 C 
ATOM     16  C   UNL     1      33.139 -22.143 -17.445  0.00  0.00    +0.019 C 
ATOM     17  C   UNL     1      34.498 -22.087 -17.198  0.00  0.00    +0.100 C 
ATOM     18  H   UNL     1      36.709 -19.914 -19.506  0.00  0.00    +0.156 HD
ENDBRANCH   5  16
ENDBRANCH   3   6
BRANCH   2  19
ATOM     19  C   UNL     1      32.120 -23.031 -12.770  0.00  0.00    +0.158 C 
BRANCH  19  21
ATOM     20  O   UNL     1      33.571 -24.559 -13.920  0.00  0.00    -0.456 OA
ATOM     21  C   UNL     1      33.399 -23.816 -12.811  0.00  0.00    +0.139 A 
ATOM     22  C   UNL     1      34.432 -23.925 -11.941  0.00  0.00    +0.013 A 
ATOM     23  C   UNL     1      35.348 -24.822 -12.551  0.00  0.00    +0.033 A 
ATOM     24  C   UNL     1      34.772 -25.183 -13.765  0.00  0.00    +0.145 A 
ATOM     25  C   UNL     1      34.582 -23.257 -10.633  0.00  0.00    +0.034 C 
ATOM     26  C   UNL     1      36.597 -25.368 -12.211  0.00  0.00    +0.003 C 
ATOM     27  C   UNL     1      35.357 -26.058 -14.678  0.00  0.00    +0.037 C 
ATOM     28  C   UNL     1      37.211 -26.252 -13.109  0.00  0.00    +0.000 C 
ATOM     29  C   UNL     1      36.599 -26.590 -14.319  0.00  0.00    +0.003 C 
ENDBRANCH  19  21
ENDBRANCH   2  19
TORSDOF 4
ENDMDL
MODEL 6
REMARK VINA RESULT:     -10.4      5.426     11.247
REMARK  Name = 10407120
REMARK  4 active torsions:
REMARK  status: ('A' for Active; 'I' for Inactive)
REMARK    1  A    between atoms: N_2  and  C_19
REMARK    2  A    between atoms: C_3  and  C_6
REMARK    3  A    between atoms: C_5  and  C_16
REMARK    4  A    between atoms: C_19  and  C_21
REMARK                            x       y       z     vdW  Elec       q    Type
REMARK                         _______ _______ _______ _____ _____    ______ ____
ROOT
ATOM      1  O   UNL     1      37.031 -21.978 -14.112  0.00  0.00    -0.270 OA
ATOM      2  N   UNL     1      35.780 -23.932 -14.253  0.00  0.00    -0.267 N 
ATOM      3  C   UNL     1      36.137 -22.638 -14.643  0.00  0.00    +0.250 C 
ATOM      4  C   UNL     1      36.490 -24.567 -13.151  0.00  0.00    +0.116 C 
ENDROOT
BRANCH   3   6
ATOM      5  C   UNL     1      35.950 -21.681 -16.913  0.00  0.00    +0.006 C 
ATOM      6  C   UNL     1      35.342 -22.045 -15.759  0.00  0.00    +0.058 C 
BRANCH   5  16
ATOM      7  O   UNL     1      33.241 -18.024 -23.127  0.00  0.00    -0.275 OA
ATOM      8  N   UNL     1      33.291 -19.374 -21.270  0.00  0.00    -0.270 N 
ATOM      9  N   UNL     1      33.310 -20.842 -19.415  0.00  0.00    -0.229 NA
ATOM     10  C   UNL     1      35.937 -18.495 -20.765  0.00  0.00    +0.039 C 
ATOM     11  C   UNL     1      35.297 -19.569 -19.940  0.00  0.00    +0.010 C 
ATOM     12  C   UNL     1      35.391 -18.504 -22.184  0.00  0.00    +0.090 C 
ATOM     13  C   UNL     1      33.980 -19.954 -20.186  0.00  0.00    +0.130 C 
ATOM     14  C   UNL     1      35.952 -20.138 -18.847  0.00  0.00    +0.000 C 
ATOM     15  C   UNL     1      33.878 -18.574 -22.229  0.00  0.00    +0.227 C 
ATOM     16  C   UNL     1      35.292 -21.069 -18.052  0.00  0.00    +0.019 C 
ATOM     17  C   UNL     1      33.984 -21.381 -18.374  0.00  0.00    +0.100 C 
ATOM     18  H   UNL     1      32.326 -19.551 -21.348  0.00  0.00    +0.156 HD
ENDBRANCH   5  16
ENDBRANCH   3   6
BRANCH   2  19
ATOM     19  C   UNL     1      34.701 -24.720 -14.845  0.00  0.00    +0.158 C 
BRANCH  19  21
ATOM     20  O   UNL     1      32.649 -23.766 -15.645  0.00  0.00    -0.456 OA
ATOM     21  C   UNL     1      33.351 -24.131 -14.556  0.00  0.00    +0.139 A 
ATOM     22  C   UNL     1      32.688 -23.892 -13.399  0.00  0.00    +0.013 A 
ATOM     23  C   UNL     1      31.447 -23.320 -13.785  0.00  0.00    +0.033 A 
ATOM     24  C   UNL     1      31.473 -23.263 -15.175  0.00  0.00    +0.145 A 
ATOM     25  C   UNL     1      33.150 -24.165 -12.024  0.00  0.00    +0.034 C 
ATOM     26  C   UNL     1      30.308 -22.844 -13.114  0.00  0.00    +0.003 C 
ATOM     27  C   UNL     1      30.434 -22.763 -15.956  0.00  0.00    +0.037 C 
ATOM     28  C   UNL     1      29.246 -22.333 -13.873  0.00  0.00    +0.000 C 
ATOM     29  C   UNL     1      29.311 -22.294 -15.268  0.00  0.00    +0.003 C 
ENDBRANCH  19  21
ENDBRANCH   2  19
TORSDOF 4
ENDMDL
MODEL 7
REMARK VINA RESULT:     -10.4      4.379      7.245
REMARK  Name = 10407120
REMARK  4 active torsions:
REMARK  status: ('A' for Active; 'I' for Inactive)
REMARK    1  A    between atoms: N_2  and  C_19
REMARK    2  A    between atoms: C_3  and  C_6
REMARK    3  A    between atoms: C_5  and  C_16
REMARK    4  A    between atoms: C_19  and  C_21
REMARK                            x       y       z     vdW  Elec       q    Type
REMARK                         _______ _______ _______ _____ _____    ______ ____
ROOT
ATOM      1  O   UNL     1      33.760  -6.119 -24.563  0.00  0.00    -0.270 OA
ATOM      2  N   UNL     1      31.687  -6.032 -23.515  0.00  0.00    -0.267 N 
ATOM      3  C   UNL     1      32.716  -6.671 -24.211  0.00  0.00    +0.250 C 
ATOM      4  C   UNL     1      31.825  -4.623 -23.170  0.00  0.00    +0.116 C 
ENDROOT
BRANCH   3   6
ATOM      5  C   UNL     1      33.202  -9.078 -23.941  0.00  0.00    +0.006 C 
ATOM      6  C   UNL     1      32.486  -8.106 -24.554  0.00  0.00    +0.058 C 
BRANCH   5  16
ATOM      7  O   UNL     1      32.861 -16.752 -24.520  0.00  0.00    -0.275 OA
ATOM      8  N   UNL     1      32.746 -14.536 -25.115  0.00  0.00    -0.270 N 
ATOM      9  N   UNL     1      32.532 -12.270 -25.757  0.00  0.00    -0.229 NA
ATOM     10  C   UNL     1      33.764 -13.850 -22.560  0.00  0.00    +0.039 C 
ATOM     11  C   UNL     1      33.314 -12.803 -23.533  0.00  0.00    +0.010 C 
ATOM     12  C   UNL     1      32.978 -15.138 -22.751  0.00  0.00    +0.090 C 
ATOM     13  C   UNL     1      32.855 -13.168 -24.797  0.00  0.00    +0.130 C 
ATOM     14  C   UNL     1      33.436 -11.442 -23.248  0.00  0.00    +0.000 C 
ATOM     15  C   UNL     1      32.893 -15.563 -24.203  0.00  0.00    +0.227 C 
ATOM     16  C   UNL     1      33.091 -10.500 -24.211  0.00  0.00    +0.019 C 
ATOM     17  C   UNL     1      32.651 -10.961 -25.438  0.00  0.00    +0.100 C 
ATOM     18  H   UNL     1      32.554 -14.777 -26.049  0.00  0.00    +0.156 HD
ENDBRANCH   5  16
ENDBRANCH   3   6
BRANCH   2  19
ATOM     19  C   UNL     1      30.427  -6.657 -23.116  0.00  0.00    +0.158 C 
BRANCH  19  21
ATOM     20  O   UNL     1      30.526  -8.808 -22.057  0.00  0.00    -0.456 OA
ATOM     21  C   UNL     1      30.577  -7.476 -21.868  0.00  0.00    +0.139 A 
ATOM     22  C   UNL     1      30.758  -7.137 -20.569  0.00  0.00    +0.013 A 
ATOM     23  C   UNL     1      30.828  -8.366 -19.862  0.00  0.00    +0.033 A 
ATOM     24  C   UNL     1      30.680  -9.362 -20.822  0.00  0.00    +0.145 A 
ATOM     25  C   UNL     1      30.861  -5.779 -19.999  0.00  0.00    +0.034 C 
ATOM     26  C   UNL     1      31.001  -8.746 -18.520  0.00  0.00    +0.003 C 
ATOM     27  C   UNL     1      30.691 -10.727 -20.539  0.00  0.00    +0.037 C 
ATOM     28  C   UNL     1      31.016 -10.111 -18.204  0.00  0.00    +0.000 C 
ATOM     29  C   UNL     1      30.863 -11.082 -19.198  0.00  0.00    +0.003 C 
ENDBRANCH  19  21
ENDBRANCH   2  19
TORSDOF 4
ENDMDL
MODEL 8
REMARK VINA RESULT:     -10.1      2.536      9.644
REMARK  Name = 10407120
REMARK  4 active torsions:
REMARK  status: ('A' for Active; 'I' for Inactive)
REMARK    1  A    between atoms: N_2  and  C_19
REMARK    2  A    between atoms: C_3  and  C_6
REMARK    3  A    between atoms: C_5  and  C_16
REMARK    4  A    between atoms: C_19  and  C_21
REMARK                            x       y       z     vdW  Elec       q    Type
REMARK                         _______ _______ _______ _____ _____    ______ ____
ROOT
ATOM      1  O   UNL     1      36.902 -18.358 -18.953  0.00  0.00    -0.270 OA
ATOM      2  N   UNL     1      35.729 -20.365 -18.991  0.00  0.00    -0.267 N 
ATOM      3  C   UNL     1      36.058 -19.092 -19.468  0.00  0.00    +0.250 C 
ATOM      4  C   UNL     1      36.411 -20.883 -17.813  0.00  0.00    +0.116 C 
ENDROOT
BRANCH   3   6
ATOM      5  C   UNL     1      35.120 -17.295 -20.879  0.00  0.00    +0.006 C 
ATOM      6  C   UNL     1      35.294 -18.620 -20.661  0.00  0.00    +0.058 C 
BRANCH   5  16
ATOM      7  O   UNL     1      31.241 -13.437 -26.302  0.00  0.00    -0.275 OA
ATOM      8  N   UNL     1      32.222 -15.188 -25.185  0.00  0.00    -0.270 N 
ATOM      9  N   UNL     1      33.286 -17.011 -24.118  0.00  0.00    -0.229 NA
ATOM     10  C   UNL     1      32.806 -13.427 -23.043  0.00  0.00    +0.039 C 
ATOM     11  C   UNL     1      33.298 -14.842 -23.051  0.00  0.00    +0.010 C 
ATOM     12  C   UNL     1      32.674 -12.892 -24.459  0.00  0.00    +0.090 C 
ATOM     13  C   UNL     1      32.962 -15.697 -24.100  0.00  0.00    +0.130 C 
ATOM     14  C   UNL     1      34.011 -15.374 -21.975  0.00  0.00    +0.000 C 
ATOM     15  C   UNL     1      31.948 -13.849 -25.383  0.00  0.00    +0.227 C 
ATOM     16  C   UNL     1      34.374 -16.716 -21.981  0.00  0.00    +0.019 C 
ATOM     17  C   UNL     1      33.988 -17.485 -23.064  0.00  0.00    +0.100 C 
ATOM     18  H   UNL     1      31.876 -15.830 -25.846  0.00  0.00    +0.156 HD
ENDBRANCH   5  16
ENDBRANCH   3   6
BRANCH   2  19
ATOM     19  C   UNL     1      34.708 -21.239 -19.565  0.00  0.00    +0.158 C 
BRANCH  19  21
ATOM     20  O   UNL     1      34.089 -22.373 -17.543  0.00  0.00    -0.456 OA
ATOM     21  C   UNL     1      33.655 -21.606 -18.561  0.00  0.00    +0.139 A 
ATOM     22  C   UNL     1      32.335 -21.314 -18.473  0.00  0.00    +0.013 A 
ATOM     23  C   UNL     1      31.883 -21.954 -17.289  0.00  0.00    +0.033 A 
ATOM     24  C   UNL     1      32.999 -22.592 -16.755  0.00  0.00    +0.145 A 
ATOM     25  C   UNL     1      31.528 -20.503 -19.405  0.00  0.00    +0.034 C 
ATOM     26  C   UNL     1      30.657 -22.066 -16.611  0.00  0.00    +0.003 C 
ATOM     27  C   UNL     1      32.983 -23.341 -15.580  0.00  0.00    +0.037 C 
ATOM     28  C   UNL     1      30.610 -22.813 -15.426  0.00  0.00    +0.000 C 
ATOM     29  C   UNL     1      31.753 -23.439 -14.922  0.00  0.00    +0.003 C 
ENDBRANCH  19  21
ENDBRANCH   2  19
TORSDOF 4
ENDMDL
MODEL 9
REMARK VINA RESULT:     -10.1      5.278     11.360
REMARK  Name = 10407120
REMARK  4 active torsions:
REMARK  status: ('A' for Active; 'I' for Inactive)
REMARK    1  A    between atoms: N_2  and  C_19
REMARK    2  A    between atoms: C_3  and  C_6
REMARK    3  A    between atoms: C_5  and  C_16
REMARK    4  A    between atoms: C_19  and  C_21
REMARK                            x       y       z     vdW  Elec       q    Type
REMARK                         _______ _______ _______ _____ _____    ______ ____
ROOT
ATOM      1  O   UNL     1      35.255 -24.203 -15.023  0.00  0.00    -0.270 OA
ATOM      2  N   UNL     1      33.649 -23.328 -13.588  0.00  0.00    -0.267 N 
ATOM      3  C   UNL     1      34.328 -23.421 -14.806  0.00  0.00    +0.250 C 
ATOM      4  C   UNL     1      34.039 -24.196 -12.485  0.00  0.00    +0.116 C 
ENDROOT
BRANCH   3   6
ATOM      5  C   UNL     1      34.594 -22.378 -17.029  0.00  0.00    +0.006 C 
ATOM      6  C   UNL     1      33.890 -22.477 -15.877  0.00  0.00    +0.058 C 
BRANCH   5  16
ATOM      7  O   UNL     1      33.845 -17.430 -22.885  0.00  0.00    -0.275 OA
ATOM      8  N   UNL     1      33.274 -18.930 -21.242  0.00  0.00    -0.270 N 
ATOM      9  N   UNL     1      32.642 -20.531 -19.620  0.00  0.00    -0.229 NA
ATOM     10  C   UNL     1      35.972 -18.928 -20.374  0.00  0.00    +0.039 C 
ATOM     11  C   UNL     1      34.956 -19.850 -19.774  0.00  0.00    +0.010 C 
ATOM     12  C   UNL     1      35.634 -18.622 -21.825  0.00  0.00    +0.090 C 
ATOM     13  C   UNL     1      33.627 -19.801 -20.193  0.00  0.00    +0.130 C 
ATOM     14  C   UNL     1      35.278 -20.702 -18.716  0.00  0.00    +0.000 C 
ATOM     15  C   UNL     1      34.181 -18.238 -22.020  0.00  0.00    +0.227 C 
ATOM     16  C   UNL     1      34.287 -21.478 -18.126  0.00  0.00    +0.019 C 
ATOM     17  C   UNL     1      32.997 -21.355 -18.609  0.00  0.00    +0.100 C 
ATOM     18  H   UNL     1      32.317 -18.805 -21.433  0.00  0.00    +0.156 HD
ENDBRANCH   5  16
ENDBRANCH   3   6
BRANCH   2  19
ATOM     19  C   UNL     1      32.569 -22.386 -13.298  0.00  0.00    +0.158 C 
BRANCH  19  21
ATOM     20  O   UNL     1      30.683 -22.132 -14.759  0.00  0.00    -0.456 OA
ATOM     21  C   UNL     1      31.242 -22.882 -13.792  0.00  0.00    +0.139 A 
ATOM     22  C   UNL     1      30.485 -23.953 -13.454  0.00  0.00    +0.013 A 
ATOM     23  C   UNL     1      29.334 -23.880 -14.282  0.00  0.00    +0.033 A 
ATOM     24  C   UNL     1      29.504 -22.742 -15.065  0.00  0.00    +0.145 A 
ATOM     25  C   UNL     1      30.783 -24.984 -12.440  0.00  0.00    +0.034 C 
ATOM     26  C   UNL     1      28.169 -24.647 -14.456  0.00  0.00    +0.003 C 
ATOM     27  C   UNL     1      28.589 -22.308 -16.022  0.00  0.00    +0.037 C 
ATOM     28  C   UNL     1      27.229 -24.235 -15.410  0.00  0.00    +0.000 C 
ATOM     29  C   UNL     1      27.437 -23.085 -16.177  0.00  0.00    +0.003 C 
ENDBRANCH  19  21
ENDBRANCH   2  19
TORSDOF 4
ENDMDL
