MODEL 1
REMARK VINA RESULT:     -11.8      0.000      0.000
REMARK  Name = 16048422
REMARK  11 active torsions:
REMARK  status: ('A' for Active; 'I' for Inactive)
REMARK    1  A    between atoms: C_1  and  C_4
REMARK    2  A    between atoms: C_1  and  N_18
REMARK    3  A    between atoms: C_1  and  C_33
REMARK    4  A    between atoms: N_3  and  C_6
REMARK    5  A    between atoms: C_6  and  C_9
REMARK    6  A    between atoms: C_9  and  C_11
REMARK    7  A    between atoms: C_19  and  C_21
REMARK    8  A    between atoms: C_24  and  C_27
REMARK    9  A    between atoms: C_33  and  C_34
REMARK   10  A    between atoms: C_34  and  C_36
REMARK   11  A    between atoms: C_36  and  O_37
REMARK                            x       y       z     vdW  Elec       q    Type
REMARK                         _______ _______ _______ _____ _____    ______ ____
ROOT
ATOM      1  C   UNL     1      30.507 -23.023 -14.464  0.00  0.00    +0.149 C 
ENDROOT
BRANCH   1   4
ATOM      2  O   UNL     1      31.392 -25.019 -13.423  0.00  0.00    -0.273 OA
ATOM      3  N   UNL     1      32.801 -23.197 -13.714  0.00  0.00    -0.306 N 
ATOM      4  C   UNL     1      31.595 -23.873 -13.821  0.00  0.00    +0.240 C 
ATOM      5  H   UNL     1      32.856 -22.279 -14.066  0.00  0.00    +0.149 HD
BRANCH   3   6
ATOM      6  C   UNL     1      33.981 -23.773 -13.110  0.00  0.00    +0.061 C 
ATOM      7  C   UNL     1      33.778 -23.864 -11.591  0.00  0.00    +0.020 C 
ATOM      8  C   UNL     1      34.154 -25.196 -13.668  0.00  0.00    +0.020 C 
BRANCH   6   9
ATOM      9  C   UNL     1      35.241 -22.945 -13.474  0.00  0.00    +0.044 C 
BRANCH   9  11
ATOM     10  F   UNL     1      40.130 -25.758 -13.467  0.00  0.00    -0.204 F 
ATOM     11  C   UNL     1      36.552 -23.699 -13.472  0.00  0.00    -0.020 C 
ATOM     12  C   UNL     1      36.966 -24.375 -12.324  0.00  0.00    -0.002 C 
ATOM     13  C   UNL     1      37.347 -23.719 -14.618  0.00  0.00    -0.002 C 
ATOM     14  C   UNL     1      38.174 -25.071 -12.323  0.00  0.00    +0.029 C 
ATOM     15  C   UNL     1      38.555 -24.415 -14.617  0.00  0.00    +0.029 C 
ATOM     16  C   UNL     1      38.969 -25.091 -13.468  0.00  0.00    +0.140 C 
ENDBRANCH   9  11
ENDBRANCH   6   9
ENDBRANCH   3   6
ENDBRANCH   1   4
BRANCH   1  18
ATOM     17  O   UNL     1      32.241 -24.145 -16.459  0.00  0.00    -0.270 OA
ATOM     18  N   UNL     1      31.155 -22.313 -15.540  0.00  0.00    -0.295 N 
ATOM     19  C   UNL     1      31.979 -22.945 -16.460  0.00  0.00    +0.246 C 
ATOM     20  H   UNL     1      31.007 -21.344 -15.624  0.00  0.00    +0.150 HD
BRANCH  19  21
ATOM     21  C   UNL     1      32.592 -22.069 -17.491  0.00  0.00    +0.053 C 
ATOM     22  C   UNL     1      31.782 -21.291 -18.318  0.00  0.00    +0.005 C 
ATOM     23  C   UNL     1      33.979 -22.025 -17.632  0.00  0.00    +0.005 C 
ATOM     24  C   UNL     1      33.746 -20.425 -19.427  0.00  0.00    +0.000 C 
ATOM     25  C   UNL     1      32.359 -20.469 -19.287  0.00  0.00    +0.000 C 
ATOM     26  C   UNL     1      34.557 -21.202 -18.600  0.00  0.00    +0.000 C 
BRANCH  24  27
ATOM     27  C   UNL     1      34.344 -19.572 -20.431  0.00  0.00    +0.000 C 
ATOM     28  C   UNL     1      33.617 -19.215 -21.567  0.00  0.00    +0.000 C 
ATOM     29  C   UNL     1      35.648 -19.105 -20.263  0.00  0.00    +0.000 C 
ATOM     30  C   UNL     1      34.194 -18.392 -22.535  0.00  0.00    +0.000 C 
ATOM     31  C   UNL     1      36.224 -18.283 -21.232  0.00  0.00    +0.000 C 
ATOM     32  C   UNL     1      35.497 -17.926 -22.367  0.00  0.00    +0.000 C 
ENDBRANCH  24  27
ENDBRANCH  19  21
ENDBRANCH   1  18
BRANCH   1  33
ATOM     33  C   UNL     1      29.354 -23.882 -14.998  0.00  0.00    +0.041 C 
BRANCH  33  34
ATOM     34  C   UNL     1      27.961 -23.332 -14.682  0.00  0.00    +0.112 C 
BRANCH  34  36
ATOM     35  O   UNL     1      27.071 -21.632 -16.183  0.00  0.00    -0.250 OA
ATOM     36  C   UNL     1      27.234 -22.812 -15.902  0.00  0.00    +0.314 C 
BRANCH  36  37
ATOM     37  O   UNL     1      26.793 -23.827 -16.689  0.00  0.00    -0.480 OA
ATOM     38  H   UNL     1      27.407 -24.366 -17.148  0.00  0.00    +0.295 HD
ENDBRANCH  36  37
ENDBRANCH  34  36
ENDBRANCH  33  34
ENDBRANCH   1  33
TORSDOF 11
ENDMDL
MODEL 2
REMARK VINA RESULT:     -11.7      3.371      6.542
REMARK  Name = 16048422
REMARK  11 active torsions:
REMARK  status: ('A' for Active; 'I' for Inactive)
REMARK    1  A    between atoms: C_1  and  C_4
REMARK    2  A    between atoms: C_1  and  N_18
REMARK    3  A    between atoms: C_1  and  C_33
REMARK    4  A    between atoms: N_3  and  C_6
REMARK    5  A    between atoms: C_6  and  C_9
REMARK    6  A    between atoms: C_9  and  C_11
REMARK    7  A    between atoms: C_19  and  C_21
REMARK    8  A    between atoms: C_24  and  C_27
REMARK    9  A    between atoms: C_33  and  C_34
REMARK   10  A    between atoms: C_34  and  C_36
REMARK   11  A    between atoms: C_36  and  O_37
REMARK                            x       y       z     vdW  Elec       q    Type
REMARK                         _______ _______ _______ _____ _____    ______ ____
ROOT
ATOM      1  C   UNL     1      33.698 -23.372 -14.945  0.00  0.00    +0.149 C 
ENDROOT
BRANCH   1   4
ATOM      2  O   UNL     1      32.065 -22.012 -13.790  0.00  0.00    -0.273 OA
ATOM      3  N   UNL     1      31.573 -24.247 -14.186  0.00  0.00    -0.306 N 
ATOM      4  C   UNL     1      32.366 -23.111 -14.254  0.00  0.00    +0.240 C 
ATOM      5  H   UNL     1      31.912 -25.079 -14.590  0.00  0.00    +0.149 HD
BRANCH   3   6
ATOM      6  C   UNL     1      30.276 -24.270 -13.549  0.00  0.00    +0.061 C 
ATOM      7  C   UNL     1      29.380 -25.293 -14.264  0.00  0.00    +0.020 C 
ATOM      8  C   UNL     1      30.469 -24.720 -12.092  0.00  0.00    +0.020 C 
BRANCH   6   9
ATOM      9  C   UNL     1      29.643 -22.853 -13.547  0.00  0.00    +0.044 C 
BRANCH   9  11
ATOM     10  F   UNL     1      25.569 -21.964 -17.345  0.00  0.00    -0.204 F 
ATOM     11  C   UNL     1      28.551 -22.615 -14.565  0.00  0.00    -0.020 C 
ATOM     12  C   UNL     1      28.795 -22.852 -15.918  0.00  0.00    -0.002 C 
ATOM     13  C   UNL     1      27.300 -22.158 -14.152  0.00  0.00    -0.002 C 
ATOM     14  C   UNL     1      27.787 -22.632 -16.857  0.00  0.00    +0.029 C 
ATOM     15  C   UNL     1      26.292 -21.939 -15.090  0.00  0.00    +0.029 C 
ATOM     16  C   UNL     1      26.537 -22.176 -16.443  0.00  0.00    +0.140 C 
ENDBRANCH   9  11
ENDBRANCH   6   9
ENDBRANCH   3   6
ENDBRANCH   1   4
BRANCH   1  18
ATOM     17  O   UNL     1      32.595 -23.737 -17.570  0.00  0.00    -0.270 OA
ATOM     18  N   UNL     1      33.757 -22.437 -16.041  0.00  0.00    -0.295 N 
ATOM     19  C   UNL     1      33.191 -22.703 -17.279  0.00  0.00    +0.246 C 
ATOM     20  H   UNL     1      34.216 -21.577 -15.905  0.00  0.00    +0.150 HD
BRANCH  19  21
ATOM     21  C   UNL     1      33.362 -21.649 -18.312  0.00  0.00    +0.053 C 
ATOM     22  C   UNL     1      34.641 -21.280 -18.727  0.00  0.00    +0.005 C 
ATOM     23  C   UNL     1      32.242 -21.029 -18.866  0.00  0.00    +0.005 C 
ATOM     24  C   UNL     1      33.682 -19.670 -20.251  0.00  0.00    +0.000 C 
ATOM     25  C   UNL     1      34.801 -20.289 -19.697  0.00  0.00    +0.000 C 
ATOM     26  C   UNL     1      32.402 -20.039 -19.837  0.00  0.00    +0.000 C 
BRANCH  24  27
ATOM     27  C   UNL     1      33.847 -18.643 -21.257  0.00  0.00    +0.000 C 
ATOM     28  C   UNL     1      33.532 -18.914 -22.589  0.00  0.00    +0.000 C 
ATOM     29  C   UNL     1      34.319 -17.381 -20.895  0.00  0.00    +0.000 C 
ATOM     30  C   UNL     1      33.690 -17.923 -23.558  0.00  0.00    +0.000 C 
ATOM     31  C   UNL     1      34.478 -16.391 -21.865  0.00  0.00    +0.000 C 
ATOM     32  C   UNL     1      34.164 -16.662 -23.197  0.00  0.00    +0.000 C 
ENDBRANCH  24  27
ENDBRANCH  19  21
ENDBRANCH   1  18
BRANCH   1  33
ATOM     33  C   UNL     1      34.883 -23.168 -13.993  0.00  0.00    +0.041 C 
BRANCH  33  34
ATOM     34  C   UNL     1      36.013 -24.184 -14.166  0.00  0.00    +0.112 C 
BRANCH  34  36
ATOM     35  O   UNL     1      35.137 -26.288 -15.026  0.00  0.00    -0.250 OA
ATOM     36  C   UNL     1      35.544 -25.620 -14.086  0.00  0.00    +0.314 C 
BRANCH  36  37
ATOM     37  O   UNL     1      35.654 -26.110 -12.823  0.00  0.00    -0.480 OA
ATOM     38  H   UNL     1      36.009 -26.965 -12.681  0.00  0.00    +0.295 HD
ENDBRANCH  36  37
ENDBRANCH  34  36
ENDBRANCH  33  34
ENDBRANCH   1  33
TORSDOF 11
ENDMDL
MODEL 3
REMARK VINA RESULT:     -11.6      3.325      6.612
REMARK  Name = 16048422
REMARK  11 active torsions:
REMARK  status: ('A' for Active; 'I' for Inactive)
REMARK    1  A    between atoms: C_1  and  C_4
REMARK    2  A    between atoms: C_1  and  N_18
REMARK    3  A    between atoms: C_1  and  C_33
REMARK    4  A    between atoms: N_3  and  C_6
REMARK    5  A    between atoms: C_6  and  C_9
REMARK    6  A    between atoms: C_9  and  C_11
REMARK    7  A    between atoms: C_19  and  C_21
REMARK    8  A    between atoms: C_24  and  C_27
REMARK    9  A    between atoms: C_33  and  C_34
REMARK   10  A    between atoms: C_34  and  C_36
REMARK   11  A    between atoms: C_36  and  O_37
REMARK                            x       y       z     vdW  Elec       q    Type
REMARK                         _______ _______ _______ _____ _____    ______ ____
ROOT
ATOM      1  C   UNL     1      33.725 -23.598 -14.863  0.00  0.00    +0.149 C 
ENDROOT
BRANCH   1   4
ATOM      2  O   UNL     1      32.283 -22.209 -13.506  0.00  0.00    -0.273 OA
ATOM      3  N   UNL     1      31.514 -24.297 -14.172  0.00  0.00    -0.306 N 
ATOM      4  C   UNL     1      32.442 -23.267 -14.113  0.00  0.00    +0.240 C 
ATOM      5  H   UNL     1      31.743 -25.104 -14.688  0.00  0.00    +0.149 HD
BRANCH   3   6
ATOM      6  C   UNL     1      30.229 -24.243 -13.513  0.00  0.00    +0.061 C 
ATOM      7  C   UNL     1      29.288 -25.273 -14.155  0.00  0.00    +0.020 C 
ATOM      8  C   UNL     1      30.436 -24.620 -12.037  0.00  0.00    +0.020 C 
BRANCH   6   9
ATOM      9  C   UNL     1      29.642 -22.809 -13.577  0.00  0.00    +0.044 C 
BRANCH   9  11
ATOM     10  F   UNL     1      25.569 -21.976 -17.389  0.00  0.00    -0.204 F 
ATOM     11  C   UNL     1      28.550 -22.585 -14.599  0.00  0.00    -0.020 C 
ATOM     12  C   UNL     1      27.302 -22.111 -14.194  0.00  0.00    -0.002 C 
ATOM     13  C   UNL     1      28.791 -22.854 -15.946  0.00  0.00    -0.002 C 
ATOM     14  C   UNL     1      26.295 -21.905 -15.137  0.00  0.00    +0.029 C 
ATOM     15  C   UNL     1      27.784 -22.647 -16.889  0.00  0.00    +0.029 C 
ATOM     16  C   UNL     1      26.536 -22.173 -16.484  0.00  0.00    +0.140 C 
ENDBRANCH   9  11
ENDBRANCH   6   9
ENDBRANCH   3   6
ENDBRANCH   1   4
BRANCH   1  18
ATOM     17  O   UNL     1      32.361 -23.790 -17.383  0.00  0.00    -0.270 OA
ATOM     18  N   UNL     1      33.792 -22.655 -15.953  0.00  0.00    -0.295 N 
ATOM     19  C   UNL     1      33.093 -22.834 -17.138  0.00  0.00    +0.246 C 
ATOM     20  H   UNL     1      34.354 -21.854 -15.852  0.00  0.00    +0.150 HD
BRANCH  19  21
ATOM     21  C   UNL     1      33.289 -21.787 -18.173  0.00  0.00    +0.053 C 
ATOM     22  C   UNL     1      32.186 -21.138 -18.727  0.00  0.00    +0.005 C 
ATOM     23  C   UNL     1      34.577 -21.453 -18.590  0.00  0.00    +0.005 C 
ATOM     24  C   UNL     1      33.658 -19.820 -20.117  0.00  0.00    +0.000 C 
ATOM     25  C   UNL     1      32.370 -20.155 -19.699  0.00  0.00    +0.000 C 
ATOM     26  C   UNL     1      34.762 -20.469 -19.563  0.00  0.00    +0.000 C 
BRANCH  24  27
ATOM     27  C   UNL     1      33.850 -18.801 -21.124  0.00  0.00    +0.000 C 
ATOM     28  C   UNL     1      34.318 -17.538 -20.760  0.00  0.00    +0.000 C 
ATOM     29  C   UNL     1      33.569 -19.080 -22.462  0.00  0.00    +0.000 C 
ATOM     30  C   UNL     1      34.504 -16.555 -21.732  0.00  0.00    +0.000 C 
ATOM     31  C   UNL     1      33.755 -18.096 -23.434  0.00  0.00    +0.000 C 
ATOM     32  C   UNL     1      34.222 -16.834 -23.069  0.00  0.00    +0.000 C 
ENDBRANCH  24  27
ENDBRANCH  19  21
ENDBRANCH   1  18
BRANCH   1  33
ATOM     33  C   UNL     1      34.960 -23.473 -13.962  0.00  0.00    +0.041 C 
BRANCH  33  34
ATOM     34  C   UNL     1      35.476 -24.804 -13.412  0.00  0.00    +0.112 C 
BRANCH  34  36
ATOM     35  O   UNL     1      37.846 -24.897 -13.968  0.00  0.00    -0.250 OA
ATOM     36  C   UNL     1      36.707 -25.312 -14.131  0.00  0.00    +0.314 C 
BRANCH  36  37
ATOM     37  O   UNL     1      36.403 -26.328 -14.980  0.00  0.00    -0.480 OA
ATOM     38  H   UNL     1      35.516 -26.617 -15.067  0.00  0.00    +0.295 HD
ENDBRANCH  36  37
ENDBRANCH  34  36
ENDBRANCH  33  34
ENDBRANCH   1  33
TORSDOF 11
ENDMDL
MODEL 4
REMARK VINA RESULT:     -11.5      3.328      6.662
REMARK  Name = 16048422
REMARK  11 active torsions:
REMARK  status: ('A' for Active; 'I' for Inactive)
REMARK    1  A    between atoms: C_1  and  C_4
REMARK    2  A    between atoms: C_1  and  N_18
REMARK    3  A    between atoms: C_1  and  C_33
REMARK    4  A    between atoms: N_3  and  C_6
REMARK    5  A    between atoms: C_6  and  C_9
REMARK    6  A    between atoms: C_9  and  C_11
REMARK    7  A    between atoms: C_19  and  C_21
REMARK    8  A    between atoms: C_24  and  C_27
REMARK    9  A    between atoms: C_33  and  C_34
REMARK   10  A    between atoms: C_34  and  C_36
REMARK   11  A    between atoms: C_36  and  O_37
REMARK                            x       y       z     vdW  Elec       q    Type
REMARK                         _______ _______ _______ _____ _____    ______ ____
ROOT
ATOM      1  C   UNL     1      35.475 -23.533 -15.030  0.00  0.00    +0.149 C 
ENDROOT
BRANCH   1   4
ATOM      2  O   UNL     1      34.691 -22.276 -13.118  0.00  0.00    -0.273 OA
ATOM      3  N   UNL     1      33.290 -23.878 -14.048  0.00  0.00    -0.306 N 
ATOM      4  C   UNL     1      34.460 -23.138 -13.964  0.00  0.00    +0.240 C 
ATOM      5  H   UNL     1      33.209 -24.546 -14.767  0.00  0.00    +0.149 HD
BRANCH   3   6
ATOM      6  C   UNL     1      32.186 -23.718 -13.130  0.00  0.00    +0.061 C 
ATOM      7  C   UNL     1      32.679 -23.965 -11.697  0.00  0.00    +0.020 C 
ATOM      8  C   UNL     1      31.687 -22.267 -13.234  0.00  0.00    +0.020 C 
BRANCH   6   9
ATOM      9  C   UNL     1      31.019 -24.667 -13.509  0.00  0.00    +0.044 C 
BRANCH   9  11
ATOM     10  F   UNL     1      26.823 -22.356 -16.487  0.00  0.00    -0.204 F 
ATOM     11  C   UNL     1      29.894 -24.048 -14.307  0.00  0.00    -0.020 C 
ATOM     12  C   UNL     1      30.170 -23.048 -15.240  0.00  0.00    -0.002 C 
ATOM     13  C   UNL     1      28.581 -24.476 -14.111  0.00  0.00    -0.002 C 
ATOM     14  C   UNL     1      29.132 -22.477 -15.977  0.00  0.00    +0.029 C 
ATOM     15  C   UNL     1      27.544 -23.905 -14.848  0.00  0.00    +0.029 C 
ATOM     16  C   UNL     1      27.820 -22.906 -15.781  0.00  0.00    +0.140 C 
ENDBRANCH   9  11
ENDBRANCH   6   9
ENDBRANCH   3   6
ENDBRANCH   1   4
BRANCH   1  18
ATOM     17  O   UNL     1      33.224 -23.420 -16.810  0.00  0.00    -0.270 OA
ATOM     18  N   UNL     1      35.280 -22.602 -16.115  0.00  0.00    -0.295 N 
ATOM     19  C   UNL     1      34.153 -22.625 -16.924  0.00  0.00    +0.246 C 
ATOM     20  H   UNL     1      35.972 -21.924 -16.287  0.00  0.00    +0.150 HD
BRANCH  19  21
ATOM     21  C   UNL     1      34.116 -21.618 -18.015  0.00  0.00    +0.053 C 
ATOM     22  C   UNL     1      35.301 -21.049 -18.481  0.00  0.00    +0.005 C 
ATOM     23  C   UNL     1      32.894 -21.241 -18.574  0.00  0.00    +0.005 C 
ATOM     24  C   UNL     1      34.044 -19.726 -20.064  0.00  0.00    +0.000 C 
ATOM     25  C   UNL     1      35.265 -20.102 -19.505  0.00  0.00    +0.000 C 
ATOM     26  C   UNL     1      32.858 -20.295 -19.598  0.00  0.00    +0.000 C 
BRANCH  24  27
ATOM     27  C   UNL     1      34.006 -18.744 -21.126  0.00  0.00    +0.000 C 
ATOM     28  C   UNL     1      34.431 -17.438 -20.884  0.00  0.00    +0.000 C 
ATOM     29  C   UNL     1      33.547 -19.105 -22.393  0.00  0.00    +0.000 C 
ATOM     30  C   UNL     1      34.396 -16.492 -21.909  0.00  0.00    +0.000 C 
ATOM     31  C   UNL     1      33.512 -18.158 -23.417  0.00  0.00    +0.000 C 
ATOM     32  C   UNL     1      33.936 -16.852 -23.175  0.00  0.00    +0.000 C 
ENDBRANCH  24  27
ENDBRANCH  19  21
ENDBRANCH   1  18
BRANCH   1  33
ATOM     33  C   UNL     1      36.913 -23.458 -14.503  0.00  0.00    +0.041 C 
BRANCH  33  34
ATOM     34  C   UNL     1      37.446 -24.776 -13.938  0.00  0.00    +0.112 C 
BRANCH  34  36
ATOM     35  O   UNL     1      39.791 -24.609 -13.298  0.00  0.00    -0.250 OA
ATOM     36  C   UNL     1      38.940 -24.941 -14.112  0.00  0.00    +0.314 C 
BRANCH  36  37
ATOM     37  O   UNL     1      39.239 -25.541 -15.293  0.00  0.00    -0.480 OA
ATOM     38  H   UNL     1      40.009 -26.069 -15.369  0.00  0.00    +0.295 HD
ENDBRANCH  36  37
ENDBRANCH  34  36
ENDBRANCH  33  34
ENDBRANCH   1  33
TORSDOF 11
ENDMDL
MODEL 5
REMARK VINA RESULT:     -11.3      3.358      6.721
REMARK  Name = 16048422
REMARK  11 active torsions:
REMARK  status: ('A' for Active; 'I' for Inactive)
REMARK    1  A    between atoms: C_1  and  C_4
REMARK    2  A    between atoms: C_1  and  N_18
REMARK    3  A    between atoms: C_1  and  C_33
REMARK    4  A    between atoms: N_3  and  C_6
REMARK    5  A    between atoms: C_6  and  C_9
REMARK    6  A    between atoms: C_9  and  C_11
REMARK    7  A    between atoms: C_19  and  C_21
REMARK    8  A    between atoms: C_24  and  C_27
REMARK    9  A    between atoms: C_33  and  C_34
REMARK   10  A    between atoms: C_34  and  C_36
REMARK   11  A    between atoms: C_36  and  O_37
REMARK                            x       y       z     vdW  Elec       q    Type
REMARK                         _______ _______ _______ _____ _____    ______ ____
ROOT
ATOM      1  C   UNL     1      34.420 -23.425 -15.340  0.00  0.00    +0.149 C 
ENDROOT
BRANCH   1   4
ATOM      2  O   UNL     1      33.382 -22.107 -13.597  0.00  0.00    -0.273 OA
ATOM      3  N   UNL     1      32.200 -23.892 -14.497  0.00  0.00    -0.306 N 
ATOM      4  C   UNL     1      33.293 -23.046 -14.387  0.00  0.00    +0.240 C 
ATOM      5  H   UNL     1      32.233 -24.615 -15.164  0.00  0.00    +0.149 HD
BRANCH   3   6
ATOM      6  C   UNL     1      31.016 -23.765 -13.679  0.00  0.00    +0.061 C 
ATOM      7  C   UNL     1      31.338 -24.223 -12.248  0.00  0.00    +0.020 C 
ATOM      8  C   UNL     1      30.621 -22.279 -13.641  0.00  0.00    +0.020 C 
BRANCH   6   9
ATOM      9  C   UNL     1      29.840 -24.571 -14.290  0.00  0.00    +0.044 C 
BRANCH   9  11
ATOM     10  F   UNL     1      25.569 -21.522 -16.358  0.00  0.00    -0.204 F 
ATOM     11  C   UNL     1      28.695 -23.753 -14.845  0.00  0.00    -0.020 C 
ATOM     12  C   UNL     1      28.307 -22.575 -14.207  0.00  0.00    -0.002 C 
ATOM     13  C   UNL     1      28.027 -24.178 -15.993  0.00  0.00    -0.002 C 
ATOM     14  C   UNL     1      27.251 -21.820 -14.719  0.00  0.00    +0.029 C 
ATOM     15  C   UNL     1      26.972 -23.424 -16.505  0.00  0.00    +0.029 C 
ATOM     16  C   UNL     1      26.584 -22.245 -15.867  0.00  0.00    +0.140 C 
ENDBRANCH   9  11
ENDBRANCH   6   9
ENDBRANCH   3   6
ENDBRANCH   1   4
BRANCH   1  18
ATOM     17  O   UNL     1      32.687 -23.463 -17.630  0.00  0.00    -0.270 OA
ATOM     18  N   UNL     1      34.374 -22.449 -16.402  0.00  0.00    -0.295 N 
ATOM     19  C   UNL     1      33.498 -22.553 -17.472  0.00  0.00    +0.246 C 
ATOM     20  H   UNL     1      34.988 -21.681 -16.366  0.00  0.00    +0.150 HD
BRANCH  19  21
ATOM     21  C   UNL     1      33.594 -21.482 -18.497  0.00  0.00    +0.053 C 
ATOM     22  C   UNL     1      32.435 -20.894 -19.003  0.00  0.00    +0.005 C 
ATOM     23  C   UNL     1      34.844 -21.064 -18.952  0.00  0.00    +0.005 C 
ATOM     24  C   UNL     1      33.775 -19.470 -20.421  0.00  0.00    +0.000 C 
ATOM     25  C   UNL     1      32.525 -19.889 -19.966  0.00  0.00    +0.000 C 
ATOM     26  C   UNL     1      34.935 -20.057 -19.915  0.00  0.00    +0.000 C 
BRANCH  24  27
ATOM     27  C   UNL     1      33.870 -18.427 -21.419  0.00  0.00    +0.000 C 
ATOM     28  C   UNL     1      33.516 -18.693 -22.742  0.00  0.00    +0.000 C 
ATOM     29  C   UNL     1      34.314 -17.155 -21.059  0.00  0.00    +0.000 C 
ATOM     30  C   UNL     1      33.605 -17.687 -23.704  0.00  0.00    +0.000 C 
ATOM     31  C   UNL     1      34.404 -16.149 -22.021  0.00  0.00    +0.000 C 
ATOM     32  C   UNL     1      34.050 -16.415 -23.344  0.00  0.00    +0.000 C 
ENDBRANCH  24  27
ENDBRANCH  19  21
ENDBRANCH   1  18
BRANCH   1  33
ATOM     33  C   UNL     1      35.786 -23.405 -14.644  0.00  0.00    +0.041 C 
BRANCH  33  34
ATOM     34  C   UNL     1      36.102 -24.668 -13.840  0.00  0.00    +0.112 C 
BRANCH  34  36
ATOM     35  O   UNL     1      37.890 -26.321 -13.878  0.00  0.00    -0.250 OA
ATOM     36  C   UNL     1      37.514 -25.169 -14.044  0.00  0.00    +0.314 C 
BRANCH  36  37
ATOM     37  O   UNL     1      38.337 -24.177 -14.473  0.00  0.00    -0.480 OA
ATOM     38  H   UNL     1      39.240 -24.177 -14.225  0.00  0.00    +0.295 HD
ENDBRANCH  36  37
ENDBRANCH  34  36
ENDBRANCH  33  34
ENDBRANCH   1  33
TORSDOF 11
ENDMDL
MODEL 6
REMARK VINA RESULT:     -11.0      6.727     11.673
REMARK  Name = 16048422
REMARK  11 active torsions:
REMARK  status: ('A' for Active; 'I' for Inactive)
REMARK    1  A    between atoms: C_1  and  C_4
REMARK    2  A    between atoms: C_1  and  N_18
REMARK    3  A    between atoms: C_1  and  C_33
REMARK    4  A    between atoms: N_3  and  C_6
REMARK    5  A    between atoms: C_6  and  C_9
REMARK    6  A    between atoms: C_9  and  C_11
REMARK    7  A    between atoms: C_19  and  C_21
REMARK    8  A    between atoms: C_24  and  C_27
REMARK    9  A    between atoms: C_33  and  C_34
REMARK   10  A    between atoms: C_34  and  C_36
REMARK   11  A    between atoms: C_36  and  O_37
REMARK                            x       y       z     vdW  Elec       q    Type
REMARK                         _______ _______ _______ _____ _____    ______ ____
ROOT
ATOM      1  C   UNL     1      34.542 -16.512 -22.867  0.00  0.00    +0.149 C 
ENDROOT
BRANCH   1   4
ATOM      2  O   UNL     1      33.802 -14.924 -21.200  0.00  0.00    -0.273 OA
ATOM      3  N   UNL     1      33.505 -14.403 -23.443  0.00  0.00    -0.306 N 
ATOM      4  C   UNL     1      33.926 -15.202 -22.391  0.00  0.00    +0.240 C 
ATOM      5  H   UNL     1      33.654 -14.723 -24.363  0.00  0.00    +0.149 HD
BRANCH   3   6
ATOM      6  C   UNL     1      32.859 -13.124 -23.256  0.00  0.00    +0.061 C 
ATOM      7  C   UNL     1      33.832 -12.163 -22.558  0.00  0.00    +0.020 C 
ATOM      8  C   UNL     1      32.517 -12.556 -24.643  0.00  0.00    +0.020 C 
BRANCH   6   9
ATOM      9  C   UNL     1      31.541 -13.291 -22.454  0.00  0.00    +0.044 C 
BRANCH   9  11
ATOM     10  F   UNL     1      30.738  -9.632 -18.237  0.00  0.00    -0.204 F 
ATOM     11  C   UNL     1      31.325 -12.310 -21.324  0.00  0.00    -0.020 C 
ATOM     12  C   UNL     1      31.349 -12.754 -20.002  0.00  0.00    -0.002 C 
ATOM     13  C   UNL     1      31.103 -10.962 -21.603  0.00  0.00    -0.002 C 
ATOM     14  C   UNL     1      31.152 -11.849 -18.959  0.00  0.00    +0.029 C 
ATOM     15  C   UNL     1      30.905 -10.057 -20.561  0.00  0.00    +0.029 C 
ATOM     16  C   UNL     1      30.929 -10.501 -19.239  0.00  0.00    +0.140 C 
ENDBRANCH   9  11
ENDBRANCH   6   9
ENDBRANCH   3   6
ENDBRANCH   1   4
BRANCH   1  18
ATOM     17  O   UNL     1      36.288 -18.625 -22.010  0.00  0.00    -0.270 OA
ATOM     18  N   UNL     1      34.288 -17.465 -21.814  0.00  0.00    -0.295 N 
ATOM     19  C   UNL     1      35.197 -18.455 -21.470  0.00  0.00    +0.246 C 
ATOM     20  H   UNL     1      33.439 -17.411 -21.321  0.00  0.00    +0.150 HD
BRANCH  19  21
ATOM     21  C   UNL     1      34.776 -19.375 -20.383  0.00  0.00    +0.053 C 
ATOM     22  C   UNL     1      33.424 -19.664 -20.198  0.00  0.00    +0.005 C 
ATOM     23  C   UNL     1      35.732 -19.951 -19.547  0.00  0.00    +0.005 C 
ATOM     24  C   UNL     1      33.984 -21.104 -18.341  0.00  0.00    +0.000 C 
ATOM     25  C   UNL     1      33.028 -20.528 -19.177  0.00  0.00    +0.000 C 
ATOM     26  C   UNL     1      35.337 -20.816 -18.526  0.00  0.00    +0.000 C 
BRANCH  24  27
ATOM     27  C   UNL     1      33.575 -22.000 -17.282  0.00  0.00    +0.000 C 
ATOM     28  C   UNL     1      34.478 -22.356 -16.281  0.00  0.00    +0.000 C 
ATOM     29  C   UNL     1      32.275 -22.508 -17.261  0.00  0.00    +0.000 C 
ATOM     30  C   UNL     1      34.082 -23.219 -15.259  0.00  0.00    +0.000 C 
ATOM     31  C   UNL     1      31.880 -23.371 -16.239  0.00  0.00    +0.000 C 
ATOM     32  C   UNL     1      32.784 -23.727 -15.238  0.00  0.00    +0.000 C 
ENDBRANCH  24  27
ENDBRANCH  19  21
ENDBRANCH   1  18
BRANCH   1  33
ATOM     33  C   UNL     1      33.922 -16.985 -24.187  0.00  0.00    +0.041 C 
BRANCH  33  34
ATOM     34  C   UNL     1      32.670 -17.849 -24.022  0.00  0.00    +0.112 C 
BRANCH  34  36
ATOM     35  O   UNL     1      30.501 -18.017 -25.118  0.00  0.00    -0.250 OA
ATOM     36  C   UNL     1      31.494 -17.360 -24.838  0.00  0.00    +0.314 C 
BRANCH  36  37
ATOM     37  O   UNL     1      31.653 -16.063 -25.211  0.00  0.00    -0.480 OA
ATOM     38  H   UNL     1      32.102 -15.464 -24.648  0.00  0.00    +0.295 HD
ENDBRANCH  36  37
ENDBRANCH  34  36
ENDBRANCH  33  34
ENDBRANCH   1  33
TORSDOF 11
ENDMDL
MODEL 7
REMARK VINA RESULT:     -10.9     11.901     16.754
REMARK  Name = 16048422
REMARK  11 active torsions:
REMARK  status: ('A' for Active; 'I' for Inactive)
REMARK    1  A    between atoms: C_1  and  C_4
REMARK    2  A    between atoms: C_1  and  N_18
REMARK    3  A    between atoms: C_1  and  C_33
REMARK    4  A    between atoms: N_3  and  C_6
REMARK    5  A    between atoms: C_6  and  C_9
REMARK    6  A    between atoms: C_9  and  C_11
REMARK    7  A    between atoms: C_19  and  C_21
REMARK    8  A    between atoms: C_24  and  C_27
REMARK    9  A    between atoms: C_33  and  C_34
REMARK   10  A    between atoms: C_34  and  C_36
REMARK   11  A    between atoms: C_36  and  O_37
REMARK                            x       y       z     vdW  Elec       q    Type
REMARK                         _______ _______ _______ _____ _____    ______ ____
ROOT
ATOM      1  C   UNL     1      30.301  -6.929 -21.627  0.00  0.00    +0.149 C 
ENDROOT
BRANCH   1   4
ATOM      2  O   UNL     1      29.764  -6.760 -23.979  0.00  0.00    -0.273 OA
ATOM      3  N   UNL     1      30.875  -4.993 -22.961  0.00  0.00    -0.306 N 
ATOM      4  C   UNL     1      30.262  -6.238 -22.984  0.00  0.00    +0.240 C 
ATOM      5  H   UNL     1      31.243  -4.668 -22.108  0.00  0.00    +0.149 HD
BRANCH   3   6
ATOM      6  C   UNL     1      31.000  -4.152 -24.129  0.00  0.00    +0.061 C 
ATOM      7  C   UNL     1      29.761  -4.335 -25.019  0.00  0.00    +0.020 C 
ATOM      8  C   UNL     1      31.053  -2.689 -23.658  0.00  0.00    +0.020 C 
BRANCH   6   9
ATOM      9  C   UNL     1      32.311  -4.470 -24.895  0.00  0.00    +0.044 C 
BRANCH   9  11
ATOM     10  F   UNL     1      35.039  -9.137 -23.286  0.00  0.00    -0.204 F 
ATOM     11  C   UNL     1      33.042  -5.721 -24.463  0.00  0.00    -0.020 C 
ATOM     12  C   UNL     1      33.001  -6.863 -25.263  0.00  0.00    -0.002 C 
ATOM     13  C   UNL     1      33.757  -5.733 -23.266  0.00  0.00    -0.002 C 
ATOM     14  C   UNL     1      33.677  -8.017 -24.866  0.00  0.00    +0.029 C 
ATOM     15  C   UNL     1      34.433  -6.887 -22.869  0.00  0.00    +0.029 C 
ATOM     16  C   UNL     1      34.392  -8.029 -23.669  0.00  0.00    +0.140 C 
ENDBRANCH   9  11
ENDBRANCH   6   9
ENDBRANCH   3   6
ENDBRANCH   1   4
BRANCH   1  18
ATOM     17  O   UNL     1      30.281  -9.150 -19.808  0.00  0.00    -0.270 OA
ATOM     18  N   UNL     1      30.812  -8.253 -21.880  0.00  0.00    -0.295 N 
ATOM     19  C   UNL     1      30.757  -9.267 -20.934  0.00  0.00    +0.246 C 
ATOM     20  H   UNL     1      31.215  -8.446 -22.757  0.00  0.00    +0.150 HD
BRANCH  19  21
ATOM     21  C   UNL     1      31.351 -10.567 -21.340  0.00  0.00    +0.053 C 
ATOM     22  C   UNL     1      31.059 -11.723 -20.616  0.00  0.00    +0.005 C 
ATOM     23  C   UNL     1      32.200 -10.630 -22.444  0.00  0.00    +0.005 C 
ATOM     24  C   UNL     1      32.467 -13.007 -22.101  0.00  0.00    +0.000 C 
ATOM     25  C   UNL     1      31.618 -12.944 -20.997  0.00  0.00    +0.000 C 
ATOM     26  C   UNL     1      32.759 -11.851 -22.826  0.00  0.00    +0.000 C 
BRANCH  24  27
ATOM     27  C   UNL     1      33.046 -14.273 -22.497  0.00  0.00    +0.000 C 
ATOM     28  C   UNL     1      33.724 -15.053 -21.560  0.00  0.00    +0.000 C 
ATOM     29  C   UNL     1      32.926 -14.714 -23.815  0.00  0.00    +0.000 C 
ATOM     30  C   UNL     1      34.281 -16.274 -21.941  0.00  0.00    +0.000 C 
ATOM     31  C   UNL     1      33.484 -15.934 -24.196  0.00  0.00    +0.000 C 
ATOM     32  C   UNL     1      34.161 -16.714 -23.259  0.00  0.00    +0.000 C 
ENDBRANCH  24  27
ENDBRANCH  19  21
ENDBRANCH   1  18
BRANCH   1  33
ATOM     33  C   UNL     1      31.199  -6.182 -20.633  0.00  0.00    +0.041 C 
BRANCH  33  34
ATOM     34  C   UNL     1      30.442  -5.469 -19.511  0.00  0.00    +0.112 C 
BRANCH  34  36
ATOM     35  O   UNL     1      31.241  -5.138 -17.234  0.00  0.00    -0.250 OA
ATOM     36  C   UNL     1      30.883  -5.893 -18.128  0.00  0.00    +0.314 C 
BRANCH  36  37
ATOM     37  O   UNL     1      30.808  -7.240 -17.973  0.00  0.00    -0.480 OA
ATOM     38  H   UNL     1      29.978  -7.651 -17.830  0.00  0.00    +0.295 HD
ENDBRANCH  36  37
ENDBRANCH  34  36
ENDBRANCH  33  34
ENDBRANCH   1  33
TORSDOF 11
ENDMDL
MODEL 8
REMARK VINA RESULT:     -10.9      7.284     12.572
REMARK  Name = 16048422
REMARK  11 active torsions:
REMARK  status: ('A' for Active; 'I' for Inactive)
REMARK    1  A    between atoms: C_1  and  C_4
REMARK    2  A    between atoms: C_1  and  N_18
REMARK    3  A    between atoms: C_1  and  C_33
REMARK    4  A    between atoms: N_3  and  C_6
REMARK    5  A    between atoms: C_6  and  C_9
REMARK    6  A    between atoms: C_9  and  C_11
REMARK    7  A    between atoms: C_19  and  C_21
REMARK    8  A    between atoms: C_24  and  C_27
REMARK    9  A    between atoms: C_33  and  C_34
REMARK   10  A    between atoms: C_34  and  C_36
REMARK   11  A    between atoms: C_36  and  O_37
REMARK                            x       y       z     vdW  Elec       q    Type
REMARK                         _______ _______ _______ _____ _____    ______ ____
ROOT
ATOM      1  C   UNL     1      34.495 -16.529 -22.938  0.00  0.00    +0.149 C 
ENDROOT
BRANCH   1   4
ATOM      2  O   UNL     1      33.723 -14.910 -21.316  0.00  0.00    -0.273 OA
ATOM      3  N   UNL     1      33.432 -14.450 -23.573  0.00  0.00    -0.306 N 
ATOM      4  C   UNL     1      33.858 -15.217 -22.499  0.00  0.00    +0.240 C 
ATOM      5  H   UNL     1      33.590 -14.791 -24.484  0.00  0.00    +0.149 HD
BRANCH   3   6
ATOM      6  C   UNL     1      32.766 -13.177 -23.422  0.00  0.00    +0.061 C 
ATOM      7  C   UNL     1      32.096 -12.795 -24.750  0.00  0.00    +0.020 C 
ATOM      8  C   UNL     1      31.674 -13.335 -22.350  0.00  0.00    +0.020 C 
BRANCH   6   9
ATOM      9  C   UNL     1      33.766 -12.090 -22.948  0.00  0.00    +0.044 C 
BRANCH   9  11
ATOM     10  F   UNL     1      32.565  -6.795 -24.476  0.00  0.00    -0.204 F 
ATOM     11  C   UNL     1      33.444 -10.670 -23.358  0.00  0.00    -0.020 C 
ATOM     12  C   UNL     1      32.377  -9.998 -22.762  0.00  0.00    -0.002 C 
ATOM     13  C   UNL     1      34.213 -10.034 -24.331  0.00  0.00    -0.002 C 
ATOM     14  C   UNL     1      32.081  -8.688 -23.139  0.00  0.00    +0.029 C 
ATOM     15  C   UNL     1      33.917  -8.724 -24.708  0.00  0.00    +0.029 C 
ATOM     16  C   UNL     1      32.850  -8.052 -24.112  0.00  0.00    +0.140 C 
ENDBRANCH   9  11
ENDBRANCH   6   9
ENDBRANCH   3   6
ENDBRANCH   1   4
BRANCH   1  18
ATOM     17  O   UNL     1      36.139 -18.755 -22.172  0.00  0.00    -0.270 OA
ATOM     18  N   UNL     1      34.236 -17.463 -21.870  0.00  0.00    -0.295 N 
ATOM     19  C   UNL     1      35.094 -18.512 -21.573  0.00  0.00    +0.246 C 
ATOM     20  H   UNL     1      33.420 -17.352 -21.331  0.00  0.00    +0.150 HD
BRANCH  19  21
ATOM     21  C   UNL     1      34.671 -19.402 -20.461  0.00  0.00    +0.053 C 
ATOM     22  C   UNL     1      35.629 -19.997 -19.641  0.00  0.00    +0.005 C 
ATOM     23  C   UNL     1      33.315 -19.642 -20.238  0.00  0.00    +0.005 C 
ATOM     24  C   UNL     1      33.876 -21.073 -18.374  0.00  0.00    +0.000 C 
ATOM     25  C   UNL     1      35.232 -20.833 -18.597  0.00  0.00    +0.000 C 
ATOM     26  C   UNL     1      32.918 -20.477 -19.193  0.00  0.00    +0.000 C 
BRANCH  24  27
ATOM     27  C   UNL     1      33.464 -21.939 -17.291  0.00  0.00    +0.000 C 
ATOM     28  C   UNL     1      34.396 -22.365 -16.344  0.00  0.00    +0.000 C 
ATOM     29  C   UNL     1      32.134 -22.348 -17.192  0.00  0.00    +0.000 C 
ATOM     30  C   UNL     1      33.998 -23.200 -15.300  0.00  0.00    +0.000 C 
ATOM     31  C   UNL     1      31.736 -23.183 -16.148  0.00  0.00    +0.000 C 
ATOM     32  C   UNL     1      32.668 -23.609 -15.202  0.00  0.00    +0.000 C 
ENDBRANCH  24  27
ENDBRANCH  19  21
ENDBRANCH   1  18
BRANCH   1  33
ATOM     33  C   UNL     1      33.901 -17.036 -24.258  0.00  0.00    +0.041 C 
BRANCH  33  34
ATOM     34  C   UNL     1      32.663 -17.920 -24.093  0.00  0.00    +0.112 C 
BRANCH  34  36
ATOM     35  O   UNL     1      30.462 -18.078 -25.125  0.00  0.00    -0.250 OA
ATOM     36  C   UNL     1      31.468 -17.427 -24.879  0.00  0.00    +0.314 C 
BRANCH  36  37
ATOM     37  O   UNL     1      31.626 -16.135 -25.267  0.00  0.00    -0.480 OA
ATOM     38  H   UNL     1      32.432 -15.858 -25.656  0.00  0.00    +0.295 HD
ENDBRANCH  36  37
ENDBRANCH  34  36
ENDBRANCH  33  34
ENDBRANCH   1  33
TORSDOF 11
ENDMDL
MODEL 9
REMARK VINA RESULT:     -10.8     11.893     16.718
REMARK  Name = 16048422
REMARK  11 active torsions:
REMARK  status: ('A' for Active; 'I' for Inactive)
REMARK    1  A    between atoms: C_1  and  C_4
REMARK    2  A    between atoms: C_1  and  N_18
REMARK    3  A    between atoms: C_1  and  C_33
REMARK    4  A    between atoms: N_3  and  C_6
REMARK    5  A    between atoms: C_6  and  C_9
REMARK    6  A    between atoms: C_9  and  C_11
REMARK    7  A    between atoms: C_19  and  C_21
REMARK    8  A    between atoms: C_24  and  C_27
REMARK    9  A    between atoms: C_33  and  C_34
REMARK   10  A    between atoms: C_34  and  C_36
REMARK   11  A    between atoms: C_36  and  O_37
REMARK                            x       y       z     vdW  Elec       q    Type
REMARK                         _______ _______ _______ _____ _____    ______ ____
ROOT
ATOM      1  C   UNL     1      30.807  -8.511 -20.867  0.00  0.00    +0.149 C 
ENDROOT
BRANCH   1   4
ATOM      2  O   UNL     1      30.816  -6.593 -22.341  0.00  0.00    -0.273 OA
ATOM      3  N   UNL     1      32.478  -8.196 -22.589  0.00  0.00    -0.306 N 
ATOM      4  C   UNL     1      31.352  -7.645 -21.996  0.00  0.00    +0.240 C 
ATOM      5  H   UNL     1      32.826  -9.045 -22.233  0.00  0.00    +0.149 HD
BRANCH   3   6
ATOM      6  C   UNL     1      33.164  -7.584 -23.704  0.00  0.00    +0.061 C 
ATOM      7  C   UNL     1      34.244  -8.545 -24.222  0.00  0.00    +0.020 C 
ATOM      8  C   UNL     1      32.137  -7.350 -24.824  0.00  0.00    +0.020 C 
BRANCH   6   9
ATOM      9  C   UNL     1      33.763  -6.214 -23.292  0.00  0.00    +0.044 C 
BRANCH   9  11
ATOM     10  F   UNL     1      33.132  -2.023 -27.014  0.00  0.00    -0.204 F 
ATOM     11  C   UNL     1      33.594  -5.090 -24.290  0.00  0.00    -0.020 C 
ATOM     12  C   UNL     1      32.507  -4.221 -24.184  0.00  0.00    -0.002 C 
ATOM     13  C   UNL     1      34.524  -4.923 -25.315  0.00  0.00    -0.002 C 
ATOM     14  C   UNL     1      32.352  -3.185 -25.104  0.00  0.00    +0.029 C 
ATOM     15  C   UNL     1      34.368  -3.886 -26.235  0.00  0.00    +0.029 C 
ATOM     16  C   UNL     1      33.282  -3.018 -26.130  0.00  0.00    +0.140 C 
ENDBRANCH   9  11
ENDBRANCH   6   9
ENDBRANCH   3   6
ENDBRANCH   1   4
BRANCH   1  18
ATOM     17  O   UNL     1      29.719 -11.039 -20.047  0.00  0.00    -0.270 OA
ATOM     18  N   UNL     1      31.412  -9.808 -21.048  0.00  0.00    -0.295 N 
ATOM     19  C   UNL     1      30.806 -10.980 -20.616  0.00  0.00    +0.246 C 
ATOM     20  H   UNL     1      32.287  -9.865 -21.495  0.00  0.00    +0.150 HD
BRANCH  19  21
ATOM     21  C   UNL     1      31.571 -12.231 -20.852  0.00  0.00    +0.053 C 
ATOM     22  C   UNL     1      32.142 -12.475 -22.101  0.00  0.00    +0.005 C 
ATOM     23  C   UNL     1      31.717 -13.162 -19.824  0.00  0.00    +0.005 C 
ATOM     24  C   UNL     1      33.006 -14.582 -21.295  0.00  0.00    +0.000 C 
ATOM     25  C   UNL     1      32.859 -13.651 -22.322  0.00  0.00    +0.000 C 
ATOM     26  C   UNL     1      32.435 -14.339 -20.045  0.00  0.00    +0.000 C 
BRANCH  24  27
ATOM     27  C   UNL     1      33.750 -15.801 -21.523  0.00  0.00    +0.000 C 
ATOM     28  C   UNL     1      34.287 -16.504 -20.445  0.00  0.00    +0.000 C 
ATOM     29  C   UNL     1      33.930 -16.276 -22.823  0.00  0.00    +0.000 C 
ATOM     30  C   UNL     1      35.004 -17.681 -20.665  0.00  0.00    +0.000 C 
ATOM     31  C   UNL     1      34.647 -17.452 -23.043  0.00  0.00    +0.000 C 
ATOM     32  C   UNL     1      35.184 -18.154 -21.964  0.00  0.00    +0.000 C 
ENDBRANCH  24  27
ENDBRANCH  19  21
ENDBRANCH   1  18
BRANCH   1  33
ATOM     33  C   UNL     1      31.157  -7.937 -19.489  0.00  0.00    +0.041 C 
BRANCH  33  34
ATOM     34  C   UNL     1      32.178  -6.799 -19.522  0.00  0.00    +0.112 C 
BRANCH  34  36
ATOM     35  O   UNL     1      31.639  -5.178 -17.785  0.00  0.00    -0.250 OA
ATOM     36  C   UNL     1      31.642  -5.498 -18.965  0.00  0.00    +0.314 C 
BRANCH  36  37
ATOM     37  O   UNL     1      31.179  -4.688 -19.953  0.00  0.00    -0.480 OA
ATOM     38  H   UNL     1      31.478  -4.803 -20.833  0.00  0.00    +0.295 HD
ENDBRANCH  36  37
ENDBRANCH  34  36
ENDBRANCH  33  34
ENDBRANCH   1  33
TORSDOF 11
ENDMDL
