MODEL 1
REMARK VINA RESULT:     -12.3      0.000      0.000
REMARK  Name = 4369496
REMARK  6 active torsions:
REMARK  status: ('A' for Active; 'I' for Inactive)
REMARK    1  A    between atoms: N_2  and  C_21
REMARK    2  A    between atoms: C_3  and  C_10
REMARK    3  A    between atoms: C_5  and  C_11
REMARK    4  A    between atoms: C_11  and  N_12
REMARK    5  A    between atoms: C_23  and  N_27
REMARK    6  A    between atoms: C_31  and  C_36
REMARK                            x       y       z     vdW  Elec       q    Type
REMARK                         _______ _______ _______ _____ _____    ______ ____
ROOT
ATOM      1  O   UNL     1      32.722 -23.621 -18.223  0.00  0.00    -0.270 OA
ATOM      2  N   UNL     1      32.503 -22.059 -16.486  0.00  0.00    -0.280 N 
ATOM      3  C   UNL     1      32.868 -22.472 -17.775  0.00  0.00    +0.249 C 
ATOM      4  H   UNL     1      32.682 -21.115 -16.274  0.00  0.00    +0.155 HD
ENDROOT
BRANCH   3  10
ATOM      5  C   UNL     1      34.666 -19.524 -20.217  0.00  0.00    -0.043 C 
ATOM      6  C   UNL     1      35.468 -20.361 -19.455  0.00  0.00    -0.006 C 
ATOM      7  C   UNL     1      33.283 -19.638 -20.190  0.00  0.00    -0.006 C 
ATOM      8  C   UNL     1      34.875 -21.335 -18.651  0.00  0.00    +0.004 C 
ATOM      9  C   UNL     1      32.690 -20.611 -19.386  0.00  0.00    +0.004 C 
ATOM     10  C   UNL     1      33.486 -21.460 -18.615  0.00  0.00    +0.054 C 
BRANCH   5  11
ATOM     11  C   UNL     1      35.305 -18.474 -21.087  0.00  0.00    -0.050 C 
BRANCH  11  12
ATOM     12  N   UNL     1      34.311 -17.711 -21.839  0.00  0.00    +0.387 N 
ATOM     13  N   UNL     1      33.505 -15.902 -23.945  0.00  0.00    +0.383 N 
ATOM     14  C   UNL     1      34.275 -18.142 -23.242  0.00  0.00    -0.100 C 
ATOM     15  C   UNL     1      34.583 -16.272 -21.752  0.00  0.00    -0.100 C 
ATOM     16  C   UNL     1      33.235 -17.342 -24.032  0.00  0.00    -0.101 C 
ATOM     17  C   UNL     1      33.542 -15.470 -22.542  0.00  0.00    -0.101 C 
ATOM     18  C   UNL     1      32.510 -15.140 -24.696  0.00  0.00    -0.101 C 
ATOM     19  H   UNL     1      33.397 -17.891 -21.425  0.00  0.00    -0.079 HD
ATOM     20  H   UNL     1      34.420 -15.721 -24.361  0.00  0.00    -0.080 HD
ENDBRANCH  11  12
ENDBRANCH   5  11
ENDBRANCH   3  10
BRANCH   2  21
ATOM     21  C   UNL     1      31.911 -22.822 -15.450  0.00  0.00    +0.052 C 
ATOM     22  C   UNL     1      32.500 -22.833 -14.197  0.00  0.00    +0.030 C 
ATOM     23  C   UNL     1      31.918 -23.586 -13.177  0.00  0.00    +0.059 C 
ATOM     24  C   UNL     1      30.757 -23.540 -15.714  0.00  0.00    +0.015 C 
ATOM     25  C   UNL     1      30.755 -24.315 -13.425  0.00  0.00    +0.015 C 
ATOM     26  C   UNL     1      30.175 -24.292 -14.693  0.00  0.00    +0.003 C 
BRANCH  23  27
ATOM     27  N   UNL     1      32.504 -23.607 -11.894  0.00  0.00    -0.247 N 
ATOM     28  N   UNL     1      34.769 -23.941 -12.409  0.00  0.00    -0.337 NA
ATOM     29  N   UNL     1      34.036 -23.739 -10.122  0.00  0.00    -0.170 NA
ATOM     30  C   UNL     1      33.832 -23.770 -11.455  0.00  0.00    +0.149 C 
ATOM     31  C   UNL     1      36.029 -24.094 -11.952  0.00  0.00    +0.147 C 
ATOM     32  C   UNL     1      36.367 -24.080 -10.615  0.00  0.00    +0.055 C 
ATOM     33  C   UNL     1      35.319 -23.897  -9.736  0.00  0.00    +0.114 C 
ATOM     34  H   UNL     1      31.857 -23.485 -11.162  0.00  0.00    +0.165 HD
BRANCH  31  36
ATOM     35  N   UNL     1      38.011 -23.546 -15.061  0.00  0.00    -0.242 NA
ATOM     36  C   UNL     1      37.033 -24.275 -12.973  0.00  0.00    +0.050 C 
ATOM     37  C   UNL     1      37.966 -25.304 -12.888  0.00  0.00    +0.006 C 
ATOM     38  C   UNL     1      37.098 -23.432 -14.071  0.00  0.00    +0.101 C 
ATOM     39  C   UNL     1      38.921 -25.454 -13.887  0.00  0.00    +0.021 C 
ATOM     40  C   UNL     1      38.901 -24.557 -14.943  0.00  0.00    +0.099 C 
ENDBRANCH  31  36
ENDBRANCH  23  27
ENDBRANCH   2  21
TORSDOF 6
ENDMDL
MODEL 2
REMARK VINA RESULT:     -12.2      2.941      5.988
REMARK  Name = 4369496
REMARK  6 active torsions:
REMARK  status: ('A' for Active; 'I' for Inactive)
REMARK    1  A    between atoms: N_2  and  C_21
REMARK    2  A    between atoms: C_3  and  C_10
REMARK    3  A    between atoms: C_5  and  C_11
REMARK    4  A    between atoms: C_11  and  N_12
REMARK    5  A    between atoms: C_23  and  N_27
REMARK    6  A    between atoms: C_31  and  C_36
REMARK                            x       y       z     vdW  Elec       q    Type
REMARK                         _______ _______ _______ _____ _____    ______ ____
ROOT
ATOM      1  O   UNL     1      35.649 -17.587 -20.256  0.00  0.00    -0.270 OA
ATOM      2  N   UNL     1      33.600 -18.660 -20.647  0.00  0.00    -0.280 N 
ATOM      3  C   UNL     1      34.537 -17.629 -20.805  0.00  0.00    +0.249 C 
ATOM      4  H   UNL     1      32.760 -18.554 -21.147  0.00  0.00    +0.155 HD
ENDROOT
BRANCH   3  10
ATOM      5  C   UNL     1      33.360 -14.429 -23.308  0.00  0.00    -0.043 C 
ATOM      6  C   UNL     1      33.667 -15.659 -23.871  0.00  0.00    -0.006 C 
ATOM      7  C   UNL     1      33.433 -14.232 -21.936  0.00  0.00    -0.006 C 
ATOM      8  C   UNL     1      34.054 -16.715 -23.045  0.00  0.00    +0.004 C 
ATOM      9  C   UNL     1      33.821 -15.288 -21.111  0.00  0.00    +0.004 C 
ATOM     10  C   UNL     1      34.131 -16.529 -21.665  0.00  0.00    +0.054 C 
BRANCH   5  11
ATOM     11  C   UNL     1      32.941 -13.289 -24.198  0.00  0.00    -0.050 C 
BRANCH  11  12
ATOM     12  N   UNL     1      33.239 -11.991 -23.597  0.00  0.00    +0.387 N 
ATOM     13  N   UNL     1      32.828  -9.148 -23.270  0.00  0.00    +0.383 N 
ATOM     14  C   UNL     1      32.070 -11.468 -22.880  0.00  0.00    -0.100 C 
ATOM     15  C   UNL     1      33.684 -11.034 -24.617  0.00  0.00    -0.100 C 
ATOM     16  C   UNL     1      32.381 -10.105 -22.251  0.00  0.00    -0.101 C 
ATOM     17  C   UNL     1      33.996  -9.671 -23.989  0.00  0.00    -0.101 C 
ATOM     18  C   UNL     1      33.127  -7.851 -22.667  0.00  0.00    -0.101 C 
ATOM     19  H   UNL     1      33.996 -12.121 -22.926  0.00  0.00    -0.079 HD
ATOM     20  H   UNL     1      32.070  -9.016 -23.941  0.00  0.00    -0.080 HD
ENDBRANCH  11  12
ENDBRANCH   5  11
ENDBRANCH   3  10
BRANCH   2  21
ATOM     21  C   UNL     1      33.705 -19.834 -19.861  0.00  0.00    +0.052 C 
ATOM     22  C   UNL     1      32.585 -20.305 -19.197  0.00  0.00    +0.030 C 
ATOM     23  C   UNL     1      32.689 -21.460 -18.421  0.00  0.00    +0.059 C 
ATOM     24  C   UNL     1      34.924 -20.483 -19.775  0.00  0.00    +0.015 C 
ATOM     25  C   UNL     1      33.910 -22.127 -18.324  0.00  0.00    +0.015 C 
ATOM     26  C   UNL     1      35.028 -21.639 -19.000  0.00  0.00    +0.003 C 
BRANCH  23  27
ATOM     27  N   UNL     1      31.558 -21.955 -17.738  0.00  0.00    -0.247 N 
ATOM     28  N   UNL     1      32.493 -22.631 -15.695  0.00  0.00    -0.337 NA
ATOM     29  N   UNL     1      30.137 -22.895 -16.126  0.00  0.00    -0.170 NA
ATOM     30  C   UNL     1      31.388 -22.520 -16.460  0.00  0.00    +0.149 C 
ATOM     31  C   UNL     1      32.293 -23.176 -14.477  0.00  0.00    +0.147 C 
ATOM     32  C   UNL     1      31.062 -23.598 -14.019  0.00  0.00    +0.055 C 
ATOM     33  C   UNL     1      30.009 -23.432 -14.894  0.00  0.00    +0.114 C 
ATOM     34  H   UNL     1      30.725 -21.895 -18.259  0.00  0.00    +0.165 HD
BRANCH  31  36
ATOM     35  N   UNL     1      34.488 -24.023 -11.586  0.00  0.00    -0.242 NA
ATOM     36  C   UNL     1      33.475 -23.295 -13.657  0.00  0.00    +0.050 C 
ATOM     37  C   UNL     1      34.706 -22.824 -14.101  0.00  0.00    +0.006 C 
ATOM     38  C   UNL     1      33.420 -23.880 -12.403  0.00  0.00    +0.101 C 
ATOM     39  C   UNL     1      35.827 -22.952 -13.289  0.00  0.00    +0.021 C 
ATOM     40  C   UNL     1      35.666 -23.553 -12.051  0.00  0.00    +0.099 C 
ENDBRANCH  31  36
ENDBRANCH  23  27
ENDBRANCH   2  21
TORSDOF 6
ENDMDL
MODEL 3
REMARK VINA RESULT:     -11.3      6.853     15.443
REMARK  Name = 4369496
REMARK  6 active torsions:
REMARK  status: ('A' for Active; 'I' for Inactive)
REMARK    1  A    between atoms: N_2  and  C_21
REMARK    2  A    between atoms: C_3  and  C_10
REMARK    3  A    between atoms: C_5  and  C_11
REMARK    4  A    between atoms: C_11  and  N_12
REMARK    5  A    between atoms: C_23  and  N_27
REMARK    6  A    between atoms: C_31  and  C_36
REMARK                            x       y       z     vdW  Elec       q    Type
REMARK                         _______ _______ _______ _____ _____    ______ ____
ROOT
ATOM      1  O   UNL     1      32.301 -14.610 -24.083  0.00  0.00    -0.270 OA
ATOM      2  N   UNL     1      33.600 -13.246 -22.685  0.00  0.00    -0.280 N 
ATOM      3  C   UNL     1      33.153 -14.475 -23.190  0.00  0.00    +0.249 C 
ATOM      4  H   UNL     1      34.281 -13.298 -21.976  0.00  0.00    +0.155 HD
ENDROOT
BRANCH   3  10
ATOM      5  C   UNL     1      34.836 -17.927 -21.418  0.00  0.00    -0.043 C 
ATOM      6  C   UNL     1      34.570 -17.919 -22.779  0.00  0.00    -0.006 C 
ATOM      7  C   UNL     1      34.558 -16.820 -20.628  0.00  0.00    -0.006 C 
ATOM      8  C   UNL     1      34.016 -16.780 -23.364  0.00  0.00    +0.004 C 
ATOM      9  C   UNL     1      34.004 -15.681 -21.213  0.00  0.00    +0.004 C 
ATOM     10  C   UNL     1      33.732 -15.661 -22.581  0.00  0.00    +0.054 C 
BRANCH   5  11
ATOM     11  C   UNL     1      35.436 -19.155 -20.786  0.00  0.00    -0.050 C 
BRANCH  11  12
ATOM     12  N   UNL     1      34.589 -19.688 -19.720  0.00  0.00    +0.387 N 
ATOM     13  N   UNL     1      32.973 -21.753 -18.503  0.00  0.00    +0.383 N 
ATOM     14  C   UNL     1      35.201 -20.874 -19.111  0.00  0.00    -0.100 C 
ATOM     15  C   UNL     1      33.249 -20.007 -20.229  0.00  0.00    -0.100 C 
ATOM     16  C   UNL     1      34.313 -21.435 -17.995  0.00  0.00    -0.101 C 
ATOM     17  C   UNL     1      32.360 -20.566 -19.113  0.00  0.00    -0.101 C 
ATOM     18  C   UNL     1      32.126 -22.284 -17.436  0.00  0.00    -0.101 C 
ATOM     19  H   UNL     1      34.497 -18.970 -19.002  0.00  0.00    -0.079 HD
ATOM     20  H   UNL     1      33.064 -22.473 -19.220  0.00  0.00    -0.080 HD
ENDBRANCH  11  12
ENDBRANCH   5  11
ENDBRANCH   3  10
BRANCH   2  21
ATOM     21  C   UNL     1      33.202 -11.940 -23.062  0.00  0.00    +0.052 C 
ATOM     22  C   UNL     1      32.586 -11.125 -22.127  0.00  0.00    +0.030 C 
ATOM     23  C   UNL     1      32.192  -9.839 -22.499  0.00  0.00    +0.059 C 
ATOM     24  C   UNL     1      33.437 -11.509 -24.356  0.00  0.00    +0.015 C 
ATOM     25  C   UNL     1      32.422  -9.388 -23.798  0.00  0.00    +0.015 C 
ATOM     26  C   UNL     1      33.044 -10.222 -24.727  0.00  0.00    +0.003 C 
BRANCH  23  27
ATOM     27  N   UNL     1      31.565  -8.995 -21.559  0.00  0.00    -0.247 N 
ATOM     28  N   UNL     1      31.878  -6.882 -22.532  0.00  0.00    -0.337 NA
ATOM     29  N   UNL     1      30.719  -7.119 -20.432  0.00  0.00    -0.170 NA
ATOM     30  C   UNL     1      31.379  -7.600 -21.505  0.00  0.00    +0.149 C 
ATOM     31  C   UNL     1      31.682  -5.550 -22.447  0.00  0.00    +0.147 C 
ATOM     32  C   UNL     1      31.022  -4.937 -21.402  0.00  0.00    +0.055 C 
ATOM     33  C   UNL     1      30.558  -5.779 -20.413  0.00  0.00    +0.114 C 
ATOM     34  H   UNL     1      31.183  -9.475 -20.789  0.00  0.00    +0.165 HD
BRANCH  31  36
ATOM     35  N   UNL     1      32.027  -2.868 -25.012  0.00  0.00    -0.242 NA
ATOM     36  C   UNL     1      32.215  -4.782 -23.546  0.00  0.00    +0.050 C 
ATOM     37  C   UNL     1      33.384  -5.170 -24.194  0.00  0.00    +0.006 C 
ATOM     38  C   UNL     1      31.581  -3.633 -23.991  0.00  0.00    +0.101 C 
ATOM     39  C   UNL     1      33.873  -4.409 -25.250  0.00  0.00    +0.021 C 
ATOM     40  C   UNL     1      33.164  -3.277 -25.616  0.00  0.00    +0.099 C 
ENDBRANCH  31  36
ENDBRANCH  23  27
ENDBRANCH   2  21
TORSDOF 6
ENDMDL
MODEL 4
REMARK VINA RESULT:     -11.1      5.186     13.758
REMARK  Name = 4369496
REMARK  6 active torsions:
REMARK  status: ('A' for Active; 'I' for Inactive)
REMARK    1  A    between atoms: N_2  and  C_21
REMARK    2  A    between atoms: C_3  and  C_10
REMARK    3  A    between atoms: C_5  and  C_11
REMARK    4  A    between atoms: C_11  and  N_12
REMARK    5  A    between atoms: C_23  and  N_27
REMARK    6  A    between atoms: C_31  and  C_36
REMARK                            x       y       z     vdW  Elec       q    Type
REMARK                         _______ _______ _______ _____ _____    ______ ____
ROOT
ATOM      1  O   UNL     1      34.088 -17.124 -23.157  0.00  0.00    -0.270 OA
ATOM      2  N   UNL     1      33.789 -15.791 -21.250  0.00  0.00    -0.280 N 
ATOM      3  C   UNL     1      34.108 -16.978 -21.924  0.00  0.00    +0.249 C 
ATOM      4  H   UNL     1      33.850 -15.827 -20.269  0.00  0.00    +0.155 HD
ENDROOT
BRANCH   3  10
ATOM      5  C   UNL     1      35.131 -20.275 -19.481  0.00  0.00    -0.043 C 
ATOM      6  C   UNL     1      36.115 -19.373 -19.858  0.00  0.00    -0.006 C 
ATOM      7  C   UNL     1      33.816 -20.113 -19.893  0.00  0.00    -0.006 C 
ATOM      8  C   UNL     1      35.778 -18.285 -20.663  0.00  0.00    +0.004 C 
ATOM      9  C   UNL     1      33.478 -19.025 -20.698  0.00  0.00    +0.004 C 
ATOM     10  C   UNL     1      34.459 -18.111 -21.084  0.00  0.00    +0.054 C 
BRANCH   5  11
ATOM     11  C   UNL     1      35.495 -21.449 -18.611  0.00  0.00    -0.050 C 
BRANCH  11  12
ATOM     12  N   UNL     1      34.574 -21.598 -17.485  0.00  0.00    +0.387 N 
ATOM     13  N   UNL     1      33.232 -23.140 -15.441  0.00  0.00    +0.383 N 
ATOM     14  C   UNL     1      35.286 -22.056 -16.287  0.00  0.00    -0.100 C 
ATOM     15  C   UNL     1      33.486 -22.524 -17.821  0.00  0.00    -0.100 C 
ATOM     16  C   UNL     1      34.322 -22.215 -15.107  0.00  0.00    -0.101 C 
ATOM     17  C   UNL     1      32.521 -22.683 -16.641  0.00  0.00    -0.101 C 
ATOM     18  C   UNL     1      32.312 -23.287 -14.316  0.00  0.00    -0.101 C 
ATOM     19  H   UNL     1      34.168 -20.684 -17.287  0.00  0.00    -0.079 HD
ATOM     20  H   UNL     1      33.638 -24.056 -15.638  0.00  0.00    -0.080 HD
ENDBRANCH  11  12
ENDBRANCH   5  11
ENDBRANCH   3  10
BRANCH   2  21
ATOM     21  C   UNL     1      33.390 -14.546 -21.796  0.00  0.00    +0.052 C 
ATOM     22  C   UNL     1      32.647 -13.674 -21.020  0.00  0.00    +0.030 C 
ATOM     23  C   UNL     1      32.253 -12.448 -21.559  0.00  0.00    +0.059 C 
ATOM     24  C   UNL     1      33.754 -14.230 -23.094  0.00  0.00    +0.015 C 
ATOM     25  C   UNL     1      32.610 -12.114 -22.865  0.00  0.00    +0.015 C 
ATOM     26  C   UNL     1      33.361 -13.005 -23.633  0.00  0.00    +0.003 C 
BRANCH  23  27
ATOM     27  N   UNL     1      31.495 -11.547 -20.782  0.00  0.00    -0.247 N 
ATOM     28  N   UNL     1      31.970  -9.500 -21.827  0.00  0.00    -0.337 NA
ATOM     29  N   UNL     1      30.502  -9.605 -19.919  0.00  0.00    -0.170 NA
ATOM     30  C   UNL     1      31.315 -10.152 -20.846  0.00  0.00    +0.149 C 
ATOM     31  C   UNL     1      31.774  -8.166 -21.858  0.00  0.00    +0.147 C 
ATOM     32  C   UNL     1      30.967  -7.489 -20.967  0.00  0.00    +0.055 C 
ATOM     33  C   UNL     1      30.350  -8.267 -20.009  0.00  0.00    +0.114 C 
ATOM     34  H   UNL     1      30.996 -11.978 -20.051  0.00  0.00    +0.165 HD
BRANCH  31  36
ATOM     35  N   UNL     1      32.683  -6.945 -25.260  0.00  0.00    -0.242 NA
ATOM     36  C   UNL     1      32.475  -7.468 -22.908  0.00  0.00    +0.050 C 
ATOM     37  C   UNL     1      33.578  -6.668 -22.627  0.00  0.00    +0.006 C 
ATOM     38  C   UNL     1      32.072  -7.572 -24.230  0.00  0.00    +0.101 C 
ATOM     39  C   UNL     1      34.234  -6.008 -23.660  0.00  0.00    +0.021 C 
ATOM     40  C   UNL     1      33.750  -6.178 -24.947  0.00  0.00    +0.099 C 
ENDBRANCH  31  36
ENDBRANCH  23  27
ENDBRANCH   2  21
TORSDOF 6
ENDMDL
MODEL 5
REMARK VINA RESULT:     -10.9      5.570     14.214
REMARK  Name = 4369496
REMARK  6 active torsions:
REMARK  status: ('A' for Active; 'I' for Inactive)
REMARK    1  A    between atoms: N_2  and  C_21
REMARK    2  A    between atoms: C_3  and  C_10
REMARK    3  A    between atoms: C_5  and  C_11
REMARK    4  A    between atoms: C_11  and  N_12
REMARK    5  A    between atoms: C_23  and  N_27
REMARK    6  A    between atoms: C_31  and  C_36
REMARK                            x       y       z     vdW  Elec       q    Type
REMARK                         _______ _______ _______ _____ _____    ______ ____
ROOT
ATOM      1  O   UNL     1      34.329 -15.946 -22.835  0.00  0.00    -0.270 OA
ATOM      2  N   UNL     1      33.369 -15.248 -20.812  0.00  0.00    -0.280 N 
ATOM      3  C   UNL     1      34.051 -16.148 -21.642  0.00  0.00    +0.249 C 
ATOM      4  H   UNL     1      33.221 -15.549 -19.886  0.00  0.00    +0.155 HD
ENDROOT
BRANCH   3  10
ATOM      5  C   UNL     1      35.137 -19.833 -19.871  0.00  0.00    -0.043 C 
ATOM      6  C   UNL     1      33.813 -19.605 -20.218  0.00  0.00    -0.006 C 
ATOM      7  C   UNL     1      36.111 -18.870 -20.097  0.00  0.00    -0.006 C 
ATOM      8  C   UNL     1      33.455 -18.390 -20.803  0.00  0.00    +0.004 C 
ATOM      9  C   UNL     1      35.753 -17.656 -20.682  0.00  0.00    +0.004 C 
ATOM     10  C   UNL     1      34.425 -17.415 -21.035  0.00  0.00    +0.054 C 
BRANCH   5  11
ATOM     11  C   UNL     1      35.524 -21.144 -19.241  0.00  0.00    -0.050 C 
BRANCH  11  12
ATOM     12  N   UNL     1      34.908 -21.319 -17.927  0.00  0.00    +0.387 N 
ATOM     13  N   UNL     1      34.210 -22.882 -15.596  0.00  0.00    +0.383 N 
ATOM     14  C   UNL     1      35.916 -21.683 -16.924  0.00  0.00    -0.100 C 
ATOM     15  C   UNL     1      33.849 -22.333 -17.979  0.00  0.00    -0.100 C 
ATOM     16  C   UNL     1      35.272 -21.869 -15.546  0.00  0.00    -0.101 C 
ATOM     17  C   UNL     1      33.203 -22.519 -16.601  0.00  0.00    -0.101 C 
ATOM     18  C   UNL     1      33.595 -23.055 -14.283  0.00  0.00    -0.101 C 
ATOM     19  H   UNL     1      34.490 -20.431 -17.654  0.00  0.00    -0.079 HD
ATOM     20  H   UNL     1      34.629 -23.772 -15.868  0.00  0.00    -0.080 HD
ENDBRANCH  11  12
ENDBRANCH   5  11
ENDBRANCH   3  10
BRANCH   2  21
ATOM     21  C   UNL     1      32.865 -13.963 -21.129  0.00  0.00    +0.052 C 
ATOM     22  C   UNL     1      33.491 -13.215 -22.111  0.00  0.00    +0.030 C 
ATOM     23  C   UNL     1      32.995 -11.948 -22.422  0.00  0.00    +0.059 C 
ATOM     24  C   UNL     1      31.757 -13.486 -20.449  0.00  0.00    +0.015 C 
ATOM     25  C   UNL     1      31.879 -11.451 -21.747  0.00  0.00    +0.015 C 
ATOM     26  C   UNL     1      31.261 -12.220 -20.761  0.00  0.00    +0.003 C 
BRANCH  23  27
ATOM     27  N   UNL     1      33.619 -11.172 -23.420  0.00  0.00    -0.247 N 
ATOM     28  N   UNL     1      33.073  -8.993 -22.742  0.00  0.00    -0.337 NA
ATOM     29  N   UNL     1      34.394  -9.379 -24.720  0.00  0.00    -0.170 NA
ATOM     30  C   UNL     1      33.699  -9.783 -23.637  0.00  0.00    +0.149 C 
ATOM     31  C   UNL     1      33.170  -7.668 -22.981  0.00  0.00    +0.147 C 
ATOM     32  C   UNL     1      33.852  -7.131 -24.053  0.00  0.00    +0.055 C 
ATOM     33  C   UNL     1      34.450  -8.042 -24.898  0.00  0.00    +0.114 C 
ATOM     34  H   UNL     1      34.092 -11.706 -24.099  0.00  0.00    +0.165 HD
BRANCH  31  36
ATOM     35  N   UNL     1      31.785  -6.448 -19.743  0.00  0.00    -0.242 NA
ATOM     36  C   UNL     1      32.501  -6.822 -22.022  0.00  0.00    +0.050 C 
ATOM     37  C   UNL     1      31.941  -5.608 -22.405  0.00  0.00    +0.006 C 
ATOM     38  C   UNL     1      32.396  -7.193 -20.691  0.00  0.00    +0.101 C 
ATOM     39  C   UNL     1      31.302  -4.814 -21.458  0.00  0.00    +0.021 C 
ATOM     40  C   UNL     1      31.253  -5.275 -20.153  0.00  0.00    +0.099 C 
ENDBRANCH  31  36
ENDBRANCH  23  27
ENDBRANCH   2  21
TORSDOF 6
ENDMDL
MODEL 6
REMARK VINA RESULT:     -10.9      7.152     15.993
REMARK  Name = 4369496
REMARK  6 active torsions:
REMARK  status: ('A' for Active; 'I' for Inactive)
REMARK    1  A    between atoms: N_2  and  C_21
REMARK    2  A    between atoms: C_3  and  C_10
REMARK    3  A    between atoms: C_5  and  C_11
REMARK    4  A    between atoms: C_11  and  N_12
REMARK    5  A    between atoms: C_23  and  N_27
REMARK    6  A    between atoms: C_31  and  C_36
REMARK                            x       y       z     vdW  Elec       q    Type
REMARK                         _______ _______ _______ _____ _____    ______ ____
ROOT
ATOM      1  O   UNL     1      32.156 -13.937 -23.818  0.00  0.00    -0.270 OA
ATOM      2  N   UNL     1      33.133 -12.784 -22.024  0.00  0.00    -0.280 N 
ATOM      3  C   UNL     1      32.877 -13.918 -22.807  0.00  0.00    +0.249 C 
ATOM      4  H   UNL     1      33.726 -12.924 -21.251  0.00  0.00    +0.155 HD
ENDROOT
BRANCH   3  10
ATOM      5  C   UNL     1      34.681 -17.514 -21.501  0.00  0.00    -0.043 C 
ATOM      6  C   UNL     1      34.392 -17.344 -22.848  0.00  0.00    -0.006 C 
ATOM      7  C   UNL     1      34.387 -16.522 -20.576  0.00  0.00    -0.006 C 
ATOM      8  C   UNL     1      33.798 -16.158 -23.279  0.00  0.00    +0.004 C 
ATOM      9  C   UNL     1      33.793 -15.336 -21.007  0.00  0.00    +0.004 C 
ATOM     10  C   UNL     1      33.498 -15.153 -22.358  0.00  0.00    +0.054 C 
BRANCH   5  11
ATOM     11  C   UNL     1      35.324 -18.793 -21.036  0.00  0.00    -0.050 C 
BRANCH  11  12
ATOM     12  N   UNL     1      34.566 -19.421 -19.954  0.00  0.00    +0.387 N 
ATOM     13  N   UNL     1      33.188 -21.647 -18.728  0.00  0.00    +0.383 N 
ATOM     14  C   UNL     1      35.305 -20.557 -19.391  0.00  0.00    -0.100 C 
ATOM     15  C   UNL     1      33.245 -19.852 -20.425  0.00  0.00    -0.100 C 
ATOM     16  C   UNL     1      34.511 -21.217 -18.259  0.00  0.00    -0.101 C 
ATOM     17  C   UNL     1      32.449 -20.511 -19.293  0.00  0.00    -0.101 C 
ATOM     18  C   UNL     1      32.432 -22.273 -17.646  0.00  0.00    -0.101 C 
ATOM     19  H   UNL     1      34.435 -18.727 -19.218  0.00  0.00    -0.079 HD
ATOM     20  H   UNL     1      33.319 -22.343 -19.464  0.00  0.00    -0.080 HD
ENDBRANCH  11  12
ENDBRANCH   5  11
ENDBRANCH   3  10
BRANCH   2  21
ATOM     21  C   UNL     1      32.651 -11.463 -22.199  0.00  0.00    +0.052 C 
ATOM     22  C   UNL     1      33.222 -10.658 -23.169  0.00  0.00    +0.030 C 
ATOM     23  C   UNL     1      32.748  -9.357 -23.340  0.00  0.00    +0.059 C 
ATOM     24  C   UNL     1      31.619 -11.009 -21.395  0.00  0.00    +0.015 C 
ATOM     25  C   UNL     1      31.709  -8.882 -22.539  0.00  0.00    +0.015 C 
ATOM     26  C   UNL     1      31.145  -9.708 -21.567  0.00  0.00    +0.003 C 
BRANCH  23  27
ATOM     27  N   UNL     1      33.318  -8.522 -24.324  0.00  0.00    -0.247 N 
ATOM     28  N   UNL     1      32.370  -6.442 -23.793  0.00  0.00    -0.337 NA
ATOM     29  N   UNL     1      33.894  -6.671 -25.646  0.00  0.00    -0.170 NA
ATOM     30  C   UNL     1      33.187  -7.147 -24.601  0.00  0.00    +0.149 C 
ATOM     31  C   UNL     1      32.269  -5.129 -24.087  0.00  0.00    +0.147 C 
ATOM     32  C   UNL     1      32.941  -4.523 -25.129  0.00  0.00    +0.055 C 
ATOM     33  C   UNL     1      33.746  -5.351 -25.883  0.00  0.00    +0.114 C 
ATOM     34  H   UNL     1      33.925  -8.994 -24.939  0.00  0.00    +0.165 HD
BRANCH  31  36
ATOM     35  N   UNL     1      30.358  -2.260 -22.671  0.00  0.00    -0.242 NA
ATOM     36  C   UNL     1      31.395  -4.373 -23.223  0.00  0.00    +0.050 C 
ATOM     37  C   UNL     1      30.757  -4.976 -22.143  0.00  0.00    +0.006 C 
ATOM     38  C   UNL     1      31.164  -3.025 -23.441  0.00  0.00    +0.101 C 
ATOM     39  C   UNL     1      29.920  -4.221 -21.328  0.00  0.00    +0.021 C 
ATOM     40  C   UNL     1      29.756  -2.880 -21.632  0.00  0.00    +0.099 C 
ENDBRANCH  31  36
ENDBRANCH  23  27
ENDBRANCH   2  21
TORSDOF 6
ENDMDL
MODEL 7
REMARK VINA RESULT:     -10.8      2.043     12.468
REMARK  Name = 4369496
REMARK  6 active torsions:
REMARK  status: ('A' for Active; 'I' for Inactive)
REMARK    1  A    between atoms: N_2  and  C_21
REMARK    2  A    between atoms: C_3  and  C_10
REMARK    3  A    between atoms: C_5  and  C_11
REMARK    4  A    between atoms: C_11  and  N_12
REMARK    5  A    between atoms: C_23  and  N_27
REMARK    6  A    between atoms: C_31  and  C_36
REMARK                            x       y       z     vdW  Elec       q    Type
REMARK                         _______ _______ _______ _____ _____    ______ ____
ROOT
ATOM      1  O   UNL     1      31.573 -20.661 -19.723  0.00  0.00    -0.270 OA
ATOM      2  N   UNL     1      33.861 -20.195 -19.504  0.00  0.00    -0.280 N 
ATOM      3  C   UNL     1      32.650 -20.786 -19.118  0.00  0.00    +0.249 C 
ATOM      4  H   UNL     1      34.633 -20.385 -18.924  0.00  0.00    +0.155 HD
ENDROOT
BRANCH   3  10
ATOM      5  C   UNL     1      32.762 -23.083 -15.569  0.00  0.00    -0.043 C 
ATOM      6  C   UNL     1      31.537 -22.720 -16.109  0.00  0.00    -0.006 C 
ATOM      7  C   UNL     1      33.952 -22.704 -16.175  0.00  0.00    -0.006 C 
ATOM      8  C   UNL     1      31.500 -21.963 -17.280  0.00  0.00    +0.004 C 
ATOM      9  C   UNL     1      33.914 -21.948 -17.346  0.00  0.00    +0.004 C 
ATOM     10  C   UNL     1      32.689 -21.576 -17.899  0.00  0.00    +0.054 C 
BRANCH   5  11
ATOM     11  C   UNL     1      32.803 -23.901 -14.305  0.00  0.00    -0.050 C 
BRANCH  11  12
ATOM     12  N   UNL     1      34.159 -24.009 -13.770  0.00  0.00    +0.387 N 
ATOM     13  N   UNL     1      36.197 -25.267 -12.151  0.00  0.00    +0.383 N 
ATOM     14  C   UNL     1      34.780 -25.275 -14.176  0.00  0.00    -0.100 C 
ATOM     15  C   UNL     1      34.153 -23.887 -12.308  0.00  0.00    -0.100 C 
ATOM     16  C   UNL     1      36.201 -25.390 -13.614  0.00  0.00    -0.101 C 
ATOM     17  C   UNL     1      35.574 -24.001 -11.744  0.00  0.00    -0.101 C 
ATOM     18  C   UNL     1      37.553 -25.373 -11.617  0.00  0.00    -0.101 C 
ATOM     19  H   UNL     1      34.710 -23.243 -14.155  0.00  0.00    -0.079 HD
ATOM     20  H   UNL     1      35.646 -26.035 -11.766  0.00  0.00    -0.080 HD
ENDBRANCH  11  12
ENDBRANCH   5  11
ENDBRANCH   3  10
BRANCH   2  21
ATOM     21  C   UNL     1      34.121 -19.361 -20.620  0.00  0.00    +0.052 C 
ATOM     22  C   UNL     1      33.187 -19.285 -21.638  0.00  0.00    +0.030 C 
ATOM     23  C   UNL     1      33.444 -18.465 -22.738  0.00  0.00    +0.059 C 
ATOM     24  C   UNL     1      35.303 -18.643 -20.665  0.00  0.00    +0.015 C 
ATOM     25  C   UNL     1      34.630 -17.733 -22.800  0.00  0.00    +0.015 C 
ATOM     26  C   UNL     1      35.559 -17.822 -21.764  0.00  0.00    +0.003 C 
BRANCH  23  27
ATOM     27  N   UNL     1      32.502 -18.373 -23.784  0.00  0.00    -0.247 N 
ATOM     28  N   UNL     1      32.491 -16.067 -24.216  0.00  0.00    -0.337 NA
ATOM     29  N   UNL     1      31.088 -17.568 -25.474  0.00  0.00    -0.170 NA
ATOM     30  C   UNL     1      32.004 -17.285 -24.526  0.00  0.00    +0.149 C 
ATOM     31  C   UNL     1      31.991 -15.048 -24.946  0.00  0.00    +0.147 C 
ATOM     32  C   UNL     1      31.052 -15.208 -25.943  0.00  0.00    +0.055 C 
ATOM     33  C   UNL     1      30.632 -16.503 -26.165  0.00  0.00    +0.114 C 
ATOM     34  H   UNL     1      32.118 -19.241 -24.047  0.00  0.00    +0.165 HD
BRANCH  31  36
ATOM     35  N   UNL     1      33.462 -12.257 -22.960  0.00  0.00    -0.242 NA
ATOM     36  C   UNL     1      32.513 -13.744 -24.615  0.00  0.00    +0.050 C 
ATOM     37  C   UNL     1      32.582 -12.734 -25.570  0.00  0.00    +0.006 C 
ATOM     38  C   UNL     1      32.962 -13.456 -23.336  0.00  0.00    +0.101 C 
ATOM     39  C   UNL     1      33.090 -11.488 -25.221  0.00  0.00    +0.021 C 
ATOM     40  C   UNL     1      33.513 -11.303 -23.915  0.00  0.00    +0.099 C 
ENDBRANCH  31  36
ENDBRANCH  23  27
ENDBRANCH   2  21
TORSDOF 6
ENDMDL
MODEL 8
REMARK VINA RESULT:     -10.8      7.733     17.494
REMARK  Name = 4369496
REMARK  6 active torsions:
REMARK  status: ('A' for Active; 'I' for Inactive)
REMARK    1  A    between atoms: N_2  and  C_21
REMARK    2  A    between atoms: C_3  and  C_10
REMARK    3  A    between atoms: C_5  and  C_11
REMARK    4  A    between atoms: C_11  and  N_12
REMARK    5  A    between atoms: C_23  and  N_27
REMARK    6  A    between atoms: C_31  and  C_36
REMARK                            x       y       z     vdW  Elec       q    Type
REMARK                         _______ _______ _______ _____ _____    ______ ____
ROOT
ATOM      1  O   UNL     1      31.948 -11.223 -21.929  0.00  0.00    -0.270 OA
ATOM      2  N   UNL     1      33.542 -10.733 -23.580  0.00  0.00    -0.280 N 
ATOM      3  C   UNL     1      32.805 -11.590 -22.749  0.00  0.00    +0.249 C 
ATOM      4  H   UNL     1      34.188 -11.171 -24.179  0.00  0.00    +0.155 HD
ENDROOT
BRANCH   3  10
ATOM      5  C   UNL     1      33.704 -15.709 -23.085  0.00  0.00    -0.043 C 
ATOM      6  C   UNL     1      33.861 -15.073 -21.862  0.00  0.00    -0.006 C 
ATOM      7  C   UNL     1      33.256 -15.015 -24.200  0.00  0.00    -0.006 C 
ATOM      8  C   UNL     1      33.564 -13.715 -21.751  0.00  0.00    +0.004 C 
ATOM      9  C   UNL     1      32.959 -13.656 -24.088  0.00  0.00    +0.004 C 
ATOM     10  C   UNL     1      33.113 -13.006 -22.864  0.00  0.00    +0.054 C 
BRANCH   5  11
ATOM     11  C   UNL     1      34.023 -17.176 -23.205  0.00  0.00    -0.050 C 
BRANCH  11  12
ATOM     12  N   UNL     1      34.274 -17.786 -21.901  0.00  0.00    +0.387 N 
ATOM     13  N   UNL     1      35.088 -19.974 -20.194  0.00  0.00    +0.383 N 
ATOM     14  C   UNL     1      35.687 -18.162 -21.765  0.00  0.00    -0.100 C 
ATOM     15  C   UNL     1      33.412 -18.957 -21.698  0.00  0.00    -0.100 C 
ATOM     16  C   UNL     1      35.951 -18.804 -20.399  0.00  0.00    -0.101 C 
ATOM     17  C   UNL     1      33.675 -19.599 -20.332  0.00  0.00    -0.101 C 
ATOM     18  C   UNL     1      35.340 -20.583 -18.890  0.00  0.00    -0.101 C 
ATOM     19  H   UNL     1      34.055 -17.097 -21.183  0.00  0.00    -0.079 HD
ATOM     20  H   UNL     1      35.309 -20.665 -20.913  0.00  0.00    -0.080 HD
ENDBRANCH  11  12
ENDBRANCH   5  11
ENDBRANCH   3  10
BRANCH   2  21
ATOM     21  C   UNL     1      33.479  -9.321 -23.669  0.00  0.00    +0.052 C 
ATOM     22  C   UNL     1      32.569  -8.739 -24.535  0.00  0.00    +0.030 C 
ATOM     23  C   UNL     1      32.509  -7.347 -24.625  0.00  0.00    +0.059 C 
ATOM     24  C   UNL     1      34.328  -8.556 -22.889  0.00  0.00    +0.015 C 
ATOM     25  C   UNL     1      33.357  -6.561 -23.846  0.00  0.00    +0.015 C 
ATOM     26  C   UNL     1      34.267  -7.165 -22.978  0.00  0.00    +0.003 C 
BRANCH  23  27
ATOM     27  N   UNL     1      31.587  -6.737 -25.501  0.00  0.00    -0.247 N 
ATOM     28  N   UNL     1      32.985  -6.033 -27.249  0.00  0.00    -0.337 NA
ATOM     29  N   UNL     1      30.613  -5.616 -27.317  0.00  0.00    -0.170 NA
ATOM     30  C   UNL     1      31.736  -6.099 -26.747  0.00  0.00    +0.149 C 
ATOM     31  C   UNL     1      33.090  -5.416 -28.444  0.00  0.00    +0.147 C 
ATOM     32  C   UNL     1      32.018  -4.881 -29.128  0.00  0.00    +0.055 C 
ATOM     33  C   UNL     1      30.791  -5.012 -28.510  0.00  0.00    +0.114 C 
ATOM     34  H   UNL     1      30.658  -6.761 -25.176  0.00  0.00    +0.165 HD
BRANCH  31  36
ATOM     35  N   UNL     1      36.280  -3.991 -29.743  0.00  0.00    -0.242 NA
ATOM     36  C   UNL     1      34.428  -5.346 -28.982  0.00  0.00    +0.050 C 
ATOM     37  C   UNL     1      35.152  -6.502 -29.258  0.00  0.00    +0.006 C 
ATOM     38  C   UNL     1      35.032  -4.126 -29.241  0.00  0.00    +0.101 C 
ATOM     39  C   UNL     1      36.438  -6.403 -29.776  0.00  0.00    +0.021 C 
ATOM     40  C   UNL     1      36.952  -5.136 -29.998  0.00  0.00    +0.099 C 
ENDBRANCH  31  36
ENDBRANCH  23  27
ENDBRANCH   2  21
TORSDOF 6
ENDMDL
MODEL 9
REMARK VINA RESULT:     -10.2      8.179     16.903
REMARK  Name = 4369496
REMARK  6 active torsions:
REMARK  status: ('A' for Active; 'I' for Inactive)
REMARK    1  A    between atoms: N_2  and  C_21
REMARK    2  A    between atoms: C_3  and  C_10
REMARK    3  A    between atoms: C_5  and  C_11
REMARK    4  A    between atoms: C_11  and  N_12
REMARK    5  A    between atoms: C_23  and  N_27
REMARK    6  A    between atoms: C_31  and  C_36
REMARK                            x       y       z     vdW  Elec       q    Type
REMARK                         _______ _______ _______ _____ _____    ______ ____
ROOT
ATOM      1  O   UNL     1      31.797 -11.760 -21.796  0.00  0.00    -0.270 OA
ATOM      2  N   UNL     1      33.530 -11.156 -23.257  0.00  0.00    -0.280 N 
ATOM      3  C   UNL     1      32.762 -12.065 -22.515  0.00  0.00    +0.249 C 
ATOM      4  H   UNL     1      34.265 -11.547 -23.781  0.00  0.00    +0.155 HD
ENDROOT
BRANCH   3  10
ATOM      5  C   UNL     1      33.952 -16.116 -22.757  0.00  0.00    -0.043 C 
ATOM      6  C   UNL     1      33.942 -15.480 -21.524  0.00  0.00    -0.006 C 
ATOM      7  C   UNL     1      33.578 -15.444 -23.912  0.00  0.00    -0.006 C 
ATOM      8  C   UNL     1      33.548 -14.144 -21.444  0.00  0.00    +0.004 C 
ATOM      9  C   UNL     1      33.185 -14.108 -23.832  0.00  0.00    +0.004 C 
ATOM     10  C   UNL     1      33.170 -13.458 -22.598  0.00  0.00    +0.054 C 
BRANCH   5  11
ATOM     11  C   UNL     1      34.376 -17.559 -22.844  0.00  0.00    -0.050 C 
BRANCH  11  12
ATOM     12  N   UNL     1      34.507 -18.168 -21.522  0.00  0.00    +0.387 N 
ATOM     13  N   UNL     1      35.156 -20.355 -19.746  0.00  0.00    +0.383 N 
ATOM     14  C   UNL     1      35.900 -18.548 -21.259  0.00  0.00    -0.100 C 
ATOM     15  C   UNL     1      33.625 -19.334 -21.395  0.00  0.00    -0.100 C 
ATOM     16  C   UNL     1      36.039 -19.189 -19.874  0.00  0.00    -0.101 C 
ATOM     17  C   UNL     1      33.763 -19.975 -20.010  0.00  0.00    -0.101 C 
ATOM     18  C   UNL     1      35.288 -20.962 -18.423  0.00  0.00    -0.101 C 
ATOM     19  H   UNL     1      34.227 -17.476 -20.827  0.00  0.00    -0.079 HD
ATOM     20  H   UNL     1      35.438 -21.048 -20.440  0.00  0.00    -0.080 HD
ENDBRANCH  11  12
ENDBRANCH   5  11
ENDBRANCH   3  10
BRANCH   2  21
ATOM     21  C   UNL     1      33.388  -9.750 -23.350  0.00  0.00    +0.052 C 
ATOM     22  C   UNL     1      32.587  -9.089 -22.434  0.00  0.00    +0.030 C 
ATOM     23  C   UNL     1      32.445  -7.704 -22.528  0.00  0.00    +0.059 C 
ATOM     24  C   UNL     1      34.052  -9.069 -24.355  0.00  0.00    +0.015 C 
ATOM     25  C   UNL     1      33.108  -7.002 -23.534  0.00  0.00    +0.015 C 
ATOM     26  C   UNL     1      33.911  -7.684 -24.448  0.00  0.00    +0.003 C 
BRANCH  23  27
ATOM     27  N   UNL     1      31.634  -7.015 -21.602  0.00  0.00    -0.247 N 
ATOM     28  N   UNL     1      30.992  -5.129 -22.843  0.00  0.00    -0.337 NA
ATOM     29  N   UNL     1      30.236  -5.435 -20.576  0.00  0.00    -0.170 NA
ATOM     30  C   UNL     1      30.921  -5.803 -21.678  0.00  0.00    +0.149 C 
ATOM     31  C   UNL     1      30.296  -3.973 -22.880  0.00  0.00    +0.147 C 
ATOM     32  C   UNL     1      29.558  -3.490 -21.820  0.00  0.00    +0.055 C 
ATOM     33  C   UNL     1      29.564  -4.269 -20.682  0.00  0.00    +0.114 C 
ATOM     34  H   UNL     1      31.552  -7.470 -20.733  0.00  0.00    +0.165 HD
BRANCH  31  36
ATOM     35  N   UNL     1      29.245  -2.394 -26.088  0.00  0.00    -0.242 NA
ATOM     36  C   UNL     1      30.371  -3.253 -24.128  0.00  0.00    +0.050 C 
ATOM     37  C   UNL     1      31.577  -2.730 -24.584  0.00  0.00    +0.006 C 
ATOM     38  C   UNL     1      29.244  -3.059 -24.911  0.00  0.00    +0.101 C 
ATOM     39  C   UNL     1      31.617  -2.041 -25.791  0.00  0.00    +0.021 C 
ATOM     40  C   UNL     1      30.434  -1.901 -26.498  0.00  0.00    +0.099 C 
ENDBRANCH  31  36
ENDBRANCH  23  27
ENDBRANCH   2  21
TORSDOF 6
ENDMDL
