MODEL 1
REMARK VINA RESULT:     -11.5      0.000      0.000
REMARK  Name = 11610526
REMARK  3 active torsions:
REMARK  status: ('A' for Active; 'I' for Inactive)
REMARK    1  A    between atoms: C_2  and  C_21
REMARK    2  A    between atoms: C_9  and  C_14
REMARK    3  A    between atoms: C_21  and  C_23
REMARK                            x       y       z     vdW  Elec       q    Type
REMARK                         _______ _______ _______ _____ _____    ______ ____
ROOT
ATOM      1  N   UNL     1      34.190 -16.894 -21.795  0.00  0.00    -0.388 NA
ATOM      2  C   UNL     1      34.346 -18.219 -21.857  0.00  0.00    +0.167 C 
ATOM      3  C   UNL     1      33.998 -19.037 -22.896  0.00  0.00    +0.031 C 
ATOM      4  C   UNL     1      33.626 -16.334 -22.888  0.00  0.00    +0.167 C 
ATOM      5  C   UNL     1      33.421 -18.425 -24.004  0.00  0.00    -0.015 C 
ATOM      6  C   UNL     1      33.228 -17.047 -24.007  0.00  0.00    +0.101 C 
ATOM      7  O   UNL     1      32.442 -14.567 -25.001  0.00  0.00    -0.270 OA
ATOM      8  N   UNL     1      33.429 -14.948 -22.903  0.00  0.00    -0.259 N 
ATOM      9  C   UNL     1      32.868 -14.172 -23.921  0.00  0.00    +0.255 C 
ATOM     10  H   UNL     1      33.719 -14.462 -22.098  0.00  0.00    +0.157 HD
ENDROOT
BRANCH   9  14
ATOM     11  F   UNL     1      33.491 -12.268 -25.884  0.00  0.00    -0.204 F 
ATOM     12  F   UNL     1      32.146 -13.142 -21.413  0.00  0.00    -0.204 F 
ATOM     13  F   UNL     1      32.683  -8.685 -22.902  0.00  0.00    -0.204 F 
ATOM     14  C   UNL     1      32.818 -12.711 -23.650  0.00  0.00    +0.109 C 
ATOM     15  C   UNL     1      33.139 -11.834 -24.666  0.00  0.00    +0.149 C 
ATOM     16  C   UNL     1      32.455 -12.280 -22.392  0.00  0.00    +0.149 C 
ATOM     17  C   UNL     1      33.093 -10.464 -24.411  0.00  0.00    +0.060 C 
ATOM     18  C   UNL     1      32.409 -10.909 -22.137  0.00  0.00    +0.060 C 
ATOM     19  C   UNL     1      32.728 -10.001 -23.147  0.00  0.00    +0.145 C 
ENDBRANCH   9  14
BRANCH   2  21
ATOM     20  O   UNL     1      35.910 -18.258 -20.092  0.00  0.00    -0.289 OA
ATOM     21  C   UNL     1      34.968 -18.820 -20.644  0.00  0.00    +0.202 C 
BRANCH  21  23
ATOM     22  N   UNL     1      33.198 -21.545 -17.882  0.00  0.00    +0.386 N 
ATOM     23  C   UNL     1      34.428 -20.113 -20.115  0.00  0.00    +0.060 C 
ATOM     24  C   UNL     1      32.954 -19.941 -19.750  0.00  0.00    -0.015 C 
ATOM     25  C   UNL     1      35.230 -20.560 -18.894  0.00  0.00    -0.015 C 
ATOM     26  C   UNL     1      32.403 -21.194 -19.065  0.00  0.00    -0.077 C 
ATOM     27  C   UNL     1      34.602 -21.792 -18.240  0.00  0.00    -0.077 C 
ATOM     28  C   UNL     1      32.628 -22.712 -17.210  0.00  0.00    -0.101 C 
ATOM     29  H   UNL     1      33.173 -20.753 -17.239  0.00  0.00    -0.080 HD
ENDBRANCH  21  23
ENDBRANCH   2  21
TORSDOF 3
ENDMDL
MODEL 2
REMARK VINA RESULT:     -11.5      3.328      6.013
REMARK  Name = 11610526
REMARK  3 active torsions:
REMARK  status: ('A' for Active; 'I' for Inactive)
REMARK    1  A    between atoms: C_2  and  C_21
REMARK    2  A    between atoms: C_9  and  C_14
REMARK    3  A    between atoms: C_21  and  C_23
REMARK                            x       y       z     vdW  Elec       q    Type
REMARK                         _______ _______ _______ _____ _____    ______ ____
ROOT
ATOM      1  N   UNL     1      33.472 -21.126 -18.772  0.00  0.00    -0.388 NA
ATOM      2  C   UNL     1      33.851 -21.921 -17.768  0.00  0.00    +0.167 C 
ATOM      3  C   UNL     1      35.087 -21.970 -17.184  0.00  0.00    +0.031 C 
ATOM      4  C   UNL     1      34.432 -20.297 -19.238  0.00  0.00    +0.167 C 
ATOM      5  C   UNL     1      36.049 -21.102 -17.690  0.00  0.00    -0.015 C 
ATOM      6  C   UNL     1      35.722 -20.246 -18.736  0.00  0.00    +0.101 C 
ATOM      7  O   UNL     1      36.124 -18.269 -20.658  0.00  0.00    -0.270 OA
ATOM      8  N   UNL     1      34.114 -19.431 -20.290  0.00  0.00    -0.259 N 
ATOM      9  C   UNL     1      34.947 -18.501 -20.918  0.00  0.00    +0.255 C 
ATOM     10  H   UNL     1      33.192 -19.484 -20.631  0.00  0.00    +0.157 HD
ENDROOT
BRANCH   9  14
ATOM     11  F   UNL     1      34.151 -19.643 -23.352  0.00  0.00    -0.204 F 
ATOM     12  F   UNL     1      34.458 -15.752 -20.646  0.00  0.00    -0.204 F 
ATOM     13  F   UNL     1      32.542 -15.496 -24.963  0.00  0.00    -0.204 F 
ATOM     14  C   UNL     1      34.307 -17.701 -21.995  0.00  0.00    +0.109 C 
ATOM     15  C   UNL     1      33.942 -18.332 -23.166  0.00  0.00    +0.149 C 
ATOM     16  C   UNL     1      34.099 -16.353 -21.788  0.00  0.00    +0.149 C 
ATOM     17  C   UNL     1      33.342 -17.581 -24.176  0.00  0.00    +0.060 C 
ATOM     18  C   UNL     1      33.498 -15.603 -22.800  0.00  0.00    +0.060 C 
ATOM     19  C   UNL     1      33.120 -16.217 -23.994  0.00  0.00    +0.145 C 
ENDBRANCH   9  14
BRANCH   2  21
ATOM     20  O   UNL     1      32.404 -23.774 -17.956  0.00  0.00    -0.289 OA
ATOM     21  C   UNL     1      32.782 -22.829 -17.267  0.00  0.00    +0.202 C 
BRANCH  21  23
ATOM     22  N   UNL     1      30.644 -23.617 -13.663  0.00  0.00    +0.386 N 
ATOM     23  C   UNL     1      32.180 -22.571 -15.921  0.00  0.00    +0.060 C 
ATOM     24  C   UNL     1      32.786 -23.532 -14.897  0.00  0.00    -0.015 C 
ATOM     25  C   UNL     1      30.663 -22.744 -15.978  0.00  0.00    -0.015 C 
ATOM     26  C   UNL     1      32.092 -23.405 -13.539  0.00  0.00    -0.077 C 
ATOM     27  C   UNL     1      30.041 -22.643 -14.584  0.00  0.00    -0.077 C 
ATOM     28  C   UNL     1      30.003 -23.545 -12.350  0.00  0.00    -0.101 C 
ATOM     29  H   UNL     1      30.494 -24.550 -14.050  0.00  0.00    -0.080 HD
ENDBRANCH  21  23
ENDBRANCH   2  21
TORSDOF 3
ENDMDL
MODEL 3
REMARK VINA RESULT:     -11.3      2.717      4.983
REMARK  Name = 11610526
REMARK  3 active torsions:
REMARK  status: ('A' for Active; 'I' for Inactive)
REMARK    1  A    between atoms: C_2  and  C_21
REMARK    2  A    between atoms: C_9  and  C_14
REMARK    3  A    between atoms: C_21  and  C_23
REMARK                            x       y       z     vdW  Elec       q    Type
REMARK                         _______ _______ _______ _____ _____    ______ ____
ROOT
ATOM      1  N   UNL     1      33.097 -20.310 -19.259  0.00  0.00    -0.388 NA
ATOM      2  C   UNL     1      33.476 -21.299 -18.444  0.00  0.00    +0.167 C 
ATOM      3  C   UNL     1      34.750 -21.754 -18.246  0.00  0.00    +0.031 C 
ATOM      4  C   UNL     1      34.100 -19.720 -19.945  0.00  0.00    +0.167 C 
ATOM      5  C   UNL     1      35.756 -21.122 -18.969  0.00  0.00    -0.015 C 
ATOM      6  C   UNL     1      35.433 -20.085 -19.837  0.00  0.00    +0.101 C 
ATOM      7  O   UNL     1      35.877 -18.064 -21.702  0.00  0.00    -0.270 OA
ATOM      8  N   UNL     1      33.786 -18.674 -20.821  0.00  0.00    -0.259 N 
ATOM      9  C   UNL     1      34.660 -17.933 -21.621  0.00  0.00    +0.255 C 
ATOM     10  H   UNL     1      32.834 -18.432 -20.881  0.00  0.00    +0.157 HD
ENDROOT
BRANCH   9  14
ATOM     11  F   UNL     1      33.764 -18.372 -24.242  0.00  0.00    -0.204 F 
ATOM     12  F   UNL     1      34.280 -15.339 -20.623  0.00  0.00    -0.204 F 
ATOM     13  F   UNL     1      32.271 -13.902 -24.657  0.00  0.00    -0.204 F 
ATOM     14  C   UNL     1      34.024 -16.860 -22.429  0.00  0.00    +0.109 C 
ATOM     15  C   UNL     1      33.608 -17.151 -23.712  0.00  0.00    +0.149 C 
ATOM     16  C   UNL     1      33.871 -15.609 -21.871  0.00  0.00    +0.149 C 
ATOM     17  C   UNL     1      33.012 -16.143 -24.470  0.00  0.00    +0.060 C 
ATOM     18  C   UNL     1      33.274 -14.601 -22.630  0.00  0.00    +0.060 C 
ATOM     19  C   UNL     1      32.845 -14.869 -23.930  0.00  0.00    +0.145 C 
ENDBRANCH   9  14
BRANCH   2  21
ATOM     20  O   UNL     1      31.194 -21.719 -18.022  0.00  0.00    -0.289 OA
ATOM     21  C   UNL     1      32.358 -21.939 -17.697  0.00  0.00    +0.202 C 
BRANCH  21  23
ATOM     22  N   UNL     1      33.033 -23.150 -13.664  0.00  0.00    +0.386 N 
ATOM     23  C   UNL     1      32.676 -22.849 -16.551  0.00  0.00    +0.060 C 
ATOM     24  C   UNL     1      31.494 -22.886 -15.582  0.00  0.00    -0.015 C 
ATOM     25  C   UNL     1      33.937 -22.373 -15.832  0.00  0.00    -0.015 C 
ATOM     26  C   UNL     1      31.834 -23.684 -14.322  0.00  0.00    -0.077 C 
ATOM     27  C   UNL     1      34.194 -23.189 -14.564  0.00  0.00    -0.077 C 
ATOM     28  C   UNL     1      33.314 -23.891 -12.434  0.00  0.00    -0.101 C 
ATOM     29  H   UNL     1      32.854 -22.175 -13.425  0.00  0.00    -0.080 HD
ENDBRANCH  21  23
ENDBRANCH   2  21
TORSDOF 3
ENDMDL
MODEL 4
REMARK VINA RESULT:     -11.0      6.320      9.689
REMARK  Name = 11610526
REMARK  3 active torsions:
REMARK  status: ('A' for Active; 'I' for Inactive)
REMARK    1  A    between atoms: C_2  and  C_21
REMARK    2  A    between atoms: C_9  and  C_14
REMARK    3  A    between atoms: C_21  and  C_23
REMARK                            x       y       z     vdW  Elec       q    Type
REMARK                         _______ _______ _______ _____ _____    ______ ____
ROOT
ATOM      1  N   UNL     1      33.692 -23.050 -14.401  0.00  0.00    -0.388 NA
ATOM      2  C   UNL     1      33.154 -23.777 -13.418  0.00  0.00    +0.167 C 
ATOM      3  C   UNL     1      31.905 -24.334 -13.400  0.00  0.00    +0.031 C 
ATOM      4  C   UNL     1      32.893 -22.863 -15.475  0.00  0.00    +0.167 C 
ATOM      5  C   UNL     1      31.112 -24.119 -14.522  0.00  0.00    -0.015 C 
ATOM      6  C   UNL     1      31.609 -23.371 -15.584  0.00  0.00    +0.101 C 
ATOM      7  O   UNL     1      31.597 -22.127 -18.077  0.00  0.00    -0.270 OA
ATOM      8  N   UNL     1      33.384 -22.111 -16.549  0.00  0.00    -0.259 N 
ATOM      9  C   UNL     1      32.732 -21.797 -17.745  0.00  0.00    +0.255 C 
ATOM     10  H   UNL     1      34.298 -21.760 -16.450  0.00  0.00    +0.157 HD
ENDROOT
BRANCH   9  14
ATOM     11  F   UNL     1      35.535 -21.863 -17.777  0.00  0.00    -0.204 F 
ATOM     12  F   UNL     1      31.532 -20.129 -19.654  0.00  0.00    -0.204 F 
ATOM     13  F   UNL     1      35.732 -18.799 -21.377  0.00  0.00    -0.204 F 
ATOM     14  C   UNL     1      33.530 -20.999 -18.712  0.00  0.00    +0.109 C 
ATOM     15  C   UNL     1      34.907 -21.083 -18.667  0.00  0.00    +0.149 C 
ATOM     16  C   UNL     1      32.870 -20.201 -19.622  0.00  0.00    +0.149 C 
ATOM     17  C   UNL     1      35.656 -20.334 -19.575  0.00  0.00    +0.060 C 
ATOM     18  C   UNL     1      33.620 -19.452 -20.529  0.00  0.00    +0.060 C 
ATOM     19  C   UNL     1      35.013 -19.518 -20.505  0.00  0.00    +0.145 C 
ENDBRANCH   9  14
BRANCH   2  21
ATOM     20  O   UNL     1      33.736 -23.509 -11.148  0.00  0.00    -0.289 OA
ATOM     21  C   UNL     1      34.047 -23.974 -12.242  0.00  0.00    +0.202 C 
BRANCH  21  23
ATOM     22  N   UNL     1      37.832 -25.059 -13.881  0.00  0.00    +0.386 N 
ATOM     23  C   UNL     1      35.321 -24.742 -12.416  0.00  0.00    +0.060 C 
ATOM     24  C   UNL     1      36.514 -23.810 -12.201  0.00  0.00    -0.015 C 
ATOM     25  C   UNL     1      35.378 -25.364 -13.810  0.00  0.00    -0.015 C 
ATOM     26  C   UNL     1      37.834 -24.517 -12.516  0.00  0.00    -0.077 C 
ATOM     27  C   UNL     1      36.735 -26.019 -14.070  0.00  0.00    -0.077 C 
ATOM     28  C   UNL     1      39.118 -25.685 -14.185  0.00  0.00    -0.101 C 
ATOM     29  H   UNL     1      37.685 -24.283 -14.528  0.00  0.00    -0.080 HD
ENDBRANCH  21  23
ENDBRANCH   2  21
TORSDOF 3
ENDMDL
MODEL 5
REMARK VINA RESULT:     -10.9      3.469      8.337
REMARK  Name = 11610526
REMARK  3 active torsions:
REMARK  status: ('A' for Active; 'I' for Inactive)
REMARK    1  A    between atoms: C_2  and  C_21
REMARK    2  A    between atoms: C_9  and  C_14
REMARK    3  A    between atoms: C_21  and  C_23
REMARK                            x       y       z     vdW  Elec       q    Type
REMARK                         _______ _______ _______ _____ _____    ______ ____
ROOT
ATOM      1  N   UNL     1      33.343 -14.327 -22.545  0.00  0.00    -0.388 NA
ATOM      2  C   UNL     1      32.905 -13.425 -23.427  0.00  0.00    +0.167 C 
ATOM      3  C   UNL     1      32.502 -13.664 -24.712  0.00  0.00    +0.031 C 
ATOM      4  C   UNL     1      33.382 -15.599 -23.001  0.00  0.00    +0.167 C 
ATOM      5  C   UNL     1      32.556 -14.985 -25.145  0.00  0.00    -0.015 C 
ATOM      6  C   UNL     1      33.003 -15.977 -24.278  0.00  0.00    +0.101 C 
ATOM      7  O   UNL     1      33.679 -18.548 -23.449  0.00  0.00    -0.270 OA
ATOM      8  N   UNL     1      33.829 -16.605 -22.136  0.00  0.00    -0.259 N 
ATOM      9  C   UNL     1      33.949 -17.972 -22.400  0.00  0.00    +0.255 C 
ATOM     10  H   UNL     1      34.093 -16.313 -21.234  0.00  0.00    +0.157 HD
ENDROOT
BRANCH   9  14
ATOM     11  F   UNL     1      36.630 -17.957 -21.578  0.00  0.00    -0.204 F 
ATOM     12  F   UNL     1      32.236 -19.644 -20.936  0.00  0.00    -0.204 F 
ATOM     13  F   UNL     1      35.762 -21.072 -18.124  0.00  0.00    -0.204 F 
ATOM     14  C   UNL     1      34.432 -18.797 -21.262  0.00  0.00    +0.109 C 
ATOM     15  C   UNL     1      35.766 -18.738 -20.915  0.00  0.00    +0.149 C 
ATOM     16  C   UNL     1      33.530 -19.596 -20.589  0.00  0.00    +0.149 C 
ATOM     17  C   UNL     1      36.218 -19.513 -19.847  0.00  0.00    +0.060 C 
ATOM     18  C   UNL     1      33.984 -20.371 -19.521  0.00  0.00    +0.060 C 
ATOM     19  C   UNL     1      35.328 -20.329 -19.150  0.00  0.00    +0.145 C 
ENDBRANCH   9  14
BRANCH   2  21
ATOM     20  O   UNL     1      33.738 -11.226 -23.243  0.00  0.00    -0.289 OA
ATOM     21  C   UNL     1      32.869 -12.029 -22.910  0.00  0.00    +0.202 C 
BRANCH  21  23
ATOM     22  N   UNL     1      30.995 -10.323 -19.480  0.00  0.00    +0.386 N 
ATOM     23  C   UNL     1      31.765 -11.624 -21.984  0.00  0.00    +0.060 C 
ATOM     24  C   UNL     1      31.764 -10.104 -21.821  0.00  0.00    -0.015 C 
ATOM     25  C   UNL     1      31.938 -12.303 -20.626  0.00  0.00    -0.015 C 
ATOM     26  C   UNL     1      30.748  -9.659 -20.767  0.00  0.00    -0.077 C 
ATOM     27  C   UNL     1      30.916 -11.784 -19.613  0.00  0.00    -0.077 C 
ATOM     28  C   UNL     1      30.050  -9.848 -18.470  0.00  0.00    -0.101 C 
ATOM     29  H   UNL     1      31.941 -10.086 -19.180  0.00  0.00    -0.080 HD
ENDBRANCH  21  23
ENDBRANCH   2  21
TORSDOF 3
ENDMDL
MODEL 6
REMARK VINA RESULT:     -10.8      3.447      9.283
REMARK  Name = 11610526
REMARK  3 active torsions:
REMARK  status: ('A' for Active; 'I' for Inactive)
REMARK    1  A    between atoms: C_2  and  C_21
REMARK    2  A    between atoms: C_9  and  C_14
REMARK    3  A    between atoms: C_21  and  C_23
REMARK                            x       y       z     vdW  Elec       q    Type
REMARK                         _______ _______ _______ _____ _____    ______ ____
ROOT
ATOM      1  N   UNL     1      33.200 -14.134 -22.372  0.00  0.00    -0.388 NA
ATOM      2  C   UNL     1      32.789 -13.188 -23.220  0.00  0.00    +0.167 C 
ATOM      3  C   UNL     1      32.556 -13.335 -24.560  0.00  0.00    +0.031 C 
ATOM      4  C   UNL     1      33.399 -15.350 -22.926  0.00  0.00    +0.167 C 
ATOM      5  C   UNL     1      32.771 -14.601 -25.094  0.00  0.00    -0.015 C 
ATOM      6  C   UNL     1      33.201 -15.633 -24.267  0.00  0.00    +0.101 C 
ATOM      7  O   UNL     1      33.997 -18.214 -23.583  0.00  0.00    -0.270 OA
ATOM      8  N   UNL     1      33.831 -16.397 -22.102  0.00  0.00    -0.259 N 
ATOM      9  C   UNL     1      34.096 -17.720 -22.464  0.00  0.00    +0.255 C 
ATOM     10  H   UNL     1      33.965 -16.173 -21.153  0.00  0.00    +0.157 HD
ENDROOT
BRANCH   9  14
ATOM     11  F   UNL     1      36.733 -17.773 -21.510  0.00  0.00    -0.204 F 
ATOM     12  F   UNL     1      32.303 -19.455 -21.182  0.00  0.00    -0.204 F 
ATOM     13  F   UNL     1      35.674 -21.065 -18.281  0.00  0.00    -0.204 F 
ATOM     14  C   UNL     1      34.516 -18.610 -21.351  0.00  0.00    +0.109 C 
ATOM     15  C   UNL     1      35.831 -18.581 -20.935  0.00  0.00    +0.149 C 
ATOM     16  C   UNL     1      33.578 -19.436 -20.769  0.00  0.00    +0.149 C 
ATOM     17  C   UNL     1      36.225 -19.418 -19.890  0.00  0.00    +0.060 C 
ATOM     18  C   UNL     1      33.972 -20.272 -19.724  0.00  0.00    +0.060 C 
ATOM     19  C   UNL     1      35.296 -20.263 -19.284  0.00  0.00    +0.145 C 
ENDBRANCH   9  14
BRANCH   2  21
ATOM     20  O   UNL     1      32.323 -11.769 -21.395  0.00  0.00    -0.289 OA
ATOM     21  C   UNL     1      32.576 -11.853 -22.595  0.00  0.00    +0.202 C 
BRANCH  21  23
ATOM     22  N   UNL     1      33.645  -7.882 -23.720  0.00  0.00    +0.386 N 
ATOM     23  C   UNL     1      32.673 -10.626 -23.447  0.00  0.00    +0.060 C 
ATOM     24  C   UNL     1      34.144 -10.305 -23.715  0.00  0.00    -0.015 C 
ATOM     25  C   UNL     1      31.989  -9.447 -22.757  0.00  0.00    -0.015 C 
ATOM     26  C   UNL     1      34.294  -8.974 -24.456  0.00  0.00    -0.077 C 
ATOM     27  C   UNL     1      32.212  -8.147 -23.532  0.00  0.00    -0.077 C 
ATOM     28  C   UNL     1      33.843  -6.609 -24.415  0.00  0.00    -0.101 C 
ATOM     29  H   UNL     1      34.078  -7.822 -22.798  0.00  0.00    -0.080 HD
ENDBRANCH  21  23
ENDBRANCH   2  21
TORSDOF 3
ENDMDL
MODEL 7
REMARK VINA RESULT:     -10.6      3.381      9.386
REMARK  Name = 11610526
REMARK  3 active torsions:
REMARK  status: ('A' for Active; 'I' for Inactive)
REMARK    1  A    between atoms: C_2  and  C_21
REMARK    2  A    between atoms: C_9  and  C_14
REMARK    3  A    between atoms: C_21  and  C_23
REMARK                            x       y       z     vdW  Elec       q    Type
REMARK                         _______ _______ _______ _____ _____    ______ ____
ROOT
ATOM      1  N   UNL     1      33.497 -12.092 -23.445  0.00  0.00    -0.388 NA
ATOM      2  C   UNL     1      33.133 -11.041 -24.184  0.00  0.00    +0.167 C 
ATOM      3  C   UNL     1      32.504 -11.071 -25.398  0.00  0.00    +0.031 C 
ATOM      4  C   UNL     1      33.201 -13.297 -23.982  0.00  0.00    +0.167 C 
ATOM      5  C   UNL     1      32.215 -12.328 -25.918  0.00  0.00    -0.015 C 
ATOM      6  C   UNL     1      32.567 -13.467 -25.202  0.00  0.00    +0.101 C 
ATOM      7  O   UNL     1      32.803 -16.190 -24.661  0.00  0.00    -0.270 OA
ATOM      8  N   UNL     1      33.550 -14.450 -23.269  0.00  0.00    -0.259 N 
ATOM      9  C   UNL     1      33.339 -15.782 -23.636  0.00  0.00    +0.255 C 
ATOM     10  H   UNL     1      33.999 -14.305 -22.405  0.00  0.00    +0.157 HD
ENDROOT
BRANCH   9  14
ATOM     11  F   UNL     1      34.079 -15.083 -21.022  0.00  0.00    -0.204 F 
ATOM     12  F   UNL     1      33.525 -18.509 -24.265  0.00  0.00    -0.204 F 
ATOM     13  F   UNL     1      35.072 -19.576 -19.924  0.00  0.00    -0.204 F 
ATOM     14  C   UNL     1      33.800 -16.792 -22.647  0.00  0.00    +0.109 C 
ATOM     15  C   UNL     1      34.148 -16.373 -21.380  0.00  0.00    +0.149 C 
ATOM     16  C   UNL     1      33.866 -18.115 -23.030  0.00  0.00    +0.149 C 
ATOM     17  C   UNL     1      34.581 -17.321 -20.453  0.00  0.00    +0.060 C 
ATOM     18  C   UNL     1      34.300 -19.063 -22.102  0.00  0.00    +0.060 C 
ATOM     19  C   UNL     1      34.657 -18.666 -20.814  0.00  0.00    +0.145 C 
ENDBRANCH   9  14
BRANCH   2  21
ATOM     20  O   UNL     1      34.638  -9.436 -23.334  0.00  0.00    -0.289 OA
ATOM     21  C   UNL     1      33.468  -9.721 -23.579  0.00  0.00    +0.202 C 
BRANCH  21  23
ATOM     22  N   UNL     1      31.242  -6.786 -21.432  0.00  0.00    +0.386 N 
ATOM     23  C   UNL     1      32.363  -8.757 -23.278  0.00  0.00    +0.060 C 
ATOM     24  C   UNL     1      32.937  -7.346 -23.145  0.00  0.00    -0.015 C 
ATOM     25  C   UNL     1      31.644  -9.162 -21.993  0.00  0.00    -0.015 C 
ATOM     26  C   UNL     1      31.866  -6.353 -22.689  0.00  0.00    -0.077 C 
ATOM     27  C   UNL     1      30.616  -8.108 -21.577  0.00  0.00    -0.077 C 
ATOM     28  C   UNL     1      30.258  -5.801 -20.983  0.00  0.00    -0.101 C 
ATOM     29  H   UNL     1      31.975  -6.861 -20.726  0.00  0.00    -0.080 HD
ENDBRANCH  21  23
ENDBRANCH   2  21
TORSDOF 3
ENDMDL
MODEL 8
REMARK VINA RESULT:     -10.4      5.041      7.702
REMARK  Name = 11610526
REMARK  3 active torsions:
REMARK  status: ('A' for Active; 'I' for Inactive)
REMARK    1  A    between atoms: C_2  and  C_21
REMARK    2  A    between atoms: C_9  and  C_14
REMARK    3  A    between atoms: C_21  and  C_23
REMARK                            x       y       z     vdW  Elec       q    Type
REMARK                         _______ _______ _______ _____ _____    ______ ____
ROOT
ATOM      1  N   UNL     1      34.479 -22.077 -16.834  0.00  0.00    -0.388 NA
ATOM      2  C   UNL     1      34.907 -22.549 -15.661  0.00  0.00    +0.167 C 
ATOM      3  C   UNL     1      36.050 -22.190 -15.001  0.00  0.00    +0.031 C 
ATOM      4  C   UNL     1      35.282 -21.152 -17.404  0.00  0.00    +0.167 C 
ATOM      5  C   UNL     1      36.850 -21.234 -15.618  0.00  0.00    -0.015 C 
ATOM      6  C   UNL     1      36.465 -20.700 -16.843  0.00  0.00    +0.101 C 
ATOM      7  O   UNL     1      36.640 -19.097 -19.114  0.00  0.00    -0.270 OA
ATOM      8  N   UNL     1      34.903 -20.607 -18.637  0.00  0.00    -0.259 N 
ATOM      9  C   UNL     1      35.579 -19.646 -19.394  0.00  0.00    +0.255 C 
ATOM     10  H   UNL     1      34.059 -20.942 -19.017  0.00  0.00    +0.157 HD
ENDROOT
BRANCH   9  14
ATOM     11  F   UNL     1      32.856 -20.136 -19.853  0.00  0.00    -0.204 F 
ATOM     12  F   UNL     1      36.949 -18.352 -21.472  0.00  0.00    -0.204 F 
ATOM     13  F   UNL     1      33.048 -18.142 -24.139  0.00  0.00    -0.204 F 
ATOM     14  C   UNL     1      34.905 -19.246 -20.657  0.00  0.00    +0.109 C 
ATOM     15  C   UNL     1      33.562 -19.521 -20.811  0.00  0.00    +0.149 C 
ATOM     16  C   UNL     1      35.645 -18.613 -21.634  0.00  0.00    +0.149 C 
ATOM     17  C   UNL     1      32.930 -19.145 -21.997  0.00  0.00    +0.060 C 
ATOM     18  C   UNL     1      35.012 -18.238 -22.820  0.00  0.00    +0.060 C 
ATOM     19  C   UNL     1      33.655 -18.504 -23.001  0.00  0.00    +0.145 C 
ENDBRANCH   9  14
BRANCH   2  21
ATOM     20  O   UNL     1      34.422 -24.712 -14.854  0.00  0.00    -0.289 OA
ATOM     21  C   UNL     1      34.012 -23.570 -15.047  0.00  0.00    +0.202 C 
BRANCH  21  23
ATOM     22  N   UNL     1      29.777 -23.882 -14.663  0.00  0.00    +0.386 N 
ATOM     23  C   UNL     1      32.616 -23.181 -14.671  0.00  0.00    +0.060 C 
ATOM     24  C   UNL     1      32.035 -24.221 -13.713  0.00  0.00    -0.015 C 
ATOM     25  C   UNL     1      31.745 -23.066 -15.921  0.00  0.00    -0.015 C 
ATOM     26  C   UNL     1      30.559 -23.943 -13.422  0.00  0.00    -0.077 C 
ATOM     27  C   UNL     1      30.279 -22.827 -15.555  0.00  0.00    -0.077 C 
ATOM     28  C   UNL     1      28.360 -23.668 -14.366  0.00  0.00    -0.101 C 
ATOM     29  H   UNL     1      29.879 -24.776 -15.145  0.00  0.00    -0.080 HD
ENDBRANCH  21  23
ENDBRANCH   2  21
TORSDOF 3
ENDMDL
MODEL 9
REMARK VINA RESULT:     -10.4      4.874      7.719
REMARK  Name = 11610526
REMARK  3 active torsions:
REMARK  status: ('A' for Active; 'I' for Inactive)
REMARK    1  A    between atoms: C_2  and  C_21
REMARK    2  A    between atoms: C_9  and  C_14
REMARK    3  A    between atoms: C_21  and  C_23
REMARK                            x       y       z     vdW  Elec       q    Type
REMARK                         _______ _______ _______ _____ _____    ______ ____
ROOT
ATOM      1  N   UNL     1      31.692 -10.420 -20.939  0.00  0.00    -0.388 NA
ATOM      2  C   UNL     1      31.290 -11.205 -19.936  0.00  0.00    +0.167 C 
ATOM      3  C   UNL     1      30.762 -10.802 -18.741  0.00  0.00    +0.031 C 
ATOM      4  C   UNL     1      31.551  -9.094 -20.717  0.00  0.00    +0.167 C 
ATOM      5  C   UNL     1      30.631  -9.431 -18.549  0.00  0.00    -0.015 C 
ATOM      6  C   UNL     1      31.031  -8.554 -19.552  0.00  0.00    +0.101 C 
ATOM      7  O   UNL     1      31.475  -6.098 -20.788  0.00  0.00    -0.270 OA
ATOM      8  N   UNL     1      31.949  -8.203 -21.720  0.00  0.00    -0.259 N 
ATOM      9  C   UNL     1      31.891  -6.806 -21.699  0.00  0.00    +0.255 C 
ATOM     10  H   UNL     1      32.315  -8.608 -22.539  0.00  0.00    +0.157 HD
ENDROOT
BRANCH   9  14
ATOM     11  F   UNL     1      30.125  -5.602 -23.515  0.00  0.00    -0.204 F 
ATOM     12  F   UNL     1      34.612  -6.660 -22.368  0.00  0.00    -0.204 F 
ATOM     13  F   UNL     1      33.676  -4.281 -26.348  0.00  0.00    -0.204 F 
ATOM     14  C   UNL     1      32.366  -6.134 -22.937  0.00  0.00    +0.109 C 
ATOM     15  C   UNL     1      31.438  -5.564 -23.783  0.00  0.00    +0.149 C 
ATOM     16  C   UNL     1      33.720  -6.102 -23.199  0.00  0.00    +0.149 C 
ATOM     17  C   UNL     1      31.885  -4.933 -24.945  0.00  0.00    +0.060 C 
ATOM     18  C   UNL     1      34.165  -5.472 -24.361  0.00  0.00    +0.060 C 
ATOM     19  C   UNL     1      33.248  -4.887 -25.234  0.00  0.00    +0.145 C 
ENDBRANCH   9  14
BRANCH   2  21
ATOM     20  O   UNL     1      30.794 -13.480 -19.559  0.00  0.00    -0.289 OA
ATOM     21  C   UNL     1      31.455 -12.663 -20.196  0.00  0.00    +0.202 C 
BRANCH  21  23
ATOM     22  N   UNL     1      33.228 -15.174 -23.151  0.00  0.00    +0.386 N 
ATOM     23  C   UNL     1      32.432 -13.111 -21.238  0.00  0.00    +0.060 C 
ATOM     24  C   UNL     1      31.706 -13.313 -22.568  0.00  0.00    -0.015 C 
ATOM     25  C   UNL     1      33.112 -14.407 -20.802  0.00  0.00    -0.015 C 
ATOM     26  C   UNL     1      32.638 -13.914 -23.622  0.00  0.00    -0.077 C 
ATOM     27  C   UNL     1      33.997 -14.971 -21.916  0.00  0.00    -0.077 C 
ATOM     28  C   UNL     1      34.073 -15.762 -24.190  0.00  0.00    -0.101 C 
ATOM     29  H   UNL     1      32.466 -15.821 -22.945  0.00  0.00    -0.080 HD
ENDBRANCH  21  23
ENDBRANCH   2  21
TORSDOF 3
ENDMDL
