MODEL 1
REMARK VINA RESULT:     -12.2      0.000      0.000
REMARK  Name = 5289110
REMARK  6 active torsions:
REMARK  status: ('A' for Active; 'I' for Inactive)
REMARK    1  A    between atoms: C_3  and  C_9
REMARK    2  A    between atoms: C_4  and  C_22
REMARK    3  A    between atoms: N_8  and  C_11
REMARK    4  A    between atoms: C_11  and  C_13
REMARK    5  A    between atoms: N_21  and  C_24
REMARK    6  A    between atoms: C_24  and  C_26
REMARK                            x       y       z     vdW  Elec       q    Type
REMARK                         _______ _______ _______ _____ _____    ______ ____
ROOT
ATOM      1  N   UNL     1      33.680 -15.084 -20.587  0.00  0.00    -0.244 NA
ATOM      2  N   UNL     1      33.223 -12.853 -21.375  0.00  0.00    -0.244 NA
ATOM      3  C   UNL     1      33.878 -15.456 -21.868  0.00  0.00    +0.115 C 
ATOM      4  C   UNL     1      33.438 -13.316 -22.609  0.00  0.00    +0.115 C 
ATOM      5  C   UNL     1      33.769 -14.596 -22.943  0.00  0.00    +0.100 C 
ATOM      6  C   UNL     1      33.359 -13.787 -20.415  0.00  0.00    +0.250 C 
ENDROOT
BRANCH   3   9
ATOM      7  O   UNL     1      34.159 -17.359 -23.209  0.00  0.00    -0.269 OA
ATOM      8  N   UNL     1      34.653 -17.574 -20.955  0.00  0.00    -0.296 N 
ATOM      9  C   UNL     1      34.226 -16.851 -22.076  0.00  0.00    +0.260 C 
ATOM     10  H   UNL     1      34.683 -17.111 -20.087  0.00  0.00    +0.150 HD
BRANCH   8  11
ATOM     11  C   UNL     1      35.055 -18.961 -21.002  0.00  0.00    +0.117 C 
BRANCH  11  13
ATOM     12  F   UNL     1      31.947 -22.164 -17.583  0.00  0.00    -0.205 F 
ATOM     13  C   UNL     1      34.227 -19.817 -20.087  0.00  0.00    -0.003 C 
ATOM     14  C   UNL     1      34.851 -20.584 -19.110  0.00  0.00    -0.005 C 
ATOM     15  C   UNL     1      34.082 -21.378 -18.260  0.00  0.00    +0.005 C 
ATOM     16  C   UNL     1      32.844 -19.835 -20.227  0.00  0.00    -0.000 C 
ATOM     17  C   UNL     1      32.694 -21.402 -18.394  0.00  0.00    +0.136 C 
ATOM     18  C   UNL     1      32.075 -20.630 -19.377  0.00  0.00    +0.029 C 
ATOM     19  C   UNL     1      34.747 -22.202 -17.209  0.00  0.00    +0.033 C 
ENDBRANCH  11  13
ENDBRANCH   8  11
ENDBRANCH   3   9
BRANCH   4  22
ATOM     20  O   UNL     1      32.710 -12.607 -24.722  0.00  0.00    -0.269 OA
ATOM     21  N   UNL     1      33.816 -11.046 -23.412  0.00  0.00    -0.296 N 
ATOM     22  C   UNL     1      33.291 -12.301 -23.684  0.00  0.00    +0.260 C 
ATOM     23  H   UNL     1      34.265 -10.898 -22.548  0.00  0.00    +0.150 HD
BRANCH  21  24
ATOM     24  C   UNL     1      33.730  -9.950 -24.344  0.00  0.00    +0.117 C 
BRANCH  24  26
ATOM     25  F   UNL     1      32.125  -5.163 -21.873  0.00  0.00    -0.205 F 
ATOM     26  C   UNL     1      33.301  -8.681 -23.688  0.00  0.00    -0.003 C 
ATOM     27  C   UNL     1      31.943  -8.401 -23.530  0.00  0.00    -0.005 C 
ATOM     28  C   UNL     1      31.543  -7.213 -22.918  0.00  0.00    +0.005 C 
ATOM     29  C   UNL     1      34.257  -7.774 -23.232  0.00  0.00    -0.000 C 
ATOM     30  C   UNL     1      32.500  -6.306 -22.463  0.00  0.00    +0.136 C 
ATOM     31  C   UNL     1      33.857  -6.586 -22.620  0.00  0.00    +0.029 C 
ATOM     32  C   UNL     1      30.091  -6.917 -22.750  0.00  0.00    +0.033 C 
ENDBRANCH  24  26
ENDBRANCH  21  24
ENDBRANCH   4  22
TORSDOF 6
ENDMDL
MODEL 2
REMARK VINA RESULT:     -12.2      0.162     11.404
REMARK  Name = 5289110
REMARK  6 active torsions:
REMARK  status: ('A' for Active; 'I' for Inactive)
REMARK    1  A    between atoms: C_3  and  C_9
REMARK    2  A    between atoms: C_4  and  C_22
REMARK    3  A    between atoms: N_8  and  C_11
REMARK    4  A    between atoms: C_11  and  C_13
REMARK    5  A    between atoms: N_21  and  C_24
REMARK    6  A    between atoms: C_24  and  C_26
REMARK                            x       y       z     vdW  Elec       q    Type
REMARK                         _______ _______ _______ _____ _____    ______ ____
ROOT
ATOM      1  N   UNL     1      33.152 -12.825 -21.418  0.00  0.00    -0.244 NA
ATOM      2  N   UNL     1      33.620 -15.062 -20.655  0.00  0.00    -0.244 NA
ATOM      3  C   UNL     1      33.419 -13.237 -22.674  0.00  0.00    +0.115 C 
ATOM      4  C   UNL     1      33.863 -15.375 -21.930  0.00  0.00    +0.115 C 
ATOM      5  C   UNL     1      33.786 -14.528 -22.996  0.00  0.00    +0.100 C 
ATOM      6  C   UNL     1      33.271 -13.775 -20.471  0.00  0.00    +0.250 C 
ENDROOT
BRANCH   3   9
ATOM      7  O   UNL     1      32.730 -12.490 -24.788  0.00  0.00    -0.269 OA
ATOM      8  N   UNL     1      33.820 -10.960 -23.430  0.00  0.00    -0.296 N 
ATOM      9  C   UNL     1      33.296 -12.228 -23.711  0.00  0.00    +0.260 C 
ATOM     10  H   UNL     1      34.255 -10.819 -22.558  0.00  0.00    +0.150 HD
BRANCH   8  11
ATOM     11  C   UNL     1      33.756  -9.845 -24.348  0.00  0.00    +0.117 C 
BRANCH  11  13
ATOM     12  F   UNL     1      32.016  -5.132 -21.825  0.00  0.00    -0.205 F 
ATOM     13  C   UNL     1      33.288  -8.588 -23.673  0.00  0.00    -0.003 C 
ATOM     14  C   UNL     1      31.936  -8.410 -23.409  0.00  0.00    -0.005 C 
ATOM     15  C   UNL     1      31.501  -7.242 -22.782  0.00  0.00    +0.005 C 
ATOM     16  C   UNL     1      34.214  -7.612 -23.321  0.00  0.00    -0.000 C 
ATOM     17  C   UNL     1      32.424  -6.258 -22.426  0.00  0.00    +0.136 C 
ATOM     18  C   UNL     1      33.780  -6.444 -22.695  0.00  0.00    +0.029 C 
ATOM     19  C   UNL     1      30.051  -7.048 -22.495  0.00  0.00    +0.033 C 
ENDBRANCH  11  13
ENDBRANCH   8  11
ENDBRANCH   3   9
BRANCH   4  22
ATOM     20  O   UNL     1      34.213 -17.250 -23.294  0.00  0.00    -0.269 OA
ATOM     21  N   UNL     1      34.662 -17.495 -21.032  0.00  0.00    -0.296 N 
ATOM     22  C   UNL     1      34.252 -16.791 -22.155  0.00  0.00    +0.260 C 
ATOM     23  H   UNL     1      34.659 -17.039 -20.159  0.00  0.00    +0.150 HD
BRANCH  21  24
ATOM     24  C   UNL     1      35.092 -18.869 -21.092  0.00  0.00    +0.117 C 
BRANCH  24  26
ATOM     25  F   UNL     1      32.226 -22.157 -17.545  0.00  0.00    -0.205 F 
ATOM     26  C   UNL     1      34.334 -19.743 -20.149  0.00  0.00    -0.003 C 
ATOM     27  C   UNL     1      35.012 -20.457 -19.162  0.00  0.00    -0.005 C 
ATOM     28  C   UNL     1      34.303 -21.273 -18.280  0.00  0.00    +0.005 C 
ATOM     29  C   UNL     1      32.947 -19.844 -20.255  0.00  0.00    -0.000 C 
ATOM     30  C   UNL     1      32.916 -21.375 -18.387  0.00  0.00    +0.136 C 
ATOM     31  C   UNL     1      32.238 -20.660 -19.374  0.00  0.00    +0.029 C 
ATOM     32  C   UNL     1      35.032 -22.036 -17.225  0.00  0.00    +0.033 C 
ENDBRANCH  24  26
ENDBRANCH  21  24
ENDBRANCH   4  22
TORSDOF 6
ENDMDL
MODEL 3
REMARK VINA RESULT:     -12.1      8.254     13.342
REMARK  Name = 5289110
REMARK  6 active torsions:
REMARK  status: ('A' for Active; 'I' for Inactive)
REMARK    1  A    between atoms: C_3  and  C_9
REMARK    2  A    between atoms: C_4  and  C_22
REMARK    3  A    between atoms: N_8  and  C_11
REMARK    4  A    between atoms: C_11  and  C_13
REMARK    5  A    between atoms: N_21  and  C_24
REMARK    6  A    between atoms: C_24  and  C_26
REMARK                            x       y       z     vdW  Elec       q    Type
REMARK                         _______ _______ _______ _____ _____    ______ ____
ROOT
ATOM      1  N   UNL     1      37.189 -23.432 -14.266  0.00  0.00    -0.244 NA
ATOM      2  N   UNL     1      35.764 -24.405 -12.585  0.00  0.00    -0.244 NA
ATOM      3  C   UNL     1      36.153 -22.657 -14.644  0.00  0.00    +0.115 C 
ATOM      4  C   UNL     1      34.798 -23.597 -13.031  0.00  0.00    +0.115 C 
ATOM      5  C   UNL     1      34.907 -22.697 -14.050  0.00  0.00    +0.100 C 
ATOM      6  C   UNL     1      36.929 -24.271 -13.246  0.00  0.00    +0.250 C 
ENDROOT
BRANCH   3   9
ATOM      7  O   UNL     1      37.166 -20.765 -15.591  0.00  0.00    -0.269 OA
ATOM      8  N   UNL     1      35.797 -22.031 -16.969  0.00  0.00    -0.296 N 
ATOM      9  C   UNL     1      36.412 -21.743 -15.744  0.00  0.00    +0.260 C 
ATOM     10  H   UNL     1      35.212 -22.821 -17.021  0.00  0.00    +0.150 HD
BRANCH   8  11
ATOM     11  C   UNL     1      35.974 -21.233 -18.160  0.00  0.00    +0.117 C 
BRANCH  11  13
ATOM     12  F   UNL     1      31.055 -19.917 -20.545  0.00  0.00    -0.205 F 
ATOM     13  C   UNL     1      34.662 -20.880 -18.800  0.00  0.00    -0.003 C 
ATOM     14  C   UNL     1      34.639 -20.040 -19.906  0.00  0.00    -0.005 C 
ATOM     15  C   UNL     1      33.420 -19.713 -20.500  0.00  0.00    +0.005 C 
ATOM     16  C   UNL     1      33.482 -21.397 -18.277  0.00  0.00    -0.000 C 
ATOM     17  C   UNL     1      32.231 -20.227 -19.982  0.00  0.00    +0.136 C 
ATOM     18  C   UNL     1      32.263 -21.070 -18.871  0.00  0.00    +0.029 C 
ATOM     19  C   UNL     1      33.391 -18.812 -21.689  0.00  0.00    +0.033 C 
ENDBRANCH  11  13
ENDBRANCH   8  11
ENDBRANCH   3   9
BRANCH   4  22
ATOM     20  O   UNL     1      33.460 -24.368 -11.266  0.00  0.00    -0.269 OA
ATOM     21  N   UNL     1      32.419 -23.087 -12.895  0.00  0.00    -0.296 N 
ATOM     22  C   UNL     1      33.503 -23.730 -12.316  0.00  0.00    +0.260 C 
ATOM     23  H   UNL     1      32.553 -22.600 -13.740  0.00  0.00    +0.150 HD
BRANCH  21  24
ATOM     24  C   UNL     1      31.103 -23.104 -12.309  0.00  0.00    +0.117 C 
BRANCH  24  26
ATOM     25  F   UNL     1      27.158 -24.747 -15.962  0.00  0.00    -0.205 F 
ATOM     26  C   UNL     1      30.055 -23.537 -13.279  0.00  0.00    -0.003 C 
ATOM     27  C   UNL     1      29.286 -22.584 -13.948  0.00  0.00    -0.005 C 
ATOM     28  C   UNL     1      28.307 -22.990 -14.855  0.00  0.00    +0.005 C 
ATOM     29  C   UNL     1      29.845 -24.894 -13.518  0.00  0.00    -0.000 C 
ATOM     30  C   UNL     1      28.097 -24.347 -15.093  0.00  0.00    +0.136 C 
ATOM     31  C   UNL     1      28.865 -25.300 -14.424  0.00  0.00    +0.029 C 
ATOM     32  C   UNL     1      27.487 -21.968 -15.568  0.00  0.00    +0.033 C 
ENDBRANCH  24  26
ENDBRANCH  21  24
ENDBRANCH   4  22
TORSDOF 6
ENDMDL
MODEL 4
REMARK VINA RESULT:     -12.1      8.272     11.764
REMARK  Name = 5289110
REMARK  6 active torsions:
REMARK  status: ('A' for Active; 'I' for Inactive)
REMARK    1  A    between atoms: C_3  and  C_9
REMARK    2  A    between atoms: C_4  and  C_22
REMARK    3  A    between atoms: N_8  and  C_11
REMARK    4  A    between atoms: C_11  and  C_13
REMARK    5  A    between atoms: N_21  and  C_24
REMARK    6  A    between atoms: C_24  and  C_26
REMARK                            x       y       z     vdW  Elec       q    Type
REMARK                         _______ _______ _______ _____ _____    ______ ____
ROOT
ATOM      1  N   UNL     1      35.786 -24.476 -12.606  0.00  0.00    -0.244 NA
ATOM      2  N   UNL     1      37.202 -23.472 -14.278  0.00  0.00    -0.244 NA
ATOM      3  C   UNL     1      34.792 -23.660 -13.012  0.00  0.00    +0.115 C 
ATOM      4  C   UNL     1      36.158 -22.708 -14.608  0.00  0.00    +0.115 C 
ATOM      5  C   UNL     1      34.923 -22.737 -14.030  0.00  0.00    +0.100 C 
ATOM      6  C   UNL     1      36.948 -24.330 -13.272  0.00  0.00    +0.250 C 
ENDROOT
BRANCH   3   9
ATOM      7  O   UNL     1      33.461 -24.464 -11.256  0.00  0.00    -0.269 OA
ATOM      8  N   UNL     1      32.419 -23.144 -12.852  0.00  0.00    -0.296 N 
ATOM      9  C   UNL     1      33.530 -23.801 -12.307  0.00  0.00    +0.260 C 
ATOM     10  H   UNL     1      32.543 -22.636 -13.686  0.00  0.00    +0.150 HD
BRANCH   8  11
ATOM     11  C   UNL     1      31.103 -23.169 -12.257  0.00  0.00    +0.117 C 
BRANCH  11  13
ATOM     12  F   UNL     1      27.157 -24.727 -15.946  0.00  0.00    -0.205 F 
ATOM     13  C   UNL     1      30.049 -23.582 -13.244  0.00  0.00    -0.003 C 
ATOM     14  C   UNL     1      29.276 -22.613 -13.872  0.00  0.00    -0.005 C 
ATOM     15  C   UNL     1      28.297 -22.996 -14.788  0.00  0.00    +0.005 C 
ATOM     16  C   UNL     1      29.855 -24.931 -13.518  0.00  0.00    -0.000 C 
ATOM     17  C   UNL     1      28.096 -24.348 -15.069  0.00  0.00    +0.136 C 
ATOM     18  C   UNL     1      28.875 -25.315 -14.434  0.00  0.00    +0.029 C 
ATOM     19  C   UNL     1      27.466 -21.959 -15.466  0.00  0.00    +0.033 C 
ENDBRANCH  11  13
ENDBRANCH   8  11
ENDBRANCH   3   9
BRANCH   4  22
ATOM     20  O   UNL     1      37.142 -20.780 -15.510  0.00  0.00    -0.269 OA
ATOM     21  N   UNL     1      35.824 -22.053 -16.932  0.00  0.00    -0.296 N 
ATOM     22  C   UNL     1      36.418 -21.751 -15.714  0.00  0.00    +0.260 C 
ATOM     23  H   UNL     1      35.259 -22.856 -16.997  0.00  0.00    +0.150 HD
BRANCH  21  24
ATOM     24  C   UNL     1      36.002 -21.236 -18.105  0.00  0.00    +0.117 C 
BRANCH  24  26
ATOM     25  F   UNL     1      31.111 -19.933 -20.550  0.00  0.00    -0.205 F 
ATOM     26  C   UNL     1      34.706 -20.888 -18.756  0.00  0.00    -0.003 C 
ATOM     27  C   UNL     1      34.686 -20.045 -19.867  0.00  0.00    -0.005 C 
ATOM     28  C   UNL     1      33.473 -19.721 -20.475  0.00  0.00    +0.005 C 
ATOM     29  C   UNL     1      33.513 -21.407 -18.254  0.00  0.00    -0.000 C 
ATOM     30  C   UNL     1      32.281 -20.240 -19.973  0.00  0.00    +0.136 C 
ATOM     31  C   UNL     1      32.300 -21.083 -18.862  0.00  0.00    +0.029 C 
ATOM     32  C   UNL     1      33.457 -18.819 -21.664  0.00  0.00    +0.033 C 
ENDBRANCH  24  26
ENDBRANCH  21  24
ENDBRANCH   4  22
TORSDOF 6
ENDMDL
MODEL 5
REMARK VINA RESULT:     -12.0      0.914      1.396
REMARK  Name = 5289110
REMARK  6 active torsions:
REMARK  status: ('A' for Active; 'I' for Inactive)
REMARK    1  A    between atoms: C_3  and  C_9
REMARK    2  A    between atoms: C_4  and  C_22
REMARK    3  A    between atoms: N_8  and  C_11
REMARK    4  A    between atoms: C_11  and  C_13
REMARK    5  A    between atoms: N_21  and  C_24
REMARK    6  A    between atoms: C_24  and  C_26
REMARK                            x       y       z     vdW  Elec       q    Type
REMARK                         _______ _______ _______ _____ _____    ______ ____
ROOT
ATOM      1  N   UNL     1      33.799 -15.504 -20.252  0.00  0.00    -0.244 NA
ATOM      2  N   UNL     1      33.071 -13.373 -21.109  0.00  0.00    -0.244 NA
ATOM      3  C   UNL     1      34.055 -15.885 -21.520  0.00  0.00    +0.115 C 
ATOM      4  C   UNL     1      33.356 -13.841 -22.327  0.00  0.00    +0.115 C 
ATOM      5  C   UNL     1      33.849 -15.078 -22.621  0.00  0.00    +0.100 C 
ATOM      6  C   UNL     1      33.316 -14.254 -20.121  0.00  0.00    +0.250 C 
ENDROOT
BRANCH   3   9
ATOM      7  O   UNL     1      34.617 -17.763 -22.807  0.00  0.00    -0.269 OA
ATOM      8  N   UNL     1      35.048 -17.874 -20.532  0.00  0.00    -0.296 N 
ATOM      9  C   UNL     1      34.578 -17.230 -21.684  0.00  0.00    +0.260 C 
ATOM     10  H   UNL     1      34.988 -17.396 -19.675  0.00  0.00    +0.150 HD
BRANCH   8  11
ATOM     11  C   UNL     1      35.618 -19.203 -20.534  0.00  0.00    +0.117 C 
BRANCH  11  13
ATOM     12  F   UNL     1      33.063 -22.589 -16.844  0.00  0.00    -0.205 F 
ATOM     13  C   UNL     1      34.938 -20.107 -19.546  0.00  0.00    -0.003 C 
ATOM     14  C   UNL     1      35.655 -20.612 -18.468  0.00  0.00    -0.005 C 
ATOM     15  C   UNL     1      35.023 -21.451 -17.551  0.00  0.00    +0.005 C 
ATOM     16  C   UNL     1      33.597 -20.431 -19.721  0.00  0.00    -0.000 C 
ATOM     17  C   UNL     1      33.678 -21.782 -17.719  0.00  0.00    +0.136 C 
ATOM     18  C   UNL     1      32.965 -21.271 -18.804  0.00  0.00    +0.029 C 
ATOM     19  C   UNL     1      35.788 -21.994 -16.391  0.00  0.00    +0.033 C 
ENDBRANCH  11  13
ENDBRANCH   8  11
ENDBRANCH   3   9
BRANCH   4  22
ATOM     20  O   UNL     1      32.417 -13.249 -24.394  0.00  0.00    -0.269 OA
ATOM     21  N   UNL     1      33.623 -11.612 -23.277  0.00  0.00    -0.296 N 
ATOM     22  C   UNL     1      33.091 -12.884 -23.433  0.00  0.00    +0.260 C 
ATOM     23  H   UNL     1      34.150 -11.415 -22.470  0.00  0.00    +0.150 HD
BRANCH  21  24
ATOM     24  C   UNL     1      33.432 -10.567 -24.251  0.00  0.00    +0.117 C 
BRANCH  24  26
ATOM     25  F   UNL     1      32.397  -5.588 -21.856  0.00  0.00    -0.205 F 
ATOM     26  C   UNL     1      33.159  -9.244 -23.618  0.00  0.00    -0.003 C 
ATOM     27  C   UNL     1      33.786  -8.096 -24.101  0.00  0.00    -0.005 C 
ATOM     28  C   UNL     1      33.531  -6.859 -23.508  0.00  0.00    +0.005 C 
ATOM     29  C   UNL     1      32.276  -9.155 -22.542  0.00  0.00    -0.000 C 
ATOM     30  C   UNL     1      32.649  -6.771 -22.432  0.00  0.00    +0.136 C 
ATOM     31  C   UNL     1      32.022  -7.919 -21.948  0.00  0.00    +0.029 C 
ATOM     32  C   UNL     1      34.203  -5.634 -24.028  0.00  0.00    +0.033 C 
ENDBRANCH  24  26
ENDBRANCH  21  24
ENDBRANCH   4  22
TORSDOF 6
ENDMDL
MODEL 6
REMARK VINA RESULT:     -11.8      2.514     10.976
REMARK  Name = 5289110
REMARK  6 active torsions:
REMARK  status: ('A' for Active; 'I' for Inactive)
REMARK    1  A    between atoms: C_3  and  C_9
REMARK    2  A    between atoms: C_4  and  C_22
REMARK    3  A    between atoms: N_8  and  C_11
REMARK    4  A    between atoms: C_11  and  C_13
REMARK    5  A    between atoms: N_21  and  C_24
REMARK    6  A    between atoms: C_24  and  C_26
REMARK                            x       y       z     vdW  Elec       q    Type
REMARK                         _______ _______ _______ _____ _____    ______ ____
ROOT
ATOM      1  N   UNL     1      33.218 -17.640 -24.248  0.00  0.00    -0.244 NA
ATOM      2  N   UNL     1      33.999 -19.308 -22.693  0.00  0.00    -0.244 NA
ATOM      3  C   UNL     1      33.653 -16.692 -23.393  0.00  0.00    +0.115 C 
ATOM      4  C   UNL     1      34.396 -18.299 -21.914  0.00  0.00    +0.115 C 
ATOM      5  C   UNL     1      34.263 -16.969 -22.185  0.00  0.00    +0.100 C 
ATOM      6  C   UNL     1      33.419 -18.908 -23.841  0.00  0.00    +0.250 C 
ENDROOT
BRANCH   3   9
ATOM      7  O   UNL     1      33.284 -15.039 -25.014  0.00  0.00    -0.269 OA
ATOM      8  N   UNL     1      33.416 -14.343 -22.807  0.00  0.00    -0.296 N 
ATOM      9  C   UNL     1      33.446 -15.317 -23.812  0.00  0.00    +0.260 C 
ATOM     10  H   UNL     1      33.551 -14.632 -21.876  0.00  0.00    +0.150 HD
BRANCH   8  11
ATOM     11  C   UNL     1      33.198 -12.937 -23.060  0.00  0.00    +0.117 C 
BRANCH  11  13
ATOM     12  F   UNL     1      29.984 -10.572 -19.100  0.00  0.00    -0.205 F 
ATOM     13  C   UNL     1      32.338 -12.303 -22.005  0.00  0.00    -0.003 C 
ATOM     14  C   UNL     1      31.994 -10.961 -22.112  0.00  0.00    -0.005 C 
ATOM     15  C   UNL     1      31.196 -10.372 -21.131  0.00  0.00    +0.005 C 
ATOM     16  C   UNL     1      31.898 -13.065 -20.928  0.00  0.00    -0.000 C 
ATOM     17  C   UNL     1      30.749 -11.130 -20.048  0.00  0.00    +0.136 C 
ATOM     18  C   UNL     1      31.100 -12.476 -19.947  0.00  0.00    +0.029 C 
ATOM     19  C   UNL     1      30.821  -8.932 -21.243  0.00  0.00    +0.033 C 
ENDBRANCH  11  13
ENDBRANCH   8  11
ENDBRANCH   3   9
BRANCH   4  22
ATOM     20  O   UNL     1      35.579 -17.872 -19.934  0.00  0.00    -0.269 OA
ATOM     21  N   UNL     1      34.949 -20.068 -20.330  0.00  0.00    -0.296 N 
ATOM     22  C   UNL     1      35.037 -18.718 -20.640  0.00  0.00    +0.260 C 
ATOM     23  H   UNL     1      34.492 -20.670 -20.962  0.00  0.00    +0.150 HD
BRANCH  21  24
ATOM     24  C   UNL     1      35.499 -20.623 -19.120  0.00  0.00    +0.117 C 
BRANCH  24  26
ATOM     25  F   UNL     1      31.587 -23.149 -15.970  0.00  0.00    -0.205 F 
ATOM     26  C   UNL     1      34.463 -21.294 -18.282  0.00  0.00    -0.003 C 
ATOM     27  C   UNL     1      34.812 -21.846 -17.049  0.00  0.00    -0.005 C 
ATOM     28  C   UNL     1      33.843 -22.474 -16.266  0.00  0.00    +0.005 C 
ATOM     29  C   UNL     1      33.144 -21.369 -18.730  0.00  0.00    -0.000 C 
ATOM     30  C   UNL     1      32.525 -22.548 -16.716  0.00  0.00    +0.136 C 
ATOM     31  C   UNL     1      32.176 -21.996 -17.948  0.00  0.00    +0.029 C 
ATOM     32  C   UNL     1      34.221 -23.062 -14.949  0.00  0.00    +0.033 C 
ENDBRANCH  24  26
ENDBRANCH  21  24
ENDBRANCH   4  22
TORSDOF 6
ENDMDL
MODEL 7
REMARK VINA RESULT:     -11.8      2.523      3.804
REMARK  Name = 5289110
REMARK  6 active torsions:
REMARK  status: ('A' for Active; 'I' for Inactive)
REMARK    1  A    between atoms: C_3  and  C_9
REMARK    2  A    between atoms: C_4  and  C_22
REMARK    3  A    between atoms: N_8  and  C_11
REMARK    4  A    between atoms: C_11  and  C_13
REMARK    5  A    between atoms: N_21  and  C_24
REMARK    6  A    between atoms: C_24  and  C_26
REMARK                            x       y       z     vdW  Elec       q    Type
REMARK                         _______ _______ _______ _____ _____    ______ ____
ROOT
ATOM      1  N   UNL     1      33.982 -19.278 -22.679  0.00  0.00    -0.244 NA
ATOM      2  N   UNL     1      33.196 -17.609 -24.229  0.00  0.00    -0.244 NA
ATOM      3  C   UNL     1      34.411 -18.280 -21.879  0.00  0.00    +0.115 C 
ATOM      4  C   UNL     1      33.653 -16.693 -23.372  0.00  0.00    +0.115 C 
ATOM      5  C   UNL     1      34.270 -16.940 -22.181  0.00  0.00    +0.100 C 
ATOM      6  C   UNL     1      33.393 -18.877 -23.821  0.00  0.00    +0.250 C 
ENDROOT
BRANCH   3   9
ATOM      7  O   UNL     1      35.599 -17.853 -19.903  0.00  0.00    -0.269 OA
ATOM      8  N   UNL     1      34.993 -20.052 -20.317  0.00  0.00    -0.296 N 
ATOM      9  C   UNL     1      35.049 -18.690 -20.641  0.00  0.00    +0.260 C 
ATOM     10  H   UNL     1      34.543 -20.661 -20.945  0.00  0.00    +0.150 HD
BRANCH   8  11
ATOM     11  C   UNL     1      35.560 -20.612 -19.111  0.00  0.00    +0.117 C 
BRANCH  11  13
ATOM     12  F   UNL     1      31.668 -23.170 -15.962  0.00  0.00    -0.205 F 
ATOM     13  C   UNL     1      34.522 -21.295 -18.267  0.00  0.00    -0.003 C 
ATOM     14  C   UNL     1      34.873 -21.805 -17.023  0.00  0.00    -0.005 C 
ATOM     15  C   UNL     1      33.909 -22.439 -16.240  0.00  0.00    +0.005 C 
ATOM     16  C   UNL     1      33.220 -21.412 -18.741  0.00  0.00    -0.000 C 
ATOM     17  C   UNL     1      32.600 -22.561 -16.707  0.00  0.00    +0.136 C 
ATOM     18  C   UNL     1      32.256 -22.046 -17.957  0.00  0.00    +0.029 C 
ATOM     19  C   UNL     1      34.281 -22.987 -14.903  0.00  0.00    +0.033 C 
ENDBRANCH  11  13
ENDBRANCH   8  11
ENDBRANCH   3   9
BRANCH   4  22
ATOM     20  O   UNL     1      33.372 -15.033 -25.004  0.00  0.00    -0.269 OA
ATOM     21  N   UNL     1      33.329 -14.349 -22.788  0.00  0.00    -0.296 N 
ATOM     22  C   UNL     1      33.447 -15.287 -23.804  0.00  0.00    +0.260 C 
ATOM     23  H   UNL     1      33.403 -14.651 -21.854  0.00  0.00    +0.150 HD
BRANCH  21  24
ATOM     24  C   UNL     1      33.102 -12.950 -23.047  0.00  0.00    +0.117 C 
BRANCH  24  26
ATOM     25  F   UNL     1      30.042 -10.511 -19.011  0.00  0.00    -0.205 F 
ATOM     26  C   UNL     1      32.290 -12.300 -21.978  0.00  0.00    -0.003 C 
ATOM     27  C   UNL     1      31.933 -10.956 -22.092  0.00  0.00    -0.005 C 
ATOM     28  C   UNL     1      31.174 -10.349 -21.091  0.00  0.00    +0.005 C 
ATOM     29  C   UNL     1      31.886 -13.036 -20.864  0.00  0.00    -0.000 C 
ATOM     30  C   UNL     1      30.771 -11.086 -19.978  0.00  0.00    +0.136 C 
ATOM     31  C   UNL     1      31.128 -12.429 -19.864  0.00  0.00    +0.029 C 
ATOM     32  C   UNL     1      30.794  -8.912 -21.216  0.00  0.00    +0.033 C 
ENDBRANCH  24  26
ENDBRANCH  21  24
ENDBRANCH   4  22
TORSDOF 6
ENDMDL
MODEL 8
REMARK VINA RESULT:     -11.7      3.163     11.688
REMARK  Name = 5289110
REMARK  6 active torsions:
REMARK  status: ('A' for Active; 'I' for Inactive)
REMARK    1  A    between atoms: C_3  and  C_9
REMARK    2  A    between atoms: C_4  and  C_22
REMARK    3  A    between atoms: N_8  and  C_11
REMARK    4  A    between atoms: C_11  and  C_13
REMARK    5  A    between atoms: N_21  and  C_24
REMARK    6  A    between atoms: C_24  and  C_26
REMARK                            x       y       z     vdW  Elec       q    Type
REMARK                         _______ _______ _______ _____ _____    ______ ____
ROOT
ATOM      1  N   UNL     1      35.811 -18.289 -21.191  0.00  0.00    -0.244 NA
ATOM      2  N   UNL     1      35.207 -19.916 -19.520  0.00  0.00    -0.244 NA
ATOM      3  C   UNL     1      34.516 -18.244 -21.562  0.00  0.00    +0.115 C 
ATOM      4  C   UNL     1      33.951 -19.801 -19.958  0.00  0.00    +0.115 C 
ATOM      5  C   UNL     1      33.520 -18.993 -20.968  0.00  0.00    +0.100 C 
ATOM      6  C   UNL     1      36.083 -19.135 -20.179  0.00  0.00    +0.250 C 
ENDROOT
BRANCH   3   9
ATOM      7  O   UNL     1      33.705 -17.766 -23.710  0.00  0.00    -0.269 OA
ATOM      8  N   UNL     1      34.459 -15.977 -22.444  0.00  0.00    -0.296 N 
ATOM      9  C   UNL     1      34.200 -17.337 -22.653  0.00  0.00    +0.260 C 
ATOM     10  H   UNL     1      34.853 -15.705 -21.584  0.00  0.00    +0.150 HD
BRANCH   8  11
ATOM     11  C   UNL     1      34.180 -14.950 -23.421  0.00  0.00    +0.117 C 
BRANCH  11  13
ATOM     12  F   UNL     1      31.302 -10.655 -21.212  0.00  0.00    -0.205 F 
ATOM     13  C   UNL     1      33.411 -13.804 -22.828  0.00  0.00    -0.003 C 
ATOM     14  C   UNL     1      32.708 -13.987 -21.644  0.00  0.00    -0.005 C 
ATOM     15  C   UNL     1      31.994 -12.923 -21.093  0.00  0.00    +0.005 C 
ATOM     16  C   UNL     1      33.409 -12.572 -23.472  0.00  0.00    -0.000 C 
ATOM     17  C   UNL     1      31.986 -11.683 -21.732  0.00  0.00    +0.136 C 
ATOM     18  C   UNL     1      32.694 -11.508 -22.921  0.00  0.00    +0.029 C 
ATOM     19  C   UNL     1      31.239 -13.114 -19.820  0.00  0.00    +0.033 C 
ENDBRANCH  11  13
ENDBRANCH   8  11
ENDBRANCH   3   9
BRANCH   4  22
ATOM     20  O   UNL     1      31.771 -20.527 -19.488  0.00  0.00    -0.269 OA
ATOM     21  N   UNL     1      33.498 -21.577 -18.350  0.00  0.00    -0.296 N 
ATOM     22  C   UNL     1      32.968 -20.657 -19.244  0.00  0.00    +0.260 C 
ATOM     23  H   UNL     1      34.474 -21.606 -18.223  0.00  0.00    +0.150 HD
BRANCH  21  24
ATOM     24  C   UNL     1      32.676 -22.493 -17.601  0.00  0.00    +0.117 C 
BRANCH  24  26
ATOM     25  F   UNL     1      34.637 -23.345 -12.402  0.00  0.00    -0.205 F 
ATOM     26  C   UNL     1      33.193 -22.720 -16.220  0.00  0.00    -0.003 C 
ATOM     27  C   UNL     1      32.357 -23.255 -15.240  0.00  0.00    -0.005 C 
ATOM     28  C   UNL     1      32.842 -23.467 -13.950  0.00  0.00    +0.005 C 
ATOM     29  C   UNL     1      34.515 -22.400 -15.909  0.00  0.00    -0.000 C 
ATOM     30  C   UNL     1      34.163 -23.145 -13.639  0.00  0.00    +0.136 C 
ATOM     31  C   UNL     1      34.999 -22.611 -14.619  0.00  0.00    +0.029 C 
ATOM     32  C   UNL     1      31.944 -24.038 -12.904  0.00  0.00    +0.033 C 
ENDBRANCH  24  26
ENDBRANCH  21  24
ENDBRANCH   4  22
TORSDOF 6
ENDMDL
MODEL 9
REMARK VINA RESULT:     -11.7      3.149      5.392
REMARK  Name = 5289110
REMARK  6 active torsions:
REMARK  status: ('A' for Active; 'I' for Inactive)
REMARK    1  A    between atoms: C_3  and  C_9
REMARK    2  A    between atoms: C_4  and  C_22
REMARK    3  A    between atoms: N_8  and  C_11
REMARK    4  A    between atoms: C_11  and  C_13
REMARK    5  A    between atoms: N_21  and  C_24
REMARK    6  A    between atoms: C_24  and  C_26
REMARK                            x       y       z     vdW  Elec       q    Type
REMARK                         _______ _______ _______ _____ _____    ______ ____
ROOT
ATOM      1  N   UNL     1      35.142 -19.897 -19.531  0.00  0.00    -0.244 NA
ATOM      2  N   UNL     1      35.758 -18.265 -21.193  0.00  0.00    -0.244 NA
ATOM      3  C   UNL     1      33.869 -19.805 -19.965  0.00  0.00    +0.115 C 
ATOM      4  C   UNL     1      34.472 -18.243 -21.552  0.00  0.00    +0.115 C 
ATOM      5  C   UNL     1      33.467 -18.977 -20.994  0.00  0.00    +0.100 C 
ATOM      6  C   UNL     1      36.022 -19.111 -20.179  0.00  0.00    +0.250 C 
ENDROOT
BRANCH   3   9
ATOM      7  O   UNL     1      31.688 -20.548 -19.528  0.00  0.00    -0.269 OA
ATOM      8  N   UNL     1      33.407 -21.569 -18.355  0.00  0.00    -0.296 N 
ATOM      9  C   UNL     1      32.903 -20.645 -19.279  0.00  0.00    +0.260 C 
ATOM     10  H   UNL     1      34.379 -21.594 -18.205  0.00  0.00    +0.150 HD
BRANCH   8  11
ATOM     11  C   UNL     1      32.578 -22.490 -17.610  0.00  0.00    +0.117 C 
BRANCH  11  13
ATOM     12  F   UNL     1      34.535 -23.324 -12.406  0.00  0.00    -0.205 F 
ATOM     13  C   UNL     1      33.098 -22.715 -16.220  0.00  0.00    -0.003 C 
ATOM     14  C   UNL     1      32.259 -23.246 -15.248  0.00  0.00    -0.005 C 
ATOM     15  C   UNL     1      32.742 -23.455 -13.956  0.00  0.00    +0.005 C 
ATOM     16  C   UNL     1      34.415 -22.386 -15.917  0.00  0.00    -0.000 C 
ATOM     17  C   UNL     1      34.063 -23.129 -13.645  0.00  0.00    +0.136 C 
ATOM     18  C   UNL     1      34.898 -22.595 -14.625  0.00  0.00    +0.029 C 
ATOM     19  C   UNL     1      31.845 -24.027 -12.910  0.00  0.00    +0.033 C 
ENDBRANCH  11  13
ENDBRANCH   8  11
ENDBRANCH   3   9
BRANCH   4  22
ATOM     20  O   UNL     1      33.683 -17.765 -23.708  0.00  0.00    -0.269 OA
ATOM     21  N   UNL     1      34.415 -15.971 -22.433  0.00  0.00    -0.296 N 
ATOM     22  C   UNL     1      34.159 -17.314 -22.668  0.00  0.00    +0.260 C 
ATOM     23  H   UNL     1      34.798 -15.707 -21.565  0.00  0.00    +0.150 HD
BRANCH  21  24
ATOM     24  C   UNL     1      34.141 -14.946 -23.408  0.00  0.00    +0.117 C 
BRANCH  24  26
ATOM     25  F   UNL     1      31.295 -10.614 -21.233  0.00  0.00    -0.205 F 
ATOM     26  C   UNL     1      33.385 -13.798 -22.828  0.00  0.00    -0.003 C 
ATOM     27  C   UNL     1      32.691 -13.955 -21.629  0.00  0.00    -0.005 C 
ATOM     28  C   UNL     1      31.984 -12.881 -21.088  0.00  0.00    +0.005 C 
ATOM     29  C   UNL     1      33.374 -12.568 -23.486  0.00  0.00    -0.000 C 
ATOM     30  C   UNL     1      31.972 -11.651 -21.746  0.00  0.00    +0.136 C 
ATOM     31  C   UNL     1      32.666 -11.495 -22.945  0.00  0.00    +0.029 C 
ATOM     32  C   UNL     1      31.242 -13.051 -19.804  0.00  0.00    +0.033 C 
ENDBRANCH  24  26
ENDBRANCH  21  24
ENDBRANCH   4  22
TORSDOF 6
ENDMDL
