MODEL 1
REMARK VINA RESULT:     -13.8      0.000      0.000
REMARK  Name = 115237
REMARK  5 active torsions:
REMARK  status: ('A' for Active; 'I' for Inactive)
REMARK    1  A    between atoms: N_1  and  C_18
REMARK    2  A    between atoms: C_2  and  C_11
REMARK    3  A    between atoms: C_18  and  C_19
REMARK    4  A    between atoms: C_19  and  C_23
REMARK    5  A    between atoms: C_25  and  O_32
REMARK                            x       y       z     vdW  Elec       q    Type
REMARK                         _______ _______ _______ _____ _____    ______ ____
ROOT
ATOM      1  N   UNL     1      33.693 -20.068 -19.603  0.00  0.00    +0.387 N 
ATOM      2  C   UNL     1      33.411 -22.225 -17.635  0.00  0.00    +0.039 C 
ATOM      3  C   UNL     1      34.750 -21.519 -17.900  0.00  0.00    -0.017 C 
ATOM      4  C   UNL     1      32.247 -21.293 -18.012  0.00  0.00    -0.017 C 
ATOM      5  C   UNL     1      34.818 -20.973 -19.328  0.00  0.00    -0.077 C 
ATOM      6  C   UNL     1      32.405 -20.755 -19.436  0.00  0.00    -0.077 C 
ATOM      7  H   UNL     1      33.732 -19.304 -18.928  0.00  0.00    -0.080 HD
ENDROOT
BRANCH   2  11
ATOM      8  F   UNL     1      29.590 -23.911 -12.364  0.00  0.00    -0.204 F 
ATOM      9  O   UNL     1      33.964 -23.550 -14.331  0.00  0.00    -0.354 OA
ATOM     10  N   UNL     1      34.405 -23.111 -15.574  0.00  0.00    -0.081 NA
ATOM     11  C   UNL     1      33.299 -22.758 -16.225  0.00  0.00    +0.100 A 
ATOM     12  C   UNL     1      32.133 -22.943 -15.468  0.00  0.00    +0.054 A 
ATOM     13  C   UNL     1      32.608 -23.449 -14.271  0.00  0.00    +0.179 A 
ATOM     14  C   UNL     1      30.752 -22.754 -15.628  0.00  0.00    +0.007 C 
ATOM     15  C   UNL     1      31.802 -23.794 -13.190  0.00  0.00    +0.070 C 
ATOM     16  C   UNL     1      29.910 -23.091 -14.559  0.00  0.00    +0.030 C 
ATOM     17  C   UNL     1      30.428 -23.601 -13.364  0.00  0.00    +0.143 C 
ENDBRANCH   2  11
BRANCH   1  18
ATOM     18  C   UNL     1      33.805 -19.510 -20.951  0.00  0.00    -0.076 C 
BRANCH  18  19
ATOM     19  C   UNL     1      34.548 -18.183 -20.903  0.00  0.00    -0.007 C 
BRANCH  19  23
ATOM     20  O   UNL     1      34.045 -15.490 -20.412  0.00  0.00    -0.274 OA
ATOM     21  N   UNL     1      33.516 -14.965 -22.620  0.00  0.00    -0.235 N 
ATOM     22  N   UNL     1      33.397 -16.701 -24.223  0.00  0.00    -0.397 NA
ATOM     23  C   UNL     1      34.064 -17.259 -21.982  0.00  0.00    +0.123 C 
ATOM     24  C   UNL     1      33.291 -13.562 -22.262  0.00  0.00    +0.100 C 
ATOM     25  C   UNL     1      32.872 -14.474 -24.992  0.00  0.00    +0.177 C 
ATOM     26  C   UNL     1      33.314 -12.603 -23.436  0.00  0.00    +0.025 C 
ATOM     27  C   UNL     1      32.379 -13.125 -24.505  0.00  0.00    +0.040 C 
ATOM     28  C   UNL     1      33.263 -15.455 -23.891  0.00  0.00    +0.192 C 
ATOM     29  C   UNL     1      33.885 -15.828 -21.584  0.00  0.00    +0.237 C 
ATOM     30  C   UNL     1      33.798 -17.593 -23.260  0.00  0.00    +0.097 C 
ATOM     31  C   UNL     1      33.896 -19.005 -23.775  0.00  0.00    +0.062 C 
BRANCH  25  32
ATOM     32  O   UNL     1      31.857 -15.074 -25.784  0.00  0.00    -0.376 OA
ATOM     33  H   UNL     1      32.264 -15.632 -26.464  0.00  0.00    +0.211 HD
ENDBRANCH  25  32
ENDBRANCH  19  23
ENDBRANCH  18  19
ENDBRANCH   1  18
TORSDOF 5
ENDMDL
MODEL 2
REMARK VINA RESULT:     -13.1      1.398      1.763
REMARK  Name = 115237
REMARK  5 active torsions:
REMARK  status: ('A' for Active; 'I' for Inactive)
REMARK    1  A    between atoms: N_1  and  C_18
REMARK    2  A    between atoms: C_2  and  C_11
REMARK    3  A    between atoms: C_18  and  C_19
REMARK    4  A    between atoms: C_19  and  C_23
REMARK    5  A    between atoms: C_25  and  O_32
REMARK                            x       y       z     vdW  Elec       q    Type
REMARK                         _______ _______ _______ _____ _____    ______ ____
ROOT
ATOM      1  N   UNL     1      33.956 -19.764 -19.781  0.00  0.00    +0.387 N 
ATOM      2  C   UNL     1      32.796 -21.899 -18.138  0.00  0.00    +0.039 C 
ATOM      3  C   UNL     1      34.260 -21.452 -17.997  0.00  0.00    -0.017 C 
ATOM      4  C   UNL     1      31.952 -20.748 -18.713  0.00  0.00    -0.017 C 
ATOM      5  C   UNL     1      34.793 -20.877 -19.310  0.00  0.00    -0.077 C 
ATOM      6  C   UNL     1      32.570 -20.198 -20.000  0.00  0.00    -0.077 C 
ATOM      7  H   UNL     1      33.950 -19.046 -19.054  0.00  0.00    -0.080 HD
ENDROOT
BRANCH   2  11
ATOM      8  F   UNL     1      33.771 -24.294 -11.930  0.00  0.00    -0.204 F 
ATOM      9  O   UNL     1      30.720 -23.116 -15.457  0.00  0.00    -0.354 OA
ATOM     10  N   UNL     1      30.909 -22.596 -16.731  0.00  0.00    -0.081 NA
ATOM     11  C   UNL     1      32.227 -22.453 -16.851  0.00  0.00    +0.100 A 
ATOM     12  C   UNL     1      32.930 -22.857 -15.707  0.00  0.00    +0.054 A 
ATOM     13  C   UNL     1      31.927 -23.271 -14.848  0.00  0.00    +0.179 A 
ATOM     14  C   UNL     1      34.265 -22.929 -15.282  0.00  0.00    +0.007 C 
ATOM     15  C   UNL     1      32.148 -23.763 -13.565  0.00  0.00    +0.070 C 
ATOM     16  C   UNL     1      34.524 -23.421 -13.995  0.00  0.00    +0.030 C 
ATOM     17  C   UNL     1      33.483 -23.829 -13.154  0.00  0.00    +0.143 C 
ENDBRANCH   2  11
BRANCH   1  18
ATOM     18  C   UNL     1      34.512 -19.188 -21.005  0.00  0.00    -0.076 C 
BRANCH  18  19
ATOM     19  C   UNL     1      34.705 -17.688 -20.830  0.00  0.00    -0.007 C 
BRANCH  19  23
ATOM     20  O   UNL     1      34.050 -14.989 -20.648  0.00  0.00    -0.274 OA
ATOM     21  N   UNL     1      33.402 -14.774 -22.876  0.00  0.00    -0.235 N 
ATOM     22  N   UNL     1      33.331 -16.699 -24.249  0.00  0.00    -0.397 NA
ATOM     23  C   UNL     1      34.121 -16.935 -21.990  0.00  0.00    +0.123 C 
ATOM     24  C   UNL     1      33.101 -13.354 -22.680  0.00  0.00    +0.100 C 
ATOM     25  C   UNL     1      32.635 -14.620 -25.257  0.00  0.00    +0.177 C 
ATOM     26  C   UNL     1      33.017 -12.548 -23.962  0.00  0.00    +0.025 C 
ATOM     27  C   UNL     1      32.076 -13.253 -24.915  0.00  0.00    +0.040 C 
ATOM     28  C   UNL     1      33.131 -15.432 -24.064  0.00  0.00    +0.192 C 
ATOM     29  C   UNL     1      33.865 -15.479 -21.761  0.00  0.00    +0.237 C 
ATOM     30  C   UNL     1      33.827 -17.440 -23.205  0.00  0.00    +0.097 C 
ATOM     31  C   UNL     1      33.994 -18.896 -23.548  0.00  0.00    +0.062 C 
BRANCH  25  32
ATOM     32  O   UNL     1      31.630 -15.372 -25.921  0.00  0.00    -0.376 OA
ATOM     33  H   UNL     1      31.254 -14.844 -26.642  0.00  0.00    +0.211 HD
ENDBRANCH  25  32
ENDBRANCH  19  23
ENDBRANCH  18  19
ENDBRANCH   1  18
TORSDOF 5
ENDMDL
MODEL 3
REMARK VINA RESULT:     -13.0      3.291     10.441
REMARK  Name = 115237
REMARK  5 active torsions:
REMARK  status: ('A' for Active; 'I' for Inactive)
REMARK    1  A    between atoms: N_1  and  C_18
REMARK    2  A    between atoms: C_2  and  C_11
REMARK    3  A    between atoms: C_18  and  C_19
REMARK    4  A    between atoms: C_19  and  C_23
REMARK    5  A    between atoms: C_25  and  O_32
REMARK                            x       y       z     vdW  Elec       q    Type
REMARK                         _______ _______ _______ _____ _____    ______ ____
ROOT
ATOM      1  N   UNL     1      34.900 -19.781 -19.190  0.00  0.00    +0.387 N 
ATOM      2  C   UNL     1      34.470 -18.700 -21.883  0.00  0.00    +0.039 C 
ATOM      3  C   UNL     1      33.310 -19.136 -20.974  0.00  0.00    -0.017 C 
ATOM      4  C   UNL     1      35.690 -18.322 -21.026  0.00  0.00    -0.017 C 
ATOM      5  C   UNL     1      33.752 -20.225 -19.994  0.00  0.00    -0.077 C 
ATOM      6  C   UNL     1      36.046 -19.440 -20.044  0.00  0.00    -0.077 C 
ATOM      7  H   UNL     1      34.623 -18.939 -18.685  0.00  0.00    -0.080 HD
ENDROOT
BRANCH   2  11
ATOM      8  F   UNL     1      33.013 -12.238 -23.047  0.00  0.00    -0.204 F 
ATOM      9  O   UNL     1      33.543 -16.709 -24.739  0.00  0.00    -0.354 OA
ATOM     10  N   UNL     1      33.888 -17.911 -24.134  0.00  0.00    -0.081 NA
ATOM     11  C   UNL     1      34.075 -17.607 -22.851  0.00  0.00    +0.100 A 
ATOM     12  C   UNL     1      33.867 -16.249 -22.572  0.00  0.00    +0.054 A 
ATOM     13  C   UNL     1      33.531 -15.719 -23.806  0.00  0.00    +0.179 A 
ATOM     14  C   UNL     1      33.918 -15.399 -21.456  0.00  0.00    +0.007 C 
ATOM     15  C   UNL     1      33.234 -14.378 -24.028  0.00  0.00    +0.070 C 
ATOM     16  C   UNL     1      33.623 -14.042 -21.645  0.00  0.00    +0.030 C 
ATOM     17  C   UNL     1      33.288 -13.543 -22.908  0.00  0.00    +0.143 C 
ENDBRANCH   2  11
BRANCH   1  18
ATOM     18  C   UNL     1      35.273 -20.810 -18.220  0.00  0.00    -0.076 C 
BRANCH  18  19
ATOM     19  C   UNL     1      34.339 -22.005 -18.347  0.00  0.00    -0.007 C 
BRANCH  19  23
ATOM     20  O   UNL     1      31.577 -22.097 -18.018  0.00  0.00    -0.274 OA
ATOM     21  N   UNL     1      31.648 -22.789 -15.794  0.00  0.00    -0.235 N 
ATOM     22  N   UNL     1      33.739 -22.935 -14.697  0.00  0.00    -0.397 NA
ATOM     23  C   UNL     1      33.710 -22.336 -17.025  0.00  0.00    +0.123 C 
ATOM     24  C   UNL     1      30.185 -22.821 -15.728  0.00  0.00    +0.100 C 
ATOM     25  C   UNL     1      31.783 -23.449 -13.380  0.00  0.00    +0.177 C 
ATOM     26  C   UNL     1      29.627 -23.636 -14.577  0.00  0.00    +0.025 C 
ATOM     27  C   UNL     1      30.293 -23.182 -13.296  0.00  0.00    +0.040 C 
ATOM     28  C   UNL     1      32.445 -23.014 -14.684  0.00  0.00    +0.192 C 
ATOM     29  C   UNL     1      32.215 -22.397 -17.010  0.00  0.00    +0.237 C 
ATOM     30  C   UNL     1      34.360 -22.596 -15.873  0.00  0.00    +0.097 C 
ATOM     31  C   UNL     1      35.858 -22.523 -15.744  0.00  0.00    +0.062 C 
BRANCH  25  32
ATOM     32  O   UNL     1      32.429 -22.780 -12.307  0.00  0.00    -0.376 OA
ATOM     33  H   UNL     1      32.302 -23.284 -11.488  0.00  0.00    +0.211 HD
ENDBRANCH  25  32
ENDBRANCH  19  23
ENDBRANCH  18  19
ENDBRANCH   1  18
TORSDOF 5
ENDMDL
MODEL 4
REMARK VINA RESULT:     -12.6      1.427      2.222
REMARK  Name = 115237
REMARK  5 active torsions:
REMARK  status: ('A' for Active; 'I' for Inactive)
REMARK    1  A    between atoms: N_1  and  C_18
REMARK    2  A    between atoms: C_2  and  C_11
REMARK    3  A    between atoms: C_18  and  C_19
REMARK    4  A    between atoms: C_19  and  C_23
REMARK    5  A    between atoms: C_25  and  O_32
REMARK                            x       y       z     vdW  Elec       q    Type
REMARK                         _______ _______ _______ _____ _____    ______ ____
ROOT
ATOM      1  N   UNL     1      33.359 -19.388 -20.514  0.00  0.00    +0.387 N 
ATOM      2  C   UNL     1      33.554 -21.590 -18.585  0.00  0.00    +0.039 C 
ATOM      3  C   UNL     1      34.780 -20.782 -19.042  0.00  0.00    -0.017 C 
ATOM      4  C   UNL     1      32.281 -20.742 -18.745  0.00  0.00    -0.017 C 
ATOM      5  C   UNL     1      34.576 -20.211 -20.447  0.00  0.00    -0.077 C 
ATOM      6  C   UNL     1      32.168 -20.172 -20.160  0.00  0.00    -0.077 C 
ATOM      7  H   UNL     1      33.453 -18.634 -19.833  0.00  0.00    -0.080 HD
ENDROOT
BRANCH   2  11
ATOM      8  F   UNL     1      30.768 -24.082 -12.995  0.00  0.00    -0.204 F 
ATOM      9  O   UNL     1      34.731 -22.814 -15.408  0.00  0.00    -0.354 OA
ATOM     10  N   UNL     1      34.932 -22.280 -16.675  0.00  0.00    -0.081 NA
ATOM     11  C   UNL     1      33.711 -22.151 -17.190  0.00  0.00    +0.100 A 
ATOM     12  C   UNL     1      32.699 -22.579 -16.319  0.00  0.00    +0.054 A 
ATOM     13  C   UNL     1      33.398 -22.992 -15.198  0.00  0.00    +0.179 A 
ATOM     14  C   UNL     1      31.299 -22.674 -16.324  0.00  0.00    +0.007 C 
ATOM     15  C   UNL     1      32.804 -23.507 -14.050  0.00  0.00    +0.070 C 
ATOM     16  C   UNL     1      30.668 -23.188 -15.182  0.00  0.00    +0.030 C 
ATOM     17  C   UNL     1      31.409 -23.596 -14.068  0.00  0.00    +0.143 C 
ENDBRANCH   2  11
BRANCH   1  18
ATOM     18  C   UNL     1      33.210 -18.804 -21.846  0.00  0.00    -0.076 C 
BRANCH  18  19
ATOM     19  C   UNL     1      34.423 -17.943 -22.173  0.00  0.00    -0.007 C 
BRANCH  19  23
ATOM     20  O   UNL     1      33.925 -17.039 -24.758  0.00  0.00    -0.274 OA
ATOM     21  N   UNL     1      33.270 -14.898 -24.115  0.00  0.00    -0.235 N 
ATOM     22  N   UNL     1      33.445 -14.271 -21.840  0.00  0.00    -0.397 NA
ATOM     23  C   UNL     1      34.014 -16.525 -22.451  0.00  0.00    +0.123 C 
ATOM     24  C   UNL     1      33.022 -14.525 -25.509  0.00  0.00    +0.100 C 
ATOM     25  C   UNL     1      32.657 -12.583 -23.375  0.00  0.00    +0.177 C 
ATOM     26  C   UNL     1      32.143 -13.301 -25.685  0.00  0.00    +0.025 C 
ATOM     27  C   UNL     1      32.702 -12.180 -24.836  0.00  0.00    +0.040 C 
ATOM     28  C   UNL     1      33.175 -13.987 -23.076  0.00  0.00    +0.192 C 
ATOM     29  C   UNL     1      33.732 -16.196 -23.883  0.00  0.00    +0.237 C 
ATOM     30  C   UNL     1      33.863 -15.544 -21.540  0.00  0.00    +0.097 C 
ATOM     31  C   UNL     1      34.158 -15.733 -20.076  0.00  0.00    +0.062 C 
BRANCH  25  32
ATOM     32  O   UNL     1      33.424 -11.655 -22.620  0.00  0.00    -0.376 OA
ATOM     33  H   UNL     1      33.963 -12.133 -21.972  0.00  0.00    +0.211 HD
ENDBRANCH  25  32
ENDBRANCH  19  23
ENDBRANCH  18  19
ENDBRANCH   1  18
TORSDOF 5
ENDMDL
MODEL 5
REMARK VINA RESULT:     -12.4      2.446      3.492
REMARK  Name = 115237
REMARK  5 active torsions:
REMARK  status: ('A' for Active; 'I' for Inactive)
REMARK    1  A    between atoms: N_1  and  C_18
REMARK    2  A    between atoms: C_2  and  C_11
REMARK    3  A    between atoms: C_18  and  C_19
REMARK    4  A    between atoms: C_19  and  C_23
REMARK    5  A    between atoms: C_25  and  O_32
REMARK                            x       y       z     vdW  Elec       q    Type
REMARK                         _______ _______ _______ _____ _____    ______ ____
ROOT
ATOM      1  N   UNL     1      34.758 -18.521 -20.488  0.00  0.00    +0.387 N 
ATOM      2  C   UNL     1      34.399 -21.071 -19.082  0.00  0.00    +0.039 C 
ATOM      3  C   UNL     1      35.671 -20.219 -18.935  0.00  0.00    -0.017 C 
ATOM      4  C   UNL     1      33.215 -20.175 -19.484  0.00  0.00    -0.017 C 
ATOM      5  C   UNL     1      35.918 -19.371 -20.185  0.00  0.00    -0.077 C 
ATOM      6  C   UNL     1      33.551 -19.329 -20.713  0.00  0.00    -0.077 C 
ATOM      7  H   UNL     1      34.588 -17.922 -19.679  0.00  0.00    -0.080 HD
ENDROOT
BRANCH   2  11
ATOM      8  F   UNL     1      36.186 -23.165 -12.946  0.00  0.00    -0.204 F 
ATOM      9  O   UNL     1      33.033 -23.271 -16.577  0.00  0.00    -0.354 OA
ATOM     10  N   UNL     1      32.999 -22.638 -17.814  0.00  0.00    -0.081 NA
ATOM     11  C   UNL     1      34.110 -21.905 -17.855  0.00  0.00    +0.100 A 
ATOM     12  C   UNL     1      34.888 -22.021 -16.694  0.00  0.00    +0.054 A 
ATOM     13  C   UNL     1      34.161 -22.900 -15.910  0.00  0.00    +0.179 A 
ATOM     14  C   UNL     1      36.097 -21.507 -16.200  0.00  0.00    +0.007 C 
ATOM     15  C   UNL     1      34.546 -23.322 -14.641  0.00  0.00    +0.070 C 
ATOM     16  C   UNL     1      36.515 -21.912 -14.924  0.00  0.00    +0.030 C 
ATOM     17  C   UNL     1      35.752 -22.802 -14.162  0.00  0.00    +0.143 C 
ENDBRANCH   2  11
BRANCH   1  18
ATOM     18  C   UNL     1      35.032 -17.676 -21.649  0.00  0.00    -0.076 C 
BRANCH  18  19
ATOM     19  C   UNL     1      33.742 -17.408 -22.412  0.00  0.00    -0.007 C 
BRANCH  19  23
ATOM     20  O   UNL     1      33.381 -16.425 -24.990  0.00  0.00    -0.274 OA
ATOM     21  N   UNL     1      33.104 -14.205 -24.338  0.00  0.00    -0.235 N 
ATOM     22  N   UNL     1      33.405 -13.624 -22.063  0.00  0.00    -0.397 NA
ATOM     23  C   UNL     1      33.577 -15.940 -22.684  0.00  0.00    +0.123 C 
ATOM     24  C   UNL     1      32.910 -13.791 -25.729  0.00  0.00    +0.100 C 
ATOM     25  C   UNL     1      32.901 -11.822 -23.588  0.00  0.00    +0.177 C 
ATOM     26  C   UNL     1      32.251 -12.435 -25.894  0.00  0.00    +0.025 C 
ATOM     27  C   UNL     1      33.000 -11.428 -25.049  0.00  0.00    +0.040 C 
ATOM     28  C   UNL     1      33.176 -13.294 -23.297  0.00  0.00    +0.192 C 
ATOM     29  C   UNL     1      33.342 -15.564 -24.112  0.00  0.00    +0.237 C 
ATOM     30  C   UNL     1      33.604 -14.950 -21.770  0.00  0.00    +0.097 C 
ATOM     31  C   UNL     1      33.876 -15.191 -20.309  0.00  0.00    +0.062 C 
BRANCH  25  32
ATOM     32  O   UNL     1      33.821 -11.040 -22.840  0.00  0.00    -0.376 OA
ATOM     33  H   UNL     1      34.709 -11.421 -22.920  0.00  0.00    +0.211 HD
ENDBRANCH  25  32
ENDBRANCH  19  23
ENDBRANCH  18  19
ENDBRANCH   1  18
TORSDOF 5
ENDMDL
MODEL 6
REMARK VINA RESULT:     -12.3      3.455     10.558
REMARK  Name = 115237
REMARK  5 active torsions:
REMARK  status: ('A' for Active; 'I' for Inactive)
REMARK    1  A    between atoms: N_1  and  C_18
REMARK    2  A    between atoms: C_2  and  C_11
REMARK    3  A    between atoms: C_18  and  C_19
REMARK    4  A    between atoms: C_19  and  C_23
REMARK    5  A    between atoms: C_25  and  O_32
REMARK                            x       y       z     vdW  Elec       q    Type
REMARK                         _______ _______ _______ _____ _____    ______ ____
ROOT
ATOM      1  N   UNL     1      33.801 -21.720 -19.106  0.00  0.00    +0.387 N 
ATOM      2  C   UNL     1      34.040 -19.002 -20.181  0.00  0.00    +0.039 C 
ATOM      3  C   UNL     1      35.233 -19.968 -20.109  0.00  0.00    -0.017 C 
ATOM      4  C   UNL     1      32.725 -19.798 -20.234  0.00  0.00    -0.017 C 
ATOM      5  C   UNL     1      35.062 -20.977 -18.971  0.00  0.00    -0.077 C 
ATOM      6  C   UNL     1      32.645 -20.813 -19.092  0.00  0.00    -0.077 C 
ATOM      7  H   UNL     1      33.813 -22.199 -20.007  0.00  0.00    -0.080 HD
ENDROOT
BRANCH   2  11
ATOM      8  F   UNL     1      33.733 -12.645 -22.354  0.00  0.00    -0.204 F 
ATOM      9  O   UNL     1      34.517 -17.292 -23.316  0.00  0.00    -0.354 OA
ATOM     10  N   UNL     1      34.486 -18.435 -22.528  0.00  0.00    -0.081 NA
ATOM     11  C   UNL     1      34.163 -18.003 -21.310  0.00  0.00    +0.100 A 
ATOM     12  C   UNL     1      33.978 -16.615 -21.251  0.00  0.00    +0.054 A 
ATOM     13  C   UNL     1      34.214 -16.207 -22.552  0.00  0.00    +0.179 A 
ATOM     14  C   UNL     1      33.647 -15.653 -20.284  0.00  0.00    +0.007 C 
ATOM     15  C   UNL     1      34.148 -14.885 -22.984  0.00  0.00    +0.070 C 
ATOM     16  C   UNL     1      33.569 -14.312 -20.685  0.00  0.00    +0.030 C 
ATOM     17  C   UNL     1      33.816 -13.938 -22.010  0.00  0.00    +0.143 C 
ENDBRANCH   2  11
BRANCH   1  18
ATOM     18  C   UNL     1      33.681 -22.719 -18.044  0.00  0.00    -0.076 C 
BRANCH  18  19
ATOM     19  C   UNL     1      33.605 -22.029 -16.690  0.00  0.00    -0.007 C 
BRANCH  19  23
ATOM     20  O   UNL     1      30.842 -21.881 -16.995  0.00  0.00    -0.274 OA
ATOM     21  N   UNL     1      30.356 -23.375 -15.274  0.00  0.00    -0.235 N 
ATOM     22  N   UNL     1      32.118 -24.200 -13.928  0.00  0.00    -0.397 NA
ATOM     23  C   UNL     1      32.667 -22.756 -15.770  0.00  0.00    +0.123 C 
ATOM     24  C   UNL     1      28.919 -23.240 -15.526  0.00  0.00    +0.100 C 
ATOM     25  C   UNL     1      29.886 -24.920 -13.358  0.00  0.00    +0.177 C 
ATOM     26  C   UNL     1      28.072 -24.354 -14.940  0.00  0.00    +0.025 C 
ATOM     27  C   UNL     1      28.431 -24.515 -13.478  0.00  0.00    +0.040 C 
ATOM     28  C   UNL     1      30.856 -24.109 -14.211  0.00  0.00    +0.192 C 
ATOM     29  C   UNL     1      31.210 -22.624 -16.086  0.00  0.00    +0.237 C 
ATOM     30  C   UNL     1      33.013 -23.519 -14.715  0.00  0.00    +0.097 C 
ATOM     31  C   UNL     1      34.439 -23.696 -14.266  0.00  0.00    +0.062 C 
BRANCH  25  32
ATOM     32  O   UNL     1      30.283 -24.803 -11.999  0.00  0.00    -0.376 OA
ATOM     33  H   UNL     1      30.792 -23.987 -11.880  0.00  0.00    +0.211 HD
ENDBRANCH  25  32
ENDBRANCH  19  23
ENDBRANCH  18  19
ENDBRANCH   1  18
TORSDOF 5
ENDMDL
MODEL 7
REMARK VINA RESULT:     -12.3      3.694      6.591
REMARK  Name = 115237
REMARK  5 active torsions:
REMARK  status: ('A' for Active; 'I' for Inactive)
REMARK    1  A    between atoms: N_1  and  C_18
REMARK    2  A    between atoms: C_2  and  C_11
REMARK    3  A    between atoms: C_18  and  C_19
REMARK    4  A    between atoms: C_19  and  C_23
REMARK    5  A    between atoms: C_25  and  O_32
REMARK                            x       y       z     vdW  Elec       q    Type
REMARK                         _______ _______ _______ _____ _____    ______ ____
ROOT
ATOM      1  N   UNL     1      32.945 -15.102 -22.644  0.00  0.00    +0.387 N 
ATOM      2  C   UNL     1      34.752 -17.104 -21.490  0.00  0.00    +0.039 C 
ATOM      3  C   UNL     1      34.061 -16.028 -20.638  0.00  0.00    -0.017 C 
ATOM      4  C   UNL     1      33.930 -17.369 -22.763  0.00  0.00    -0.017 C 
ATOM      5  C   UNL     1      33.758 -14.776 -21.464  0.00  0.00    -0.077 C 
ATOM      6  C   UNL     1      33.632 -16.068 -23.512  0.00  0.00    -0.077 C 
ATOM      7  H   UNL     1      32.078 -15.532 -22.319  0.00  0.00    -0.080 HD
ENDROOT
BRANCH   2  11
ATOM      8  F   UNL     1      32.534 -22.574 -18.267  0.00  0.00    -0.204 F 
ATOM      9  O   UNL     1      36.237 -19.884 -19.744  0.00  0.00    -0.354 OA
ATOM     10  N   UNL     1      36.312 -18.696 -20.461  0.00  0.00    -0.081 NA
ATOM     11  C   UNL     1      35.046 -18.367 -20.712  0.00  0.00    +0.100 A 
ATOM     12  C   UNL     1      34.125 -19.287 -20.191  0.00  0.00    +0.054 A 
ATOM     13  C   UNL     1      34.931 -20.234 -19.584  0.00  0.00    +0.179 A 
ATOM     14  C   UNL     1      32.732 -19.450 -20.149  0.00  0.00    +0.007 C 
ATOM     15  C   UNL     1      34.454 -21.362 -18.922  0.00  0.00    +0.070 C 
ATOM     16  C   UNL     1      32.217 -20.574 -19.489  0.00  0.00    +0.030 C 
ATOM     17  C   UNL     1      33.065 -21.511 -18.888  0.00  0.00    +0.143 C 
ENDBRANCH   2  11
BRANCH   1  18
ATOM     18  C   UNL     1      32.616 -13.888 -23.390  0.00  0.00    -0.076 C 
BRANCH  18  19
ATOM     19  C   UNL     1      33.572 -12.768 -23.004  0.00  0.00    -0.007 C 
BRANCH  19  23
ATOM     20  O   UNL     1      33.966 -10.440 -24.478  0.00  0.00    -0.274 OA
ATOM     21  N   UNL     1      32.331  -9.205 -23.369  0.00  0.00    -0.235 N 
ATOM     22  N   UNL     1      31.229 -10.158 -21.505  0.00  0.00    -0.397 NA
ATOM     23  C   UNL     1      32.822 -11.503 -22.702  0.00  0.00    +0.123 C 
ATOM     24  C   UNL     1      32.604  -8.037 -24.210  0.00  0.00    +0.100 C 
ATOM     25  C   UNL     1      30.623  -7.895 -22.084  0.00  0.00    +0.177 C 
ATOM     26  C   UNL     1      31.501  -6.996 -24.214  0.00  0.00    +0.025 C 
ATOM     27  C   UNL     1      31.151  -6.657 -22.782  0.00  0.00    +0.040 C 
ATOM     28  C   UNL     1      31.448  -9.160 -22.303  0.00  0.00    +0.192 C 
ATOM     29  C   UNL     1      33.100 -10.347 -23.609  0.00  0.00    +0.237 C 
ATOM     30  C   UNL     1      31.922 -11.325 -21.715  0.00  0.00    +0.097 C 
ATOM     31  C   UNL     1      31.586 -12.393 -20.709  0.00  0.00    +0.062 C 
BRANCH  25  32
ATOM     32  O   UNL     1      30.557  -7.641 -20.688  0.00  0.00    -0.376 OA
ATOM     33  H   UNL     1      29.659  -7.819 -20.370  0.00  0.00    +0.211 HD
ENDBRANCH  25  32
ENDBRANCH  19  23
ENDBRANCH  18  19
ENDBRANCH   1  18
TORSDOF 5
ENDMDL
MODEL 8
REMARK VINA RESULT:     -12.3      3.471     10.702
REMARK  Name = 115237
REMARK  5 active torsions:
REMARK  status: ('A' for Active; 'I' for Inactive)
REMARK    1  A    between atoms: N_1  and  C_18
REMARK    2  A    between atoms: C_2  and  C_11
REMARK    3  A    between atoms: C_18  and  C_19
REMARK    4  A    between atoms: C_19  and  C_23
REMARK    5  A    between atoms: C_25  and  O_32
REMARK                            x       y       z     vdW  Elec       q    Type
REMARK                         _______ _______ _______ _____ _____    ______ ____
ROOT
ATOM      1  N   UNL     1      34.631 -20.844 -19.800  0.00  0.00    +0.387 N 
ATOM      2  C   UNL     1      34.265 -18.097 -20.763  0.00  0.00    +0.039 C 
ATOM      3  C   UNL     1      35.646 -18.769 -20.689  0.00  0.00    -0.017 C 
ATOM      4  C   UNL     1      33.170 -19.169 -20.888  0.00  0.00    -0.017 C 
ATOM      5  C   UNL     1      35.685 -19.839 -19.597  0.00  0.00    -0.077 C 
ATOM      6  C   UNL     1      33.299 -20.225 -19.788  0.00  0.00    -0.077 C 
ATOM      7  H   UNL     1      34.774 -21.267 -20.718  0.00  0.00    -0.080 HD
ENDROOT
BRANCH   2  11
ATOM      8  F   UNL     1      33.171 -11.717 -22.583  0.00  0.00    -0.204 F 
ATOM      9  O   UNL     1      34.264 -16.228 -23.843  0.00  0.00    -0.354 OA
ATOM     10  N   UNL     1      34.415 -17.400 -23.112  0.00  0.00    -0.081 NA
ATOM     11  C   UNL     1      34.183 -17.048 -21.849  0.00  0.00    +0.100 A 
ATOM     12  C   UNL     1      33.881 -15.686 -21.704  0.00  0.00    +0.054 A 
ATOM     13  C   UNL     1      33.945 -15.207 -23.001  0.00  0.00    +0.179 A 
ATOM     14  C   UNL     1      33.567 -14.799 -20.664  0.00  0.00    +0.007 C 
ATOM     15  C   UNL     1      33.717 -13.882 -23.359  0.00  0.00    +0.070 C 
ATOM     16  C   UNL     1      33.329 -13.456 -20.990  0.00  0.00    +0.030 C 
ATOM     17  C   UNL     1      33.404 -13.009 -22.313  0.00  0.00    +0.143 C 
ENDBRANCH   2  11
BRANCH   1  18
ATOM     18  C   UNL     1      34.719 -21.890 -18.781  0.00  0.00    -0.076 C 
BRANCH  18  19
ATOM     19  C   UNL     1      35.340 -21.325 -17.511  0.00  0.00    -0.007 C 
BRANCH  19  23
ATOM     20  O   UNL     1      36.924 -21.838 -15.281  0.00  0.00    -0.274 OA
ATOM     21  N   UNL     1      35.205 -22.751 -14.001  0.00  0.00    -0.235 N 
ATOM     22  N   UNL     1      33.078 -23.075 -14.987  0.00  0.00    -0.397 NA
ATOM     23  C   UNL     1      34.795 -22.019 -16.296  0.00  0.00    +0.123 C 
ATOM     24  C   UNL     1      36.119 -22.966 -12.876  0.00  0.00    +0.100 C 
ATOM     25  C   UNL     1      33.339 -23.805 -12.701  0.00  0.00    +0.177 C 
ATOM     26  C   UNL     1      35.431 -23.176 -11.541  0.00  0.00    +0.025 C 
ATOM     27  C   UNL     1      34.385 -24.258 -11.702  0.00  0.00    +0.040 C 
ATOM     28  C   UNL     1      33.894 -23.197 -13.986  0.00  0.00    +0.192 C 
ATOM     29  C   UNL     1      35.750 -22.182 -15.155  0.00  0.00    +0.237 C 
ATOM     30  C   UNL     1      33.541 -22.484 -16.136  0.00  0.00    +0.097 C 
ATOM     31  C   UNL     1      32.500 -22.422 -17.222  0.00  0.00    +0.062 C 
BRANCH  25  32
ATOM     32  O   UNL     1      32.526 -24.916 -13.048  0.00  0.00    -0.376 OA
ATOM     33  H   UNL     1      33.080 -25.705 -13.146  0.00  0.00    +0.211 HD
ENDBRANCH  25  32
ENDBRANCH  19  23
ENDBRANCH  18  19
ENDBRANCH   1  18
TORSDOF 5
ENDMDL
MODEL 9
REMARK VINA RESULT:     -12.2      3.465     10.823
REMARK  Name = 115237
REMARK  5 active torsions:
REMARK  status: ('A' for Active; 'I' for Inactive)
REMARK    1  A    between atoms: N_1  and  C_18
REMARK    2  A    between atoms: C_2  and  C_11
REMARK    3  A    between atoms: C_18  and  C_19
REMARK    4  A    between atoms: C_19  and  C_23
REMARK    5  A    between atoms: C_25  and  O_32
REMARK                            x       y       z     vdW  Elec       q    Type
REMARK                         _______ _______ _______ _____ _____    ______ ____
ROOT
ATOM      1  N   UNL     1      34.981 -20.176 -19.961  0.00  0.00    +0.387 N 
ATOM      2  C   UNL     1      34.194 -17.722 -21.362  0.00  0.00    +0.039 C 
ATOM      3  C   UNL     1      35.665 -18.115 -21.148  0.00  0.00    -0.017 C 
ATOM      4  C   UNL     1      33.309 -18.980 -21.338  0.00  0.00    -0.017 C 
ATOM      5  C   UNL     1      35.832 -18.980 -19.897  0.00  0.00    -0.077 C 
ATOM      6  C   UNL     1      33.562 -19.813 -20.080  0.00  0.00    -0.077 C 
ATOM      7  H   UNL     1      35.242 -20.703 -20.795  0.00  0.00    -0.080 HD
ENDROOT
BRANCH   2  11
ATOM      8  F   UNL     1      32.872 -11.759 -24.176  0.00  0.00    -0.204 F 
ATOM      9  O   UNL     1      33.843 -16.439 -24.710  0.00  0.00    -0.354 OA
ATOM     10  N   UNL     1      34.081 -17.462 -23.800  0.00  0.00    -0.081 NA
ATOM     11  C   UNL     1      33.987 -16.885 -22.603  0.00  0.00    +0.100 A 
ATOM     12  C   UNL     1      33.696 -15.515 -22.675  0.00  0.00    +0.054 A 
ATOM     13  C   UNL     1      33.614 -15.278 -24.037  0.00  0.00    +0.179 A 
ATOM     14  C   UNL     1      33.493 -14.450 -21.785  0.00  0.00    +0.007 C 
ATOM     15  C   UNL     1      33.341 -14.036 -24.602  0.00  0.00    +0.070 C 
ATOM     16  C   UNL     1      33.214 -13.184 -22.320  0.00  0.00    +0.030 C 
ATOM     17  C   UNL     1      33.141 -12.985 -23.703  0.00  0.00    +0.143 C 
ENDBRANCH   2  11
BRANCH   1  18
ATOM     18  C   UNL     1      35.196 -21.020 -18.785  0.00  0.00    -0.076 C 
BRANCH  18  19
ATOM     19  C   UNL     1      33.921 -21.783 -18.455  0.00  0.00    -0.007 C 
BRANCH  19  23
ATOM     20  O   UNL     1      31.583 -22.589 -17.179  0.00  0.00    -0.274 OA
ATOM     21  N   UNL     1      32.618 -23.146 -15.167  0.00  0.00    -0.235 N 
ATOM     22  N   UNL     1      34.922 -22.688 -14.887  0.00  0.00    -0.397 NA
ATOM     23  C   UNL     1      33.913 -22.214 -17.017  0.00  0.00    +0.123 C 
ATOM     24  C   UNL     1      31.337 -23.561 -14.590  0.00  0.00    +0.100 C 
ATOM     25  C   UNL     1      33.768 -23.646 -12.997  0.00  0.00    +0.177 C 
ATOM     26  C   UNL     1      31.457 -24.446 -13.365  0.00  0.00    +0.025 C 
ATOM     27  C   UNL     1      32.391 -23.779 -12.377  0.00  0.00    +0.040 C 
ATOM     28  C   UNL     1      33.786 -23.105 -14.423  0.00  0.00    +0.192 C 
ATOM     29  C   UNL     1      32.593 -22.668 -16.479  0.00  0.00    +0.237 C 
ATOM     30  C   UNL     1      34.973 -22.245 -16.186  0.00  0.00    +0.097 C 
ATOM     31  C   UNL     1      36.344 -21.773 -16.590  0.00  0.00    +0.062 C 
BRANCH  25  32
ATOM     32  O   UNL     1      34.554 -22.787 -12.184  0.00  0.00    -0.376 OA
ATOM     33  H   UNL     1      33.976 -22.160 -11.723  0.00  0.00    +0.211 HD
ENDBRANCH  25  32
ENDBRANCH  19  23
ENDBRANCH  18  19
ENDBRANCH   1  18
TORSDOF 5
ENDMDL
