MODEL 1
REMARK VINA RESULT:     -11.5      0.000      0.000
REMARK  Name = 46937052
REMARK  7 active torsions:
REMARK  status: ('A' for Active; 'I' for Inactive)
REMARK    1  A    between atoms: O_1  and  C_3
REMARK    2  A    between atoms: O_1  and  C_17
REMARK    3  A    between atoms: C_4  and  C_11
REMARK    4  A    between atoms: C_17  and  C_18
REMARK    5  A    between atoms: C_18  and  N_19
REMARK    6  A    between atoms: C_18  and  C_23
REMARK    7  A    between atoms: C_23  and  C_25
REMARK                            x       y       z     vdW  Elec       q    Type
REMARK                         _______ _______ _______ _____ _____    ______ ____
ROOT
ATOM      1  O   UNL     1      35.581 -23.156 -15.286  0.00  0.00    -0.476 OA
ENDROOT
BRANCH   1   3
ATOM      2  N   UNL     1      34.086 -23.737 -11.998  0.00  0.00    -0.239 NA
ATOM      3  C   UNL     1      34.630 -23.397 -14.329  0.00  0.00    +0.158 C 
ATOM      4  C   UNL     1      32.347 -23.787 -13.677  0.00  0.00    +0.039 C 
ATOM      5  C   UNL     1      33.290 -23.544 -14.670  0.00  0.00    +0.042 C 
ATOM      6  C   UNL     1      34.973 -23.501 -12.990  0.00  0.00    +0.136 C 
ATOM      7  C   UNL     1      32.793 -23.874 -12.368  0.00  0.00    +0.101 C 
BRANCH   4  11
ATOM      8  N   UNL     1      30.296 -24.999 -13.578  0.00  0.00    -0.264 NA
ATOM      9  N   UNL     1      27.028 -24.094 -15.076  0.00  0.00    -0.150 NA
ATOM     10  N   UNL     1      26.889 -22.862 -15.852  0.00  0.00    -0.147 NA
ATOM     11  C   UNL     1      30.906 -23.950 -14.010  0.00  0.00    +0.078 C 
ATOM     12  C   UNL     1      29.026 -23.024 -15.122  0.00  0.00    +0.040 C 
ATOM     13  C   UNL     1      28.267 -24.163 -14.668  0.00  0.00    +0.107 C 
ATOM     14  C   UNL     1      28.878 -25.242 -13.854  0.00  0.00    +0.173 C 
ATOM     15  C   UNL     1      30.309 -22.867 -14.840  0.00  0.00    +0.022 C 
ATOM     16  C   UNL     1      28.047 -22.268 -15.868  0.00  0.00    +0.123 C 
ENDBRANCH   4  11
ENDBRANCH   1   3
BRANCH   1  17
ATOM     17  C   UNL     1      36.303 -21.937 -15.179  0.00  0.00    +0.184 C 
BRANCH  17  18
ATOM     18  C   UNL     1      35.877 -20.963 -16.285  0.00  0.00    -0.017 C 
BRANCH  18  19
ATOM     19  N   UNL     1      36.857 -19.875 -16.342  0.00  0.00    +0.384 N 
ATOM     20  H   UNL     1      36.414 -19.038 -16.720  0.00  0.00    -0.089 HD
ATOM     21  H   UNL     1      37.636 -20.149 -16.942  0.00  0.00    -0.089 HD
ATOM     22  H   UNL     1      37.204 -19.680 -15.402  0.00  0.00    -0.089 HD
ENDBRANCH  18  19
BRANCH  18  23
ATOM     23  C   UNL     1      35.781 -21.631 -17.679  0.00  0.00    +0.010 C 
BRANCH  23  25
ATOM     24  N   UNL     1      32.685 -20.646 -19.528  0.00  0.00    -0.244 NA
ATOM     25  C   UNL     1      34.822 -20.997 -18.601  0.00  0.00    -0.004 C 
ATOM     26  C   UNL     1      34.918 -20.069 -19.561  0.00  0.00    +0.011 C 
ATOM     27  C   UNL     1      33.610 -19.843 -20.139  0.00  0.00    +0.080 C 
ATOM     28  C   UNL     1      33.383 -21.302 -18.651  0.00  0.00    +0.094 C 
ATOM     29  C   UNL     1      36.083 -19.353 -20.016  0.00  0.00    -0.020 C 
ATOM     30  C   UNL     1      33.438 -18.955 -21.126  0.00  0.00    +0.015 C 
ATOM     31  C   UNL     1      34.605 -18.155 -21.671  0.00  0.00    -0.020 C 
ATOM     32  C   UNL     1      35.937 -18.455 -21.006  0.00  0.00    +0.052 C 
ENDBRANCH  23  25
ENDBRANCH  18  23
ENDBRANCH  17  18
ENDBRANCH   1  17
TORSDOF 7
ENDMDL
MODEL 2
REMARK VINA RESULT:     -11.4      2.147      8.491
REMARK  Name = 46937052
REMARK  7 active torsions:
REMARK  status: ('A' for Active; 'I' for Inactive)
REMARK    1  A    between atoms: O_1  and  C_3
REMARK    2  A    between atoms: O_1  and  C_17
REMARK    3  A    between atoms: C_4  and  C_11
REMARK    4  A    between atoms: C_17  and  C_18
REMARK    5  A    between atoms: C_18  and  N_19
REMARK    6  A    between atoms: C_18  and  C_23
REMARK    7  A    between atoms: C_23  and  C_25
REMARK                            x       y       z     vdW  Elec       q    Type
REMARK                         _______ _______ _______ _____ _____    ______ ____
ROOT
ATOM      1  O   UNL     1      35.240 -22.311 -17.214  0.00  0.00    -0.476 OA
ENDROOT
BRANCH   1   3
ATOM      2  N   UNL     1      31.938 -21.619 -18.628  0.00  0.00    -0.239 NA
ATOM      3  C   UNL     1      34.266 -21.734 -17.987  0.00  0.00    +0.158 C 
ATOM      4  C   UNL     1      33.562 -20.153 -19.657  0.00  0.00    +0.039 C 
ATOM      5  C   UNL     1      34.571 -20.720 -18.887  0.00  0.00    +0.042 C 
ATOM      6  C   UNL     1      32.946 -22.144 -17.896  0.00  0.00    +0.136 C 
ATOM      7  C   UNL     1      32.273 -20.634 -19.492  0.00  0.00    +0.101 C 
BRANCH   4  11
ATOM      8  N   UNL     1      34.635 -18.109 -20.258  0.00  0.00    -0.264 NA
ATOM      9  N   UNL     1      34.451 -16.291 -23.483  0.00  0.00    -0.150 NA
ATOM     10  N   UNL     1      33.632 -16.811 -24.577  0.00  0.00    -0.147 NA
ATOM     11  C   UNL     1      33.856 -19.066 -20.630  0.00  0.00    +0.078 C 
ATOM     12  C   UNL     1      33.466 -18.220 -22.812  0.00  0.00    +0.040 C 
ATOM     13  C   UNL     1      34.337 -17.119 -22.480  0.00  0.00    +0.107 C 
ATOM     14  C   UNL     1      34.981 -16.999 -21.149  0.00  0.00    +0.173 C 
ATOM     15  C   UNL     1      33.191 -19.191 -21.957  0.00  0.00    +0.022 C 
ATOM     16  C   UNL     1      33.075 -17.915 -24.169  0.00  0.00    +0.123 C 
ENDBRANCH   4  11
ENDBRANCH   1   3
BRANCH   1  17
ATOM     17  C   UNL     1      35.200 -22.034 -15.821  0.00  0.00    +0.184 C 
BRANCH  17  18
ATOM     18  C   UNL     1      34.321 -23.060 -15.095  0.00  0.00    -0.017 C 
BRANCH  18  19
ATOM     19  N   UNL     1      35.190 -23.924 -14.292  0.00  0.00    +0.384 N 
ATOM     20  H   UNL     1      34.844 -24.883 -14.330  0.00  0.00    -0.089 HD
ATOM     21  H   UNL     1      35.192 -23.601 -13.325  0.00  0.00    -0.089 HD
ATOM     22  H   UNL     1      36.140 -23.891 -14.664  0.00  0.00    -0.089 HD
ENDBRANCH  18  19
BRANCH  18  23
ATOM     23  C   UNL     1      33.263 -22.408 -14.171  0.00  0.00    +0.010 C 
BRANCH  23  25
ATOM     24  N   UNL     1      31.001 -25.006 -12.720  0.00  0.00    -0.244 NA
ATOM     25  C   UNL     1      32.105 -23.265 -13.859  0.00  0.00    -0.004 C 
ATOM     26  C   UNL     1      30.845 -23.336 -14.304  0.00  0.00    +0.011 C 
ATOM     27  C   UNL     1      30.154 -24.404 -13.611  0.00  0.00    +0.080 C 
ATOM     28  C   UNL     1      32.113 -24.352 -12.866  0.00  0.00    +0.094 C 
ATOM     29  C   UNL     1      30.189 -22.530 -15.302  0.00  0.00    -0.020 C 
ATOM     30  C   UNL     1      28.872 -24.679 -13.878  0.00  0.00    +0.015 C 
ATOM     31  C   UNL     1      28.099 -23.886 -14.913  0.00  0.00    -0.020 C 
ATOM     32  C   UNL     1      28.900 -22.787 -15.588  0.00  0.00    +0.052 C 
ENDBRANCH  23  25
ENDBRANCH  18  23
ENDBRANCH  17  18
ENDBRANCH   1  17
TORSDOF 7
ENDMDL
MODEL 3
REMARK VINA RESULT:     -11.2      6.819     10.624
REMARK  Name = 46937052
REMARK  7 active torsions:
REMARK  status: ('A' for Active; 'I' for Inactive)
REMARK    1  A    between atoms: O_1  and  C_3
REMARK    2  A    between atoms: O_1  and  C_17
REMARK    3  A    between atoms: C_4  and  C_11
REMARK    4  A    between atoms: C_17  and  C_18
REMARK    5  A    between atoms: C_18  and  N_19
REMARK    6  A    between atoms: C_18  and  C_23
REMARK    7  A    between atoms: C_23  and  C_25
REMARK                            x       y       z     vdW  Elec       q    Type
REMARK                         _______ _______ _______ _____ _____    ______ ____
ROOT
ATOM      1  O   UNL     1      34.440 -14.821 -22.532  0.00  0.00    -0.476 OA
ENDROOT
BRANCH   1   3
ATOM      2  N   UNL     1      33.400 -18.012 -23.990  0.00  0.00    -0.239 NA
ATOM      3  C   UNL     1      34.173 -16.161 -22.639  0.00  0.00    +0.158 C 
ATOM      4  C   UNL     1      34.104 -18.377 -21.706  0.00  0.00    +0.039 C 
ATOM      5  C   UNL     1      34.383 -17.022 -21.568  0.00  0.00    +0.042 C 
ATOM      6  C   UNL     1      33.684 -16.701 -23.818  0.00  0.00    +0.136 C 
ATOM      7  C   UNL     1      33.618 -18.817 -22.927  0.00  0.00    +0.101 C 
BRANCH   4  11
ATOM      8  N   UNL     1      35.511 -19.454 -20.109  0.00  0.00    -0.264 NA
ATOM      9  N   UNL     1      34.562 -21.955 -17.542  0.00  0.00    -0.150 NA
ATOM     10  N   UNL     1      33.175 -22.406 -17.430  0.00  0.00    -0.147 NA
ATOM     11  C   UNL     1      34.318 -19.324 -20.579  0.00  0.00    +0.078 C 
ATOM     12  C   UNL     1      33.312 -20.888 -19.105  0.00  0.00    +0.040 C 
ATOM     13  C   UNL     1      34.613 -21.083 -18.513  0.00  0.00    +0.107 C 
ATOM     14  C   UNL     1      35.814 -20.360 -18.999  0.00  0.00    +0.173 C 
ATOM     15  C   UNL     1      33.107 -20.054 -20.111  0.00  0.00    +0.022 C 
ATOM     16  C   UNL     1      32.478 -21.784 -18.337  0.00  0.00    +0.123 C 
ENDBRANCH   4  11
ENDBRANCH   1   3
BRANCH   1  17
ATOM     17  C   UNL     1      33.360 -13.981 -22.146  0.00  0.00    +0.184 C 
BRANCH  17  18
ATOM     18  C   UNL     1      33.046 -12.968 -23.254  0.00  0.00    -0.017 C 
BRANCH  18  19
ATOM     19  N   UNL     1      32.101 -13.586 -24.188  0.00  0.00    +0.384 N 
ATOM     20  H   UNL     1      31.382 -12.908 -24.442  0.00  0.00    -0.089 HD
ATOM     21  H   UNL     1      31.664 -14.394 -23.745  0.00  0.00    -0.089 HD
ATOM     22  H   UNL     1      32.598 -13.884 -25.027  0.00  0.00    -0.089 HD
ENDBRANCH  18  19
BRANCH  18  23
ATOM     23  C   UNL     1      32.438 -11.649 -22.717  0.00  0.00    +0.010 C 
BRANCH  23  25
ATOM     24  N   UNL     1      34.516  -9.216 -24.650  0.00  0.00    -0.244 NA
ATOM     25  C   UNL     1      33.072 -10.422 -23.234  0.00  0.00    -0.004 C 
ATOM     26  C   UNL     1      32.977  -9.121 -22.934  0.00  0.00    +0.011 C 
ATOM     27  C   UNL     1      33.861  -8.368 -23.799  0.00  0.00    +0.080 C 
ATOM     28  C   UNL     1      34.061 -10.388 -24.322  0.00  0.00    +0.094 C 
ATOM     29  C   UNL     1      32.160  -8.478 -21.937  0.00  0.00    -0.020 C 
ATOM     30  C   UNL     1      33.949  -7.036 -23.698  0.00  0.00    +0.015 C 
ATOM     31  C   UNL     1      33.129  -6.271 -22.678  0.00  0.00    -0.020 C 
ATOM     32  C   UNL     1      32.230  -7.140 -21.816  0.00  0.00    +0.052 C 
ENDBRANCH  23  25
ENDBRANCH  18  23
ENDBRANCH  17  18
ENDBRANCH   1  17
TORSDOF 7
ENDMDL
MODEL 4
REMARK VINA RESULT:     -11.2      2.479      5.672
REMARK  Name = 46937052
REMARK  7 active torsions:
REMARK  status: ('A' for Active; 'I' for Inactive)
REMARK    1  A    between atoms: O_1  and  C_3
REMARK    2  A    between atoms: O_1  and  C_17
REMARK    3  A    between atoms: C_4  and  C_11
REMARK    4  A    between atoms: C_17  and  C_18
REMARK    5  A    between atoms: C_18  and  N_19
REMARK    6  A    between atoms: C_18  and  C_23
REMARK    7  A    between atoms: C_23  and  C_25
REMARK                            x       y       z     vdW  Elec       q    Type
REMARK                         _______ _______ _______ _____ _____    ______ ____
ROOT
ATOM      1  O   UNL     1      32.015 -21.985 -18.026  0.00  0.00    -0.476 OA
ENDROOT
BRANCH   1   3
ATOM      2  N   UNL     1      30.830 -23.242 -14.801  0.00  0.00    -0.239 NA
ATOM      3  C   UNL     1      32.044 -22.493 -16.754  0.00  0.00    +0.158 C 
ATOM      4  C   UNL     1      33.247 -23.290 -14.829  0.00  0.00    +0.039 C 
ATOM      5  C   UNL     1      33.249 -22.774 -16.121  0.00  0.00    +0.042 C 
ATOM      6  C   UNL     1      30.873 -22.743 -16.057  0.00  0.00    +0.136 C 
ATOM      7  C   UNL     1      32.022 -23.504 -14.219  0.00  0.00    +0.101 C 
BRANCH   4  11
ATOM      8  N   UNL     1      35.289 -24.506 -14.623  0.00  0.00    -0.264 NA
ATOM      9  N   UNL     1      37.877 -24.201 -11.986  0.00  0.00    -0.150 NA
ATOM     10  N   UNL     1      37.702 -23.251 -10.888  0.00  0.00    -0.147 NA
ATOM     11  C   UNL     1      34.520 -23.600 -14.124  0.00  0.00    +0.078 C 
ATOM     12  C   UNL     1      35.909 -23.109 -12.264  0.00  0.00    +0.040 C 
ATOM     13  C   UNL     1      36.831 -24.100 -12.762  0.00  0.00    +0.107 C 
ATOM     14  C   UNL     1      36.561 -24.875 -13.998  0.00  0.00    +0.173 C 
ATOM     15  C   UNL     1      34.772 -22.826 -12.876  0.00  0.00    +0.022 C 
ATOM     16  C   UNL     1      36.567 -22.639 -11.067  0.00  0.00    +0.123 C 
ENDBRANCH   4  11
ENDBRANCH   1   3
BRANCH   1  17
ATOM     17  C   UNL     1      33.261 -21.596 -18.589  0.00  0.00    +0.184 C 
BRANCH  17  18
ATOM     18  C   UNL     1      33.040 -20.702 -19.815  0.00  0.00    -0.017 C 
BRANCH  18  19
ATOM     19  N   UNL     1      31.733 -20.052 -19.680  0.00  0.00    +0.384 N 
ATOM     20  H   UNL     1      31.405 -19.755 -20.599  0.00  0.00    -0.089 HD
ATOM     21  H   UNL     1      31.819 -19.240 -19.070  0.00  0.00    -0.089 HD
ATOM     22  H   UNL     1      31.066 -20.711 -19.279  0.00  0.00    -0.089 HD
ENDBRANCH  18  19
BRANCH  18  23
ATOM     23  C   UNL     1      34.131 -19.615 -19.980  0.00  0.00    +0.010 C 
BRANCH  23  25
ATOM     24  N   UNL     1      33.864 -18.557 -23.555  0.00  0.00    -0.244 NA
ATOM     25  C   UNL     1      34.033 -18.827 -21.221  0.00  0.00    -0.004 C 
ATOM     26  C   UNL     1      33.998 -17.518 -21.500  0.00  0.00    +0.011 C 
ATOM     27  C   UNL     1      33.893 -17.338 -22.933  0.00  0.00    +0.080 C 
ATOM     28  C   UNL     1      33.944 -19.403 -22.572  0.00  0.00    +0.094 C 
ATOM     29  C   UNL     1      34.047 -16.397 -20.596  0.00  0.00    -0.020 C 
ATOM     30  C   UNL     1      33.840 -16.113 -23.470  0.00  0.00    +0.015 C 
ATOM     31  C   UNL     1      33.887 -14.874 -22.598  0.00  0.00    -0.020 C 
ATOM     32  C   UNL     1      33.995 -15.156 -21.110  0.00  0.00    +0.052 C 
ENDBRANCH  23  25
ENDBRANCH  18  23
ENDBRANCH  17  18
ENDBRANCH   1  17
TORSDOF 7
ENDMDL
MODEL 5
REMARK VINA RESULT:     -11.1      3.008      6.051
REMARK  Name = 46937052
REMARK  7 active torsions:
REMARK  status: ('A' for Active; 'I' for Inactive)
REMARK    1  A    between atoms: O_1  and  C_3
REMARK    2  A    between atoms: O_1  and  C_17
REMARK    3  A    between atoms: C_4  and  C_11
REMARK    4  A    between atoms: C_17  and  C_18
REMARK    5  A    between atoms: C_18  and  N_19
REMARK    6  A    between atoms: C_18  and  C_23
REMARK    7  A    between atoms: C_23  and  C_25
REMARK                            x       y       z     vdW  Elec       q    Type
REMARK                         _______ _______ _______ _____ _____    ______ ____
ROOT
ATOM      1  O   UNL     1      34.567 -20.498 -19.761  0.00  0.00    -0.476 OA
ENDROOT
BRANCH   1   3
ATOM      2  N   UNL     1      31.765 -21.978 -17.932  0.00  0.00    -0.239 NA
ATOM      3  C   UNL     1      33.874 -21.147 -18.772  0.00  0.00    +0.158 C 
ATOM      4  C   UNL     1      33.793 -22.280 -16.652  0.00  0.00    +0.039 C 
ATOM      5  C   UNL     1      34.521 -21.625 -17.638  0.00  0.00    +0.042 C 
ATOM      6  C   UNL     1      32.507 -21.348 -18.870  0.00  0.00    +0.136 C 
ATOM      7  C   UNL     1      32.429 -22.429 -16.845  0.00  0.00    +0.101 C 
BRANCH   4  11
ATOM      8  N   UNL     1      35.743 -22.862 -15.407  0.00  0.00    -0.264 NA
ATOM      9  N   UNL     1      35.936 -24.257 -11.978  0.00  0.00    -0.150 NA
ATOM     10  N   UNL     1      34.713 -24.529 -11.222  0.00  0.00    -0.147 NA
ATOM     11  C   UNL     1      34.456 -22.802 -15.426  0.00  0.00    +0.078 C 
ATOM     12  C   UNL     1      34.145 -23.686 -13.246  0.00  0.00    +0.040 C 
ATOM     13  C   UNL     1      35.581 -23.773 -13.138  0.00  0.00    +0.107 C 
ATOM     14  C   UNL     1      36.480 -23.359 -14.243  0.00  0.00    +0.173 C 
ATOM     15  C   UNL     1      33.541 -23.229 -14.330  0.00  0.00    +0.022 C 
ATOM     16  C   UNL     1      33.700 -24.197 -11.970  0.00  0.00    +0.123 C 
ENDBRANCH   4  11
ENDBRANCH   1   3
BRANCH   1  17
ATOM     17  C   UNL     1      33.834 -19.578 -20.559  0.00  0.00    +0.184 C 
BRANCH  17  18
ATOM     18  C   UNL     1      34.619 -18.271 -20.727  0.00  0.00    -0.017 C 
BRANCH  18  19
ATOM     19  N   UNL     1      35.840 -18.362 -19.922  0.00  0.00    +0.384 N 
ATOM     20  H   UNL     1      35.621 -18.153 -18.948  0.00  0.00    -0.089 HD
ATOM     21  H   UNL     1      36.526 -17.690 -20.268  0.00  0.00    -0.089 HD
ATOM     22  H   UNL     1      36.222 -19.305 -19.989  0.00  0.00    -0.089 HD
ENDBRANCH  18  19
BRANCH  18  23
ATOM     23  C   UNL     1      35.003 -17.978 -22.199  0.00  0.00    +0.010 C 
BRANCH  23  25
ATOM     24  N   UNL     1      33.240 -15.723 -24.601  0.00  0.00    -0.244 NA
ATOM     25  C   UNL     1      34.275 -16.855 -22.814  0.00  0.00    -0.004 C 
ATOM     26  C   UNL     1      33.797 -15.689 -22.364  0.00  0.00    +0.011 C 
ATOM     27  C   UNL     1      33.158 -14.982 -23.454  0.00  0.00    +0.080 C 
ATOM     28  C   UNL     1      33.878 -16.791 -24.230  0.00  0.00    +0.094 C 
ATOM     29  C   UNL     1      33.858 -15.138 -21.033  0.00  0.00    -0.020 C 
ATOM     30  C   UNL     1      32.597 -13.782 -23.260  0.00  0.00    +0.015 C 
ATOM     31  C   UNL     1      32.612 -13.122 -21.895  0.00  0.00    -0.020 C 
ATOM     32  C   UNL     1      33.302 -13.933 -20.813  0.00  0.00    +0.052 C 
ENDBRANCH  23  25
ENDBRANCH  18  23
ENDBRANCH  17  18
ENDBRANCH   1  17
TORSDOF 7
ENDMDL
MODEL 6
REMARK VINA RESULT:     -11.1      2.556      4.288
REMARK  Name = 46937052
REMARK  7 active torsions:
REMARK  status: ('A' for Active; 'I' for Inactive)
REMARK    1  A    between atoms: O_1  and  C_3
REMARK    2  A    between atoms: O_1  and  C_17
REMARK    3  A    between atoms: C_4  and  C_11
REMARK    4  A    between atoms: C_17  and  C_18
REMARK    5  A    between atoms: C_18  and  N_19
REMARK    6  A    between atoms: C_18  and  C_23
REMARK    7  A    between atoms: C_23  and  C_25
REMARK                            x       y       z     vdW  Elec       q    Type
REMARK                         _______ _______ _______ _____ _____    ______ ____
ROOT
ATOM      1  O   UNL     1      34.449 -21.323 -19.237  0.00  0.00    -0.476 OA
ENDROOT
BRANCH   1   3
ATOM      2  N   UNL     1      35.967 -21.819 -15.945  0.00  0.00    -0.239 NA
ATOM      3  C   UNL     1      34.577 -21.674 -17.918  0.00  0.00    +0.158 C 
ATOM      4  C   UNL     1      33.669 -22.568 -15.878  0.00  0.00    +0.039 C 
ATOM      5  C   UNL     1      33.510 -22.222 -17.215  0.00  0.00    +0.042 C 
ATOM      6  C   UNL     1      35.774 -21.494 -17.243  0.00  0.00    +0.136 C 
ATOM      7  C   UNL     1      34.907 -22.348 -15.295  0.00  0.00    +0.101 C 
BRANCH   4  11
ATOM      8  N   UNL     1      32.823 -23.766 -13.997  0.00  0.00    -0.264 NA
ATOM      9  N   UNL     1      29.301 -24.632 -13.230  0.00  0.00    -0.150 NA
ATOM     10  N   UNL     1      28.230 -24.240 -14.146  0.00  0.00    -0.147 NA
ATOM     11  C   UNL     1      32.547 -23.156 -15.098  0.00  0.00    +0.078 C 
ATOM     12  C   UNL     1      30.204 -23.514 -14.985  0.00  0.00    +0.040 C 
ATOM     13  C   UNL     1      30.426 -24.203 -13.737  0.00  0.00    +0.107 C 
ATOM     14  C   UNL     1      31.784 -24.374 -13.163  0.00  0.00    +0.173 C 
ATOM     15  C   UNL     1      31.191 -22.991 -15.692  0.00  0.00    +0.022 C 
ATOM     16  C   UNL     1      28.772 -23.605 -15.145  0.00  0.00    +0.123 C 
ENDBRANCH   4  11
ENDBRANCH   1   3
BRANCH   1  17
ATOM     17  C   UNL     1      35.124 -20.144 -19.654  0.00  0.00    +0.184 C 
BRANCH  17  18
ATOM     18  C   UNL     1      34.318 -19.421 -20.741  0.00  0.00    -0.017 C 
BRANCH  18  19
ATOM     19  N   UNL     1      32.895 -19.527 -20.405  0.00  0.00    +0.384 N 
ATOM     20  H   UNL     1      32.765 -19.323 -19.414  0.00  0.00    -0.089 HD
ATOM     21  H   UNL     1      32.568 -20.472 -20.604  0.00  0.00    -0.089 HD
ATOM     22  H   UNL     1      32.364 -18.858 -20.962  0.00  0.00    -0.089 HD
ENDBRANCH  18  19
BRANCH  18  23
ATOM     23  C   UNL     1      34.695 -17.926 -20.884  0.00  0.00    +0.010 C 
BRANCH  23  25
ATOM     24  N   UNL     1      33.537 -17.242 -24.372  0.00  0.00    -0.244 NA
ATOM     25  C   UNL     1      34.195 -17.279 -22.111  0.00  0.00    -0.004 C 
ATOM     26  C   UNL     1      33.821 -16.034 -22.428  0.00  0.00    +0.011 C 
ATOM     27  C   UNL     1      33.413 -15.997 -23.817  0.00  0.00    +0.080 C 
ATOM     28  C   UNL     1      33.984 -17.970 -23.393  0.00  0.00    +0.094 C 
ATOM     29  C   UNL     1      33.790 -14.858 -21.596  0.00  0.00    -0.020 C 
ATOM     30  C   UNL     1      32.992 -14.858 -24.380  0.00  0.00    +0.015 C 
ATOM     31  C   UNL     1      32.927 -13.569 -23.584  0.00  0.00    -0.020 C 
ATOM     32  C   UNL     1      33.371 -13.700 -22.138  0.00  0.00    +0.052 C 
ENDBRANCH  23  25
ENDBRANCH  18  23
ENDBRANCH  17  18
ENDBRANCH   1  17
TORSDOF 7
ENDMDL
MODEL 7
REMARK VINA RESULT:     -11.0      3.170      5.388
REMARK  Name = 46937052
REMARK  7 active torsions:
REMARK  status: ('A' for Active; 'I' for Inactive)
REMARK    1  A    between atoms: O_1  and  C_3
REMARK    2  A    between atoms: O_1  and  C_17
REMARK    3  A    between atoms: C_4  and  C_11
REMARK    4  A    between atoms: C_17  and  C_18
REMARK    5  A    between atoms: C_18  and  N_19
REMARK    6  A    between atoms: C_18  and  C_23
REMARK    7  A    between atoms: C_23  and  C_25
REMARK                            x       y       z     vdW  Elec       q    Type
REMARK                         _______ _______ _______ _____ _____    ______ ____
ROOT
ATOM      1  O   UNL     1      32.882 -20.074 -20.253  0.00  0.00    -0.476 OA
ENDROOT
BRANCH   1   3
ATOM      2  N   UNL     1      35.001 -21.842 -17.851  0.00  0.00    -0.239 NA
ATOM      3  C   UNL     1      33.246 -20.815 -19.159  0.00  0.00    +0.158 C 
ATOM      4  C   UNL     1      32.691 -22.038 -17.163  0.00  0.00    +0.039 C 
ATOM      5  C   UNL     1      32.293 -21.289 -18.265  0.00  0.00    +0.042 C 
ATOM      6  C   UNL     1      34.575 -21.116 -18.909  0.00  0.00    +0.136 C 
ATOM      7  C   UNL     1      34.045 -22.284 -17.003  0.00  0.00    +0.101 C 
BRANCH   4  11
ATOM      8  N   UNL     1      30.445 -22.362 -16.428  0.00  0.00    -0.264 NA
ATOM      9  N   UNL     1      29.267 -24.091 -13.367  0.00  0.00    -0.150 NA
ATOM     10  N   UNL     1      30.230 -24.666 -12.429  0.00  0.00    -0.147 NA
ATOM     11  C   UNL     1      31.696 -22.559 -16.188  0.00  0.00    +0.078 C 
ATOM     12  C   UNL     1      31.364 -23.720 -14.145  0.00  0.00    +0.040 C 
ATOM     13  C   UNL     1      29.946 -23.552 -14.345  0.00  0.00    +0.107 C 
ATOM     14  C   UNL     1      29.396 -22.842 -15.525  0.00  0.00    +0.173 C 
ATOM     15  C   UNL     1      32.262 -23.258 -15.000  0.00  0.00    +0.022 C 
ATOM     16  C   UNL     1      31.425 -24.439 -12.894  0.00  0.00    +0.123 C 
ENDBRANCH   4  11
ENDBRANCH   1   3
BRANCH   1  17
ATOM     17  C   UNL     1      33.669 -18.926 -20.540  0.00  0.00    +0.184 C 
BRANCH  17  18
ATOM     18  C   UNL     1      34.086 -18.917 -22.016  0.00  0.00    -0.017 C 
BRANCH  18  19
ATOM     19  N   UNL     1      32.873 -18.882 -22.837  0.00  0.00    +0.384 N 
ATOM     20  H   UNL     1      32.903 -18.069 -23.452  0.00  0.00    -0.089 HD
ATOM     21  H   UNL     1      32.054 -18.819 -22.231  0.00  0.00    -0.089 HD
ATOM     22  H   UNL     1      32.818 -19.732 -23.398  0.00  0.00    -0.089 HD
ENDBRANCH  18  19
BRANCH  18  23
ATOM     23  C   UNL     1      34.984 -17.710 -22.386  0.00  0.00    +0.010 C 
BRANCH  23  25
ATOM     24  N   UNL     1      33.298 -15.271 -24.663  0.00  0.00    -0.244 NA
ATOM     25  C   UNL     1      34.259 -16.549 -22.934  0.00  0.00    -0.004 C 
ATOM     26  C   UNL     1      33.722 -15.444 -22.403  0.00  0.00    +0.011 C 
ATOM     27  C   UNL     1      33.127 -14.649 -23.457  0.00  0.00    +0.080 C 
ATOM     28  C   UNL     1      33.945 -16.355 -24.359  0.00  0.00    +0.094 C 
ATOM     29  C   UNL     1      33.688 -15.026 -21.024  0.00  0.00    -0.020 C 
ATOM     30  C   UNL     1      32.521 -13.487 -23.182  0.00  0.00    +0.015 C 
ATOM     31  C   UNL     1      32.436 -12.965 -21.762  0.00  0.00    -0.020 C 
ATOM     32  C   UNL     1      33.084 -13.862 -20.723  0.00  0.00    +0.052 C 
ENDBRANCH  23  25
ENDBRANCH  18  23
ENDBRANCH  17  18
ENDBRANCH   1  17
TORSDOF 7
ENDMDL
MODEL 8
REMARK VINA RESULT:     -11.0      2.886      8.828
REMARK  Name = 46937052
REMARK  7 active torsions:
REMARK  status: ('A' for Active; 'I' for Inactive)
REMARK    1  A    between atoms: O_1  and  C_3
REMARK    2  A    between atoms: O_1  and  C_17
REMARK    3  A    between atoms: C_4  and  C_11
REMARK    4  A    between atoms: C_17  and  C_18
REMARK    5  A    between atoms: C_18  and  N_19
REMARK    6  A    between atoms: C_18  and  C_23
REMARK    7  A    between atoms: C_23  and  C_25
REMARK                            x       y       z     vdW  Elec       q    Type
REMARK                         _______ _______ _______ _____ _____    ______ ____
ROOT
ATOM      1  O   UNL     1      32.163 -21.954 -18.175  0.00  0.00    -0.476 OA
ENDROOT
BRANCH   1   3
ATOM      2  N   UNL     1      35.575 -20.724 -18.652  0.00  0.00    -0.239 NA
ATOM      3  C   UNL     1      33.218 -21.261 -18.707  0.00  0.00    +0.158 C 
ATOM      4  C   UNL     1      34.134 -19.724 -20.316  0.00  0.00    +0.039 C 
ATOM      5  C   UNL     1      33.044 -20.415 -19.797  0.00  0.00    +0.042 C 
ATOM      6  C   UNL     1      34.492 -21.380 -18.176  0.00  0.00    +0.136 C 
ATOM      7  C   UNL     1      35.367 -19.912 -19.712  0.00  0.00    +0.101 C 
BRANCH   4  11
ATOM      8  N   UNL     1      33.670 -19.323 -22.621  0.00  0.00    -0.264 NA
ATOM      9  N   UNL     1      33.643 -16.082 -24.419  0.00  0.00    -0.150 NA
ATOM     10  N   UNL     1      33.957 -14.842 -23.709  0.00  0.00    -0.147 NA
ATOM     11  C   UNL     1      33.981 -18.811 -21.480  0.00  0.00    +0.078 C 
ATOM     12  C   UNL     1      34.081 -16.568 -22.248  0.00  0.00    +0.040 C 
ATOM     13  C   UNL     1      33.723 -17.059 -23.556  0.00  0.00    +0.107 C 
ATOM     14  C   UNL     1      33.496 -18.501 -23.821  0.00  0.00    +0.173 C 
ATOM     15  C   UNL     1      34.226 -17.367 -21.204  0.00  0.00    +0.022 C 
ATOM     16  C   UNL     1      34.207 -15.146 -22.468  0.00  0.00    +0.123 C 
ENDBRANCH   4  11
ENDBRANCH   1   3
BRANCH   1  17
ATOM     17  C   UNL     1      32.477 -23.006 -17.273  0.00  0.00    +0.184 C 
BRANCH  17  18
ATOM     18  C   UNL     1      32.140 -22.596 -15.834  0.00  0.00    -0.017 C 
BRANCH  18  19
ATOM     19  N   UNL     1      30.682 -22.579 -15.689  0.00  0.00    +0.384 N 
ATOM     20  H   UNL     1      30.250 -22.542 -16.612  0.00  0.00    -0.089 HD
ATOM     21  H   UNL     1      30.403 -21.760 -15.150  0.00  0.00    -0.089 HD
ATOM     22  H   UNL     1      30.379 -23.425 -15.206  0.00  0.00    -0.089 HD
ENDBRANCH  18  19
BRANCH  18  23
ATOM     23  C   UNL     1      32.743 -23.550 -14.773  0.00  0.00    +0.010 C 
BRANCH  23  25
ATOM     24  N   UNL     1      36.240 -22.260 -14.489  0.00  0.00    -0.244 NA
ATOM     25  C   UNL     1      34.203 -23.436 -14.600  0.00  0.00    -0.004 C 
ATOM     26  C   UNL     1      35.188 -24.309 -14.362  0.00  0.00    +0.011 C 
ATOM     27  C   UNL     1      36.448 -23.598 -14.291  0.00  0.00    +0.080 C 
ATOM     28  C   UNL     1      34.956 -22.174 -14.665  0.00  0.00    +0.094 C 
ATOM     29  C   UNL     1      35.111 -25.738 -14.188  0.00  0.00    -0.020 C 
ATOM     30  C   UNL     1      37.594 -24.251 -14.060  0.00  0.00    +0.015 C 
ATOM     31  C   UNL     1      37.612 -25.755 -13.865  0.00  0.00    -0.020 C 
ATOM     32  C   UNL     1      36.249 -26.417 -13.955  0.00  0.00    +0.052 C 
ENDBRANCH  23  25
ENDBRANCH  18  23
ENDBRANCH  17  18
ENDBRANCH   1  17
TORSDOF 7
ENDMDL
MODEL 9
REMARK VINA RESULT:     -10.8      8.552     13.313
REMARK  Name = 46937052
REMARK  7 active torsions:
REMARK  status: ('A' for Active; 'I' for Inactive)
REMARK    1  A    between atoms: O_1  and  C_3
REMARK    2  A    between atoms: O_1  and  C_17
REMARK    3  A    between atoms: C_4  and  C_11
REMARK    4  A    between atoms: C_17  and  C_18
REMARK    5  A    between atoms: C_18  and  N_19
REMARK    6  A    between atoms: C_18  and  C_23
REMARK    7  A    between atoms: C_23  and  C_25
REMARK                            x       y       z     vdW  Elec       q    Type
REMARK                         _______ _______ _______ _____ _____    ______ ____
ROOT
ATOM      1  O   UNL     1      33.431 -10.763 -23.409  0.00  0.00    -0.476 OA
ENDROOT
BRANCH   1   3
ATOM      2  N   UNL     1      32.300 -12.976 -26.094  0.00  0.00    -0.239 NA
ATOM      3  C   UNL     1      33.145 -11.916 -24.091  0.00  0.00    +0.158 C 
ATOM      4  C   UNL     1      33.086 -14.316 -24.241  0.00  0.00    +0.039 C 
ATOM      5  C   UNL     1      33.386 -13.163 -23.525  0.00  0.00    +0.042 C 
ATOM      6  C   UNL     1      32.606 -11.877 -25.367  0.00  0.00    +0.136 C 
ATOM      7  C   UNL     1      32.549 -14.170 -25.511  0.00  0.00    +0.101 C 
BRANCH   4  11
ATOM      8  N   UNL     1      33.008 -16.697 -24.364  0.00  0.00    -0.264 NA
ATOM      9  N   UNL     1      34.123 -19.157 -21.824  0.00  0.00    -0.150 NA
ATOM     10  N   UNL     1      34.683 -18.701 -20.552  0.00  0.00    -0.147 NA
ATOM     11  C   UNL     1      33.332 -15.665 -23.664  0.00  0.00    +0.078 C 
ATOM     12  C   UNL     1      34.143 -16.890 -21.800  0.00  0.00    +0.040 C 
ATOM     13  C   UNL     1      33.820 -18.095 -22.522  0.00  0.00    +0.107 C 
ATOM     14  C   UNL     1      33.215 -18.063 -23.877  0.00  0.00    +0.173 C 
ATOM     15  C   UNL     1      33.925 -15.683 -22.297  0.00  0.00    +0.022 C 
ATOM     16  C   UNL     1      34.681 -17.399 -20.560  0.00  0.00    +0.123 C 
ENDBRANCH   4  11
ENDBRANCH   1   3
BRANCH   1  17
ATOM     17  C   UNL     1      34.088  -9.734 -24.136  0.00  0.00    +0.184 C 
BRANCH  17  18
ATOM     18  C   UNL     1      33.635  -8.354 -23.641  0.00  0.00    -0.017 C 
BRANCH  18  19
ATOM     19  N   UNL     1      33.860  -7.384 -24.716  0.00  0.00    +0.384 N 
ATOM     20  H   UNL     1      33.029  -7.330 -25.304  0.00  0.00    -0.089 HD
ATOM     21  H   UNL     1      34.657  -7.679 -25.280  0.00  0.00    -0.089 HD
ATOM     22  H   UNL     1      34.051  -6.467 -24.311  0.00  0.00    -0.089 HD
ENDBRANCH  18  19
BRANCH  18  23
ATOM     23  C   UNL     1      32.143  -8.316 -23.229  0.00  0.00    +0.010 C 
BRANCH  23  25
ATOM     24  N   UNL     1      32.051  -6.866 -19.785  0.00  0.00    -0.244 NA
ATOM     25  C   UNL     1      31.906  -8.090 -21.792  0.00  0.00    -0.004 C 
ATOM     26  C   UNL     1      31.302  -8.786 -20.821  0.00  0.00    +0.011 C 
ATOM     27  C   UNL     1      31.384  -8.043 -19.581  0.00  0.00    +0.080 C 
ATOM     28  C   UNL     1      32.347  -6.899 -21.049  0.00  0.00    +0.094 C 
ATOM     29  C   UNL     1      30.648 -10.068 -20.898  0.00  0.00    -0.020 C 
ATOM     30  C   UNL     1      30.850  -8.529 -18.453  0.00  0.00    +0.015 C 
ATOM     31  C   UNL     1      30.143  -9.870 -18.435  0.00  0.00    -0.020 C 
ATOM     32  C   UNL     1      30.104 -10.577 -19.778  0.00  0.00    +0.052 C 
ENDBRANCH  23  25
ENDBRANCH  18  23
ENDBRANCH  17  18
ENDBRANCH   1  17
TORSDOF 7
ENDMDL
