MODEL 1
REMARK VINA RESULT:     -12.6      0.000      0.000
REMARK  Name = 5288711
REMARK  4 active torsions:
REMARK  status: ('A' for Active; 'I' for Inactive)
REMARK    1  A    between atoms: C_1  and  S_7
REMARK    2  A    between atoms: C_2  and  N_17
REMARK    3  A    between atoms: S_7  and  N_11
REMARK    4  A    between atoms: N_17  and  C_25
REMARK                            x       y       z     vdW  Elec       q    Type
REMARK                         _______ _______ _______ _____ _____    ______ ____
ROOT
ATOM      1  C   UNL     1      33.441 -21.565 -18.406  0.00  0.00    +0.125 C 
ATOM      2  C   UNL     1      34.428 -19.683 -20.222  0.00  0.00    +0.048 C 
ATOM      3  C   UNL     1      32.558 -20.785 -19.152  0.00  0.00    +0.021 C 
ATOM      4  C   UNL     1      34.817 -21.407 -18.568  0.00  0.00    +0.021 C 
ATOM      5  C   UNL     1      33.050 -19.846 -20.058  0.00  0.00    +0.016 C 
ATOM      6  C   UNL     1      35.311 -20.468 -19.474  0.00  0.00    +0.016 C 
ENDROOT
BRANCH   1   7
ATOM      7  S   UNL     1      32.825 -22.741 -17.271  0.00  0.00    +0.075 S 
ATOM      8  O   UNL     1      32.612 -23.997 -17.979  0.00  0.00    -0.150 OA
ATOM      9  O   UNL     1      33.688 -22.716 -16.097  0.00  0.00    -0.150 OA
BRANCH   7  11
ATOM     10  S   UNL     1      28.963 -22.870 -15.619  0.00  0.00    -0.050 S 
ATOM     11  N   UNL     1      31.296 -22.059 -16.883  0.00  0.00    -0.194 N 
ATOM     12  N   UNL     1      31.335 -22.850 -14.593  0.00  0.00    -0.221 NA
ATOM     13  C   UNL     1      30.643 -22.587 -15.666  0.00  0.00    +0.179 C 
ATOM     14  C   UNL     1      29.141 -23.406 -14.000  0.00  0.00    +0.059 C 
ATOM     15  C   UNL     1      30.467 -23.324 -13.629  0.00  0.00    +0.108 C 
ATOM     16  H   UNL     1      30.880 -21.359 -17.437  0.00  0.00    +0.176 HD
ENDBRANCH   7  11
ENDBRANCH   1   7
BRANCH   2  17
ATOM     17  N   UNL     1      34.924 -18.737 -21.134  0.00  0.00    -0.311 N 
ATOM     18  H   UNL     1      35.593 -19.070 -21.774  0.00  0.00    +0.152 HD
BRANCH  17  25
ATOM     19  O   UNL     1      33.760 -18.704 -23.790  0.00  0.00    -0.270 OA
ATOM     20  N   UNL     1      33.067 -16.515 -24.344  0.00  0.00    -0.280 N 
ATOM     21  C   UNL     1      33.672 -15.400 -22.426  0.00  0.00    +0.019 C 
ATOM     22  C   UNL     1      34.024 -16.809 -22.286  0.00  0.00    +0.069 C 
ATOM     23  C   UNL     1      33.095 -15.276 -23.693  0.00  0.00    +0.051 C 
ATOM     24  C   UNL     1      33.622 -17.521 -23.546  0.00  0.00    +0.251 C 
ATOM     25  C   UNL     1      34.602 -17.424 -21.252  0.00  0.00    +0.066 C 
ATOM     26  C   UNL     1      33.806 -14.300 -21.600  0.00  0.00    +0.001 C 
ATOM     27  C   UNL     1      32.634 -14.070 -24.181  0.00  0.00    +0.015 C 
ATOM     28  C   UNL     1      33.345 -13.066 -22.075  0.00  0.00    +0.000 C 
ATOM     29  C   UNL     1      32.765 -12.953 -23.352  0.00  0.00    +0.001 C 
ATOM     30  H   UNL     1      32.704 -16.660 -25.247  0.00  0.00    +0.155 HD
ENDBRANCH  17  25
ENDBRANCH   2  17
TORSDOF 4
ENDMDL
MODEL 2
REMARK VINA RESULT:     -11.7      2.729      9.963
REMARK  Name = 5288711
REMARK  4 active torsions:
REMARK  status: ('A' for Active; 'I' for Inactive)
REMARK    1  A    between atoms: C_1  and  S_7
REMARK    2  A    between atoms: C_2  and  N_17
REMARK    3  A    between atoms: S_7  and  N_11
REMARK    4  A    between atoms: N_17  and  C_25
REMARK                            x       y       z     vdW  Elec       q    Type
REMARK                         _______ _______ _______ _____ _____    ______ ____
ROOT
ATOM      1  C   UNL     1      34.542 -19.547 -20.410  0.00  0.00    +0.125 C 
ATOM      2  C   UNL     1      34.077 -21.394 -18.364  0.00  0.00    +0.048 C 
ATOM      3  C   UNL     1      33.238 -19.927 -20.096  0.00  0.00    +0.021 C 
ATOM      4  C   UNL     1      35.615 -20.088 -19.702  0.00  0.00    +0.021 C 
ATOM      5  C   UNL     1      33.005 -20.848 -19.076  0.00  0.00    +0.016 C 
ATOM      6  C   UNL     1      35.384 -21.009 -18.680  0.00  0.00    +0.016 C 
ENDROOT
BRANCH   1   7
ATOM      7  S   UNL     1      34.834 -18.394 -21.688  0.00  0.00    +0.075 S 
ATOM      8  O   UNL     1      36.240 -18.013 -21.654  0.00  0.00    -0.150 OA
ATOM      9  O   UNL     1      34.268 -18.941 -22.915  0.00  0.00    -0.150 OA
BRANCH   7  11
ATOM     10  S   UNL     1      33.736 -14.337 -21.659  0.00  0.00    -0.050 S 
ATOM     11  N   UNL     1      33.887 -17.061 -21.156  0.00  0.00    -0.194 N 
ATOM     12  N   UNL     1      33.488 -16.232 -23.398  0.00  0.00    -0.221 NA
ATOM     13  C   UNL     1      33.695 -15.972 -22.138  0.00  0.00    +0.179 C 
ATOM     14  C   UNL     1      33.449 -13.895 -23.291  0.00  0.00    +0.059 C 
ATOM     15  C   UNL     1      33.345 -15.032 -24.066  0.00  0.00    +0.108 C 
ATOM     16  H   UNL     1      33.496 -17.026 -20.253  0.00  0.00    +0.176 HD
ENDBRANCH   7  11
ENDBRANCH   1   7
BRANCH   2  17
ATOM     17  N   UNL     1      33.843 -22.322 -17.336  0.00  0.00    -0.311 N 
ATOM     18  H   UNL     1      34.617 -22.870 -17.071  0.00  0.00    +0.152 HD
BRANCH  17  25
ATOM     19  O   UNL     1      34.867 -23.737 -15.021  0.00  0.00    -0.270 OA
ATOM     20  N   UNL     1      33.090 -24.330 -13.583  0.00  0.00    -0.280 N 
ATOM     21  C   UNL     1      31.311 -23.464 -14.756  0.00  0.00    +0.019 C 
ATOM     22  C   UNL     1      32.542 -23.197 -15.494  0.00  0.00    +0.069 C 
ATOM     23  C   UNL     1      31.701 -24.154 -13.604  0.00  0.00    +0.051 C 
ATOM     24  C   UNL     1      33.690 -23.769 -14.715  0.00  0.00    +0.251 C 
ATOM     25  C   UNL     1      32.692 -22.564 -16.659  0.00  0.00    +0.066 C 
ATOM     26  C   UNL     1      29.980 -23.177 -14.990  0.00  0.00    +0.001 C 
ATOM     27  C   UNL     1      30.795 -24.579 -12.654  0.00  0.00    +0.015 C 
ATOM     28  C   UNL     1      29.043 -23.598 -14.039  0.00  0.00    +0.000 C 
ATOM     29  C   UNL     1      29.447 -24.292 -12.883  0.00  0.00    +0.001 C 
ATOM     30  H   UNL     1      33.580 -24.790 -12.865  0.00  0.00    +0.155 HD
ENDBRANCH  17  25
ENDBRANCH   2  17
TORSDOF 4
ENDMDL
MODEL 3
REMARK VINA RESULT:     -11.5      2.056      2.489
REMARK  Name = 5288711
REMARK  4 active torsions:
REMARK  status: ('A' for Active; 'I' for Inactive)
REMARK    1  A    between atoms: C_1  and  S_7
REMARK    2  A    between atoms: C_2  and  N_17
REMARK    3  A    between atoms: S_7  and  N_11
REMARK    4  A    between atoms: N_17  and  C_25
REMARK                            x       y       z     vdW  Elec       q    Type
REMARK                         _______ _______ _______ _____ _____    ______ ____
ROOT
ATOM      1  C   UNL     1      33.070 -21.800 -17.883  0.00  0.00    +0.125 C 
ATOM      2  C   UNL     1      34.350 -20.103 -19.699  0.00  0.00    +0.048 C 
ATOM      3  C   UNL     1      34.464 -21.735 -17.916  0.00  0.00    +0.021 C 
ATOM      4  C   UNL     1      32.316 -21.017 -18.755  0.00  0.00    +0.021 C 
ATOM      5  C   UNL     1      35.102 -20.889 -18.821  0.00  0.00    +0.016 C 
ATOM      6  C   UNL     1      32.953 -20.169 -19.662  0.00  0.00    +0.016 C 
ENDROOT
BRANCH   1   7
ATOM      7  S   UNL     1      32.271 -22.860 -16.749  0.00  0.00    +0.075 S 
ATOM      8  O   UNL     1      30.847 -22.551 -16.753  0.00  0.00    -0.150 OA
ATOM      9  O   UNL     1      32.710 -24.221 -17.030  0.00  0.00    -0.150 OA
BRANCH   7  11
ATOM     10  S   UNL     1      33.681 -23.454 -12.834  0.00  0.00    -0.050 S 
ATOM     11  N   UNL     1      32.947 -22.327 -15.261  0.00  0.00    -0.194 N 
ATOM     12  N   UNL     1      34.577 -24.118 -15.166  0.00  0.00    -0.221 NA
ATOM     13  C   UNL     1      33.766 -23.319 -14.531  0.00  0.00    +0.179 C 
ATOM     14  C   UNL     1      34.844 -24.711 -12.918  0.00  0.00    +0.059 C 
ATOM     15  C   UNL     1      35.201 -24.924 -14.234  0.00  0.00    +0.108 C 
ATOM     16  H   UNL     1      32.800 -21.416 -14.917  0.00  0.00    +0.176 HD
ENDBRANCH   7  11
ENDBRANCH   1   7
BRANCH   2  17
ATOM     17  N   UNL     1      34.993 -19.250 -20.611  0.00  0.00    -0.311 N 
ATOM     18  H   UNL     1      35.770 -19.633 -21.079  0.00  0.00    +0.152 HD
BRANCH  17  25
ATOM     19  O   UNL     1      34.013 -19.600 -23.318  0.00  0.00    -0.270 OA
ATOM     20  N   UNL     1      33.368 -17.514 -24.222  0.00  0.00    -0.280 N 
ATOM     21  C   UNL     1      33.846 -16.136 -22.443  0.00  0.00    +0.019 C 
ATOM     22  C   UNL     1      34.181 -17.510 -22.082  0.00  0.00    +0.069 C 
ATOM     23  C   UNL     1      33.357 -16.196 -23.752  0.00  0.00    +0.051 C 
ATOM     24  C   UNL     1      33.864 -18.394 -23.253  0.00  0.00    +0.251 C 
ATOM     25  C   UNL     1      34.685 -17.969 -20.935  0.00  0.00    +0.066 C 
ATOM     26  C   UNL     1      33.927 -14.930 -21.775  0.00  0.00    +0.001 C 
ATOM     27  C   UNL     1      32.935 -15.073 -24.436  0.00  0.00    +0.015 C 
ATOM     28  C   UNL     1      33.505 -13.778 -22.449  0.00  0.00    +0.000 C 
ATOM     29  C   UNL     1      33.014 -13.850 -23.766  0.00  0.00    +0.001 C 
ATOM     30  H   UNL     1      33.067 -17.787 -25.118  0.00  0.00    +0.155 HD
ENDBRANCH  17  25
ENDBRANCH   2  17
TORSDOF 4
ENDMDL
MODEL 4
REMARK VINA RESULT:     -11.0      4.266      6.238
REMARK  Name = 5288711
REMARK  4 active torsions:
REMARK  status: ('A' for Active; 'I' for Inactive)
REMARK    1  A    between atoms: C_1  and  S_7
REMARK    2  A    between atoms: C_2  and  N_17
REMARK    3  A    between atoms: S_7  and  N_11
REMARK    4  A    between atoms: N_17  and  C_25
REMARK                            x       y       z     vdW  Elec       q    Type
REMARK                         _______ _______ _______ _____ _____    ______ ____
ROOT
ATOM      1  C   UNL     1      34.704 -23.125 -13.415  0.00  0.00    +0.125 C 
ATOM      2  C   UNL     1      34.132 -22.493 -16.078  0.00  0.00    +0.048 C 
ATOM      3  C   UNL     1      35.642 -22.440 -14.187  0.00  0.00    +0.021 C 
ATOM      4  C   UNL     1      33.480 -23.494 -13.972  0.00  0.00    +0.021 C 
ATOM      5  C   UNL     1      35.357 -22.124 -15.515  0.00  0.00    +0.016 C 
ATOM      6  C   UNL     1      33.194 -23.179 -15.301  0.00  0.00    +0.016 C 
ENDROOT
BRANCH   1   7
ATOM      7  S   UNL     1      35.061 -23.521 -11.753  0.00  0.00    +0.075 S 
ATOM      8  O   UNL     1      36.147 -22.662 -11.297  0.00  0.00    -0.150 OA
ATOM      9  O   UNL     1      33.801 -23.534 -11.021  0.00  0.00    -0.150 OA
BRANCH   7  11
ATOM     10  S   UNL     1      37.233 -26.547 -13.700  0.00  0.00    -0.050 S 
ATOM     11  N   UNL     1      35.656 -25.126 -11.913  0.00  0.00    -0.194 N 
ATOM     12  N   UNL     1      37.920 -24.417 -12.408  0.00  0.00    -0.221 NA
ATOM     13  C   UNL     1      36.953 -25.267 -12.610  0.00  0.00    +0.179 C 
ATOM     14  C   UNL     1      38.812 -25.930 -13.954  0.00  0.00    +0.059 C 
ATOM     15  C   UNL     1      38.996 -24.799 -13.185  0.00  0.00    +0.108 C 
ATOM     16  H   UNL     1      35.164 -25.903 -11.562  0.00  0.00    +0.176 HD
ENDBRANCH   7  11
ENDBRANCH   1   7
BRANCH   2  17
ATOM     17  N   UNL     1      33.845 -22.175 -17.415  0.00  0.00    -0.311 N 
ATOM     18  H   UNL     1      33.063 -22.630 -17.804  0.00  0.00    +0.152 HD
BRANCH  17  25
ATOM     19  O   UNL     1      31.651 -21.215 -19.050  0.00  0.00    -0.270 OA
ATOM     20  N   UNL     1      32.448 -19.669 -20.648  0.00  0.00    -0.280 N 
ATOM     21  C   UNL     1      34.687 -19.660 -20.124  0.00  0.00    +0.019 C 
ATOM     22  C   UNL     1      33.993 -20.579 -19.227  0.00  0.00    +0.069 C 
ATOM     23  C   UNL     1      33.702 -19.135 -20.966  0.00  0.00    +0.051 C 
ATOM     24  C   UNL     1      32.535 -20.572 -19.583  0.00  0.00    +0.251 C 
ATOM     25  C   UNL     1      34.502 -21.324 -18.244  0.00  0.00    +0.066 C 
ATOM     26  C   UNL     1      36.007 -19.275 -20.256  0.00  0.00    +0.001 C 
ATOM     27  C   UNL     1      33.989 -18.219 -21.958  0.00  0.00    +0.015 C 
ATOM     28  C   UNL     1      36.321 -18.347 -21.255  0.00  0.00    +0.000 C 
ATOM     29  C   UNL     1      35.322 -17.824 -22.098  0.00  0.00    +0.001 C 
ATOM     30  H   UNL     1      31.612 -19.439 -21.114  0.00  0.00    +0.155 HD
ENDBRANCH  17  25
ENDBRANCH   2  17
TORSDOF 4
ENDMDL
MODEL 5
REMARK VINA RESULT:     -10.8      3.584     10.172
REMARK  Name = 5288711
REMARK  4 active torsions:
REMARK  status: ('A' for Active; 'I' for Inactive)
REMARK    1  A    between atoms: C_1  and  S_7
REMARK    2  A    between atoms: C_2  and  N_17
REMARK    3  A    between atoms: S_7  and  N_11
REMARK    4  A    between atoms: N_17  and  C_25
REMARK                            x       y       z     vdW  Elec       q    Type
REMARK                         _______ _______ _______ _____ _____    ______ ____
ROOT
ATOM      1  C   UNL     1      34.430 -19.757 -20.257  0.00  0.00    +0.125 C 
ATOM      2  C   UNL     1      33.839 -21.446 -18.108  0.00  0.00    +0.048 C 
ATOM      3  C   UNL     1      33.103 -20.064 -19.955  0.00  0.00    +0.021 C 
ATOM      4  C   UNL     1      35.462 -20.292 -19.486  0.00  0.00    +0.021 C 
ATOM      5  C   UNL     1      32.809 -20.906 -18.883  0.00  0.00    +0.016 C 
ATOM      6  C   UNL     1      35.168 -21.135 -18.414  0.00  0.00    +0.016 C 
ENDROOT
BRANCH   1   7
ATOM      7  S   UNL     1      34.800 -18.703 -21.599  0.00  0.00    +0.075 S 
ATOM      8  O   UNL     1      36.211 -18.344 -21.528  0.00  0.00    -0.150 OA
ATOM      9  O   UNL     1      34.279 -19.328 -22.808  0.00  0.00    -0.150 OA
BRANCH   7  11
ATOM     10  S   UNL     1      33.800 -14.631 -21.884  0.00  0.00    -0.050 S 
ATOM     11  N   UNL     1      33.857 -17.321 -21.206  0.00  0.00    -0.194 N 
ATOM     12  N   UNL     1      33.605 -16.627 -23.514  0.00  0.00    -0.221 NA
ATOM     13  C   UNL     1      33.747 -16.292 -22.263  0.00  0.00    +0.179 C 
ATOM     14  C   UNL     1      33.617 -14.288 -23.554  0.00  0.00    +0.059 C 
ATOM     15  C   UNL     1      33.530 -15.468 -24.262  0.00  0.00    +0.108 C 
ATOM     16  H   UNL     1      33.416 -17.221 -20.331  0.00  0.00    +0.176 HD
ENDBRANCH   7  11
ENDBRANCH   1   7
BRANCH   2  17
ATOM     17  N   UNL     1      33.542 -22.294 -17.029  0.00  0.00    -0.311 N 
ATOM     18  H   UNL     1      32.642 -22.692 -17.034  0.00  0.00    +0.152 HD
BRANCH  17  25
ATOM     19  O   UNL     1      31.540 -22.803 -14.995  0.00  0.00    -0.270 OA
ATOM     20  N   UNL     1      32.582 -23.444 -12.974  0.00  0.00    -0.280 N 
ATOM     21  C   UNL     1      34.791 -23.355 -13.611  0.00  0.00    +0.019 C 
ATOM     22  C   UNL     1      33.954 -22.983 -14.747  0.00  0.00    +0.069 C 
ATOM     23  C   UNL     1      33.907 -23.625 -12.561  0.00  0.00    +0.051 C 
ATOM     24  C   UNL     1      32.518 -23.047 -14.314  0.00  0.00    +0.251 C 
ATOM     25  C   UNL     1      34.332 -22.637 -15.980  0.00  0.00    +0.066 C 
ATOM     26  C   UNL     1      36.156 -23.468 -13.431  0.00  0.00    +0.001 C 
ATOM     27  C   UNL     1      34.342 -24.011 -11.309  0.00  0.00    +0.015 C 
ATOM     28  C   UNL     1      36.619 -23.859 -12.170  0.00  0.00    +0.000 C 
ATOM     29  C   UNL     1      35.721 -24.128 -11.120  0.00  0.00    +0.001 C 
ATOM     30  H   UNL     1      31.797 -23.579 -12.397  0.00  0.00    +0.155 HD
ENDBRANCH  17  25
ENDBRANCH   2  17
TORSDOF 4
ENDMDL
MODEL 6
REMARK VINA RESULT:     -10.7      3.842      6.641
REMARK  Name = 5288711
REMARK  4 active torsions:
REMARK  status: ('A' for Active; 'I' for Inactive)
REMARK    1  A    between atoms: C_1  and  S_7
REMARK    2  A    between atoms: C_2  and  N_17
REMARK    3  A    between atoms: S_7  and  N_11
REMARK    4  A    between atoms: N_17  and  C_25
REMARK                            x       y       z     vdW  Elec       q    Type
REMARK                         _______ _______ _______ _____ _____    ______ ____
ROOT
ATOM      1  C   UNL     1      34.123 -16.784 -22.546  0.00  0.00    +0.125 C 
ATOM      2  C   UNL     1      33.448 -14.183 -23.318  0.00  0.00    +0.048 C 
ATOM      3  C   UNL     1      33.821 -16.508 -23.880  0.00  0.00    +0.021 C 
ATOM      4  C   UNL     1      34.089 -15.762 -21.598  0.00  0.00    +0.021 C 
ATOM      5  C   UNL     1      33.485 -15.211 -24.265  0.00  0.00    +0.016 C 
ATOM      6  C   UNL     1      33.752 -14.464 -21.982  0.00  0.00    +0.016 C 
ENDROOT
BRANCH   1   7
ATOM      7  S   UNL     1      34.544 -18.408 -22.063  0.00  0.00    +0.075 S 
ATOM      8  O   UNL     1      34.126 -19.325 -23.116  0.00  0.00    -0.150 OA
ATOM      9  O   UNL     1      35.937 -18.396 -21.635  0.00  0.00    -0.150 OA
BRANCH   7  11
ATOM     10  S   UNL     1      32.538 -20.747 -19.205  0.00  0.00    -0.050 S 
ATOM     11  N   UNL     1      33.519 -18.626 -20.701  0.00  0.00    -0.194 N 
ATOM     12  N   UNL     1      35.027 -20.173 -19.602  0.00  0.00    -0.221 NA
ATOM     13  C   UNL     1      33.802 -19.811 -19.862  0.00  0.00    +0.179 C 
ATOM     14  C   UNL     1      33.720 -21.760 -18.485  0.00  0.00    +0.059 C 
ATOM     15  C   UNL     1      34.980 -21.300 -18.805  0.00  0.00    +0.108 C 
ATOM     16  H   UNL     1      32.789 -18.000 -20.491  0.00  0.00    +0.176 HD
ENDBRANCH   7  11
ENDBRANCH   1   7
BRANCH   2  17
ATOM     17  N   UNL     1      33.109 -12.877 -23.706  0.00  0.00    -0.311 N 
ATOM     18  H   UNL     1      33.318 -12.640 -24.639  0.00  0.00    +0.152 HD
BRANCH  17  25
ATOM     19  O   UNL     1      34.369 -10.528 -24.849  0.00  0.00    -0.270 OA
ATOM     20  N   UNL     1      33.578  -8.580 -23.772  0.00  0.00    -0.280 N 
ATOM     21  C   UNL     1      32.118  -9.515 -22.261  0.00  0.00    +0.019 C 
ATOM     22  C   UNL     1      32.732 -10.579 -23.049  0.00  0.00    +0.069 C 
ATOM     23  C   UNL     1      32.667  -8.322 -22.741  0.00  0.00    +0.051 C 
ATOM     24  C   UNL     1      33.680  -9.951 -24.029  0.00  0.00    +0.251 C 
ATOM     25  C   UNL     1      32.531 -11.896 -22.966  0.00  0.00    +0.066 C 
ATOM     26  C   UNL     1      31.191  -9.503 -21.236  0.00  0.00    +0.001 C 
ATOM     27  C   UNL     1      32.320  -7.089 -22.227  0.00  0.00    +0.015 C 
ATOM     28  C   UNL     1      30.824  -8.263 -20.701  0.00  0.00    +0.000 C 
ATOM     29  C   UNL     1      31.383  -7.069 -21.192  0.00  0.00    +0.001 C 
ATOM     30  H   UNL     1      34.082  -7.886 -24.255  0.00  0.00    +0.155 HD
ENDBRANCH  17  25
ENDBRANCH   2  17
TORSDOF 4
ENDMDL
MODEL 7
REMARK VINA RESULT:     -10.7      3.406      4.539
REMARK  Name = 5288711
REMARK  4 active torsions:
REMARK  status: ('A' for Active; 'I' for Inactive)
REMARK    1  A    between atoms: C_1  and  S_7
REMARK    2  A    between atoms: C_2  and  N_17
REMARK    3  A    between atoms: S_7  and  N_11
REMARK    4  A    between atoms: N_17  and  C_25
REMARK                            x       y       z     vdW  Elec       q    Type
REMARK                         _______ _______ _______ _____ _____    ______ ____
ROOT
ATOM      1  C   UNL     1      34.039 -22.740 -15.804  0.00  0.00    +0.125 C 
ATOM      2  C   UNL     1      34.921 -21.305 -18.035  0.00  0.00    +0.048 C 
ATOM      3  C   UNL     1      35.316 -22.180 -15.814  0.00  0.00    +0.021 C 
ATOM      4  C   UNL     1      33.201 -22.583 -16.908  0.00  0.00    +0.021 C 
ATOM      5  C   UNL     1      35.756 -21.463 -16.926  0.00  0.00    +0.016 C 
ATOM      6  C   UNL     1      33.641 -21.867 -18.022  0.00  0.00    +0.016 C 
ENDROOT
BRANCH   1   7
ATOM      7  S   UNL     1      33.487 -23.637 -14.411  0.00  0.00    +0.075 S 
ATOM      8  O   UNL     1      32.040 -23.497 -14.316  0.00  0.00    -0.150 OA
ATOM      9  O   UNL     1      34.076 -24.968 -14.481  0.00  0.00    -0.150 OA
BRANCH   7  11
ATOM     10  S   UNL     1      35.629 -23.297 -10.811  0.00  0.00    -0.050 S 
ATOM     11  N   UNL     1      34.215 -22.746 -13.133  0.00  0.00    -0.194 N 
ATOM     12  N   UNL     1      36.285 -24.004 -13.209  0.00  0.00    -0.221 NA
ATOM     13  C   UNL     1      35.393 -23.374 -12.497  0.00  0.00    +0.179 C 
ATOM     14  C   UNL     1      37.075 -24.196 -11.015  0.00  0.00    +0.059 C 
ATOM     15  C   UNL     1      37.258 -24.480 -12.352  0.00  0.00    +0.108 C 
ATOM     16  H   UNL     1      33.869 -21.871 -12.844  0.00  0.00    +0.176 HD
ENDBRANCH   7  11
ENDBRANCH   1   7
BRANCH   2  17
ATOM     17  N   UNL     1      35.364 -20.584 -19.156  0.00  0.00    -0.311 N 
ATOM     18  H   UNL     1      36.321 -20.349 -19.162  0.00  0.00    +0.152 HD
BRANCH  17  25
ATOM     19  O   UNL     1      36.725 -18.099 -19.774  0.00  0.00    -0.270 OA
ATOM     20  N   UNL     1      35.720 -17.069 -21.648  0.00  0.00    -0.280 N 
ATOM     21  C   UNL     1      34.065 -18.597 -22.111  0.00  0.00    +0.019 C 
ATOM     22  C   UNL     1      34.825 -19.058 -20.954  0.00  0.00    +0.069 C 
ATOM     23  C   UNL     1      34.650 -17.386 -22.493  0.00  0.00    +0.051 C 
ATOM     24  C   UNL     1      35.899 -18.049 -20.666  0.00  0.00    +0.251 C 
ATOM     25  C   UNL     1      34.650 -20.166 -20.232  0.00  0.00    +0.066 C 
ATOM     26  C   UNL     1      32.986 -19.109 -22.806  0.00  0.00    +0.001 C 
ATOM     27  C   UNL     1      34.191 -16.648 -23.565  0.00  0.00    +0.015 C 
ATOM     28  C   UNL     1      32.504 -18.377 -23.897  0.00  0.00    +0.000 C 
ATOM     29  C   UNL     1      33.101 -17.159 -24.273  0.00  0.00    +0.001 C 
ATOM     30  H   UNL     1      36.275 -16.261 -21.733  0.00  0.00    +0.155 HD
ENDBRANCH  17  25
ENDBRANCH   2  17
TORSDOF 4
ENDMDL
MODEL 8
REMARK VINA RESULT:     -10.7      2.581      3.623
REMARK  Name = 5288711
REMARK  4 active torsions:
REMARK  status: ('A' for Active; 'I' for Inactive)
REMARK    1  A    between atoms: C_1  and  S_7
REMARK    2  A    between atoms: C_2  and  N_17
REMARK    3  A    between atoms: S_7  and  N_11
REMARK    4  A    between atoms: N_17  and  C_25
REMARK                            x       y       z     vdW  Elec       q    Type
REMARK                         _______ _______ _______ _____ _____    ______ ____
ROOT
ATOM      1  C   UNL     1      34.032 -22.679 -15.372  0.00  0.00    +0.125 C 
ATOM      2  C   UNL     1      34.975 -21.423 -17.685  0.00  0.00    +0.048 C 
ATOM      3  C   UNL     1      35.316 -22.134 -15.397  0.00  0.00    +0.021 C 
ATOM      4  C   UNL     1      33.218 -22.597 -16.501  0.00  0.00    +0.021 C 
ATOM      5  C   UNL     1      35.786 -21.507 -16.550  0.00  0.00    +0.016 C 
ATOM      6  C   UNL     1      33.688 -21.970 -17.656  0.00  0.00    +0.016 C 
ENDROOT
BRANCH   1   7
ATOM      7  S   UNL     1      33.443 -23.464 -13.928  0.00  0.00    +0.075 S 
ATOM      8  O   UNL     1      33.127 -24.849 -14.252  0.00  0.00    -0.150 OA
ATOM      9  O   UNL     1      34.384 -23.176 -12.852  0.00  0.00    -0.150 OA
BRANCH   7  11
ATOM     10  S   UNL     1      29.352 -22.734 -14.555  0.00  0.00    -0.050 S 
ATOM     11  N   UNL     1      31.975 -22.610 -13.660  0.00  0.00    -0.194 N 
ATOM     12  N   UNL     1      30.659 -24.625 -13.372  0.00  0.00    -0.221 NA
ATOM     13  C   UNL     1      30.732 -23.399 -13.809  0.00  0.00    +0.179 C 
ATOM     14  C   UNL     1      28.542 -24.222 -14.284  0.00  0.00    +0.059 C 
ATOM     15  C   UNL     1      29.392 -25.102 -13.647  0.00  0.00    +0.108 C 
ATOM     16  H   UNL     1      31.962 -21.655 -13.422  0.00  0.00    +0.176 HD
ENDBRANCH   7  11
ENDBRANCH   1   7
BRANCH   2  17
ATOM     17  N   UNL     1      35.448 -20.792 -18.847  0.00  0.00    -0.311 N 
ATOM     18  H   UNL     1      36.419 -20.634 -18.881  0.00  0.00    +0.152 HD
BRANCH  17  25
ATOM     19  O   UNL     1      36.849 -18.333 -19.475  0.00  0.00    -0.270 OA
ATOM     20  N   UNL     1      35.869 -17.300 -21.360  0.00  0.00    -0.280 N 
ATOM     21  C   UNL     1      34.193 -18.806 -21.822  0.00  0.00    +0.019 C 
ATOM     22  C   UNL     1      34.940 -19.271 -20.657  0.00  0.00    +0.069 C 
ATOM     23  C   UNL     1      34.799 -17.607 -22.208  0.00  0.00    +0.051 C 
ATOM     24  C   UNL     1      36.029 -18.277 -20.371  0.00  0.00    +0.251 C 
ATOM     25  C   UNL     1      34.745 -20.372 -19.929  0.00  0.00    +0.066 C 
ATOM     26  C   UNL     1      33.110 -19.307 -22.519  0.00  0.00    +0.001 C 
ATOM     27  C   UNL     1      34.356 -16.869 -23.288  0.00  0.00    +0.015 C 
ATOM     28  C   UNL     1      32.644 -18.575 -23.617  0.00  0.00    +0.000 C 
ATOM     29  C   UNL     1      33.261 -17.369 -23.998  0.00  0.00    +0.001 C 
ATOM     30  H   UNL     1      36.436 -16.501 -21.448  0.00  0.00    +0.155 HD
ENDBRANCH  17  25
ENDBRANCH   2  17
TORSDOF 4
ENDMDL
MODEL 9
REMARK VINA RESULT:     -10.7      4.769     10.419
REMARK  Name = 5288711
REMARK  4 active torsions:
REMARK  status: ('A' for Active; 'I' for Inactive)
REMARK    1  A    between atoms: C_1  and  S_7
REMARK    2  A    between atoms: C_2  and  N_17
REMARK    3  A    between atoms: S_7  and  N_11
REMARK    4  A    between atoms: N_17  and  C_25
REMARK                            x       y       z     vdW  Elec       q    Type
REMARK                         _______ _______ _______ _____ _____    ______ ____
ROOT
ATOM      1  C   UNL     1      33.006 -14.518 -23.431  0.00  0.00    +0.125 C 
ATOM      2  C   UNL     1      33.950 -17.037 -22.669  0.00  0.00    +0.048 C 
ATOM      3  C   UNL     1      33.621 -14.687 -22.191  0.00  0.00    +0.021 C 
ATOM      4  C   UNL     1      32.862 -15.607 -24.291  0.00  0.00    +0.021 C 
ATOM      5  C   UNL     1      34.093 -15.943 -21.811  0.00  0.00    +0.016 C 
ATOM      6  C   UNL     1      33.333 -16.864 -23.912  0.00  0.00    +0.016 C 
ENDROOT
BRANCH   1   7
ATOM      7  S   UNL     1      32.415 -12.946 -23.908  0.00  0.00    +0.075 S 
ATOM      8  O   UNL     1      32.162 -12.964 -25.343  0.00  0.00    -0.150 OA
ATOM      9  O   UNL     1      31.340 -12.581 -22.994  0.00  0.00    -0.150 OA
BRANCH   7  11
ATOM     10  S   UNL     1      34.824  -9.555 -24.509  0.00  0.00    -0.050 S 
ATOM     11  N   UNL     1      33.794 -11.966 -23.603  0.00  0.00    -0.194 N 
ATOM     12  N   UNL     1      32.510  -9.920 -23.418  0.00  0.00    -0.221 NA
ATOM     13  C   UNL     1      33.609 -10.511 -23.794  0.00  0.00    +0.179 C 
ATOM     14  C   UNL     1      33.805  -8.189 -24.315  0.00  0.00    +0.059 C 
ATOM     15  C   UNL     1      32.622  -8.576 -23.719  0.00  0.00    +0.108 C 
ATOM     16  H   UNL     1      34.655 -12.350 -23.318  0.00  0.00    +0.176 HD
ENDBRANCH   7  11
ENDBRANCH   1   7
BRANCH   2  17
ATOM     17  N   UNL     1      34.425 -18.302 -22.285  0.00  0.00    -0.311 N 
ATOM     18  H   UNL     1      35.246 -18.605 -22.736  0.00  0.00    +0.152 HD
BRANCH  17  25
ATOM     19  O   UNL     1      36.702 -18.678 -20.530  0.00  0.00    -0.270 OA
ATOM     20  N   UNL     1      36.139 -20.161 -18.780  0.00  0.00    -0.280 N 
ATOM     21  C   UNL     1      33.953 -20.622 -19.325  0.00  0.00    +0.019 C 
ATOM     22  C   UNL     1      34.502 -19.696 -20.310  0.00  0.00    +0.069 C 
ATOM     23  C   UNL     1      34.988 -20.871 -18.419  0.00  0.00    +0.051 C 
ATOM     24  C   UNL     1      35.928 -19.407 -19.939  0.00  0.00    +0.251 C 
ATOM     25  C   UNL     1      33.901 -19.163 -21.376  0.00  0.00    +0.066 C 
ATOM     26  C   UNL     1      32.717 -21.220 -19.167  0.00  0.00    +0.001 C 
ATOM     27  C   UNL     1      34.836 -21.713 -17.336  0.00  0.00    +0.015 C 
ATOM     28  C   UNL     1      32.541 -22.078 -18.075  0.00  0.00    +0.000 C 
ATOM     29  C   UNL     1      33.590 -22.321 -17.169  0.00  0.00    +0.001 C 
ATOM     30  H   UNL     1      36.988 -20.189 -18.283  0.00  0.00    +0.155 HD
ENDBRANCH  17  25
ENDBRANCH   2  17
TORSDOF 4
ENDMDL
