MODEL 1
REMARK VINA RESULT:     -12.0      0.000      0.000
REMARK  Name = 24941249
REMARK  6 active torsions:
REMARK  status: ('A' for Active; 'I' for Inactive)
REMARK    1  A    between atoms: N_1  and  C_13
REMARK    2  A    between atoms: N_2  and  C_26
REMARK    3  A    between atoms: C_14  and  C_19
REMARK    4  A    between atoms: C_19  and  C_20
REMARK    5  A    between atoms: C_20  and  C_23
REMARK    6  A    between atoms: C_26  and  C_28
REMARK                            x       y       z     vdW  Elec       q    Type
REMARK                         _______ _______ _______ _____ _____    ______ ____
ROOT
ATOM      1  N   UNL     1      32.420 -13.395 -22.483  0.00  0.00    -0.230 N 
ATOM      2  N   UNL     1      34.464 -17.399 -20.566  0.00  0.00    -0.316 N 
ATOM      3  N   UNL     1      32.262 -12.947 -23.740  0.00  0.00    -0.169 NA
ATOM      4  N   UNL     1      34.381 -16.952 -22.902  0.00  0.00    -0.229 NA
ATOM      5  C   UNL     1      33.067 -14.597 -22.393  0.00  0.00    +0.088 A 
ATOM      6  C   UNL     1      33.352 -14.958 -23.704  0.00  0.00    +0.052 A 
ATOM      7  C   UNL     1      32.831 -13.902 -24.481  0.00  0.00    +0.082 A 
ATOM      8  C   UNL     1      33.420 -15.383 -21.302  0.00  0.00    +0.053 C 
ATOM      9  C   UNL     1      34.079 -16.555 -21.641  0.00  0.00    +0.130 C 
ATOM     10  C   UNL     1      34.020 -16.159 -23.941  0.00  0.00    +0.103 C 
ATOM     11  C   UNL     1      32.855 -13.765 -25.947  0.00  0.00    +0.054 C 
ATOM     12  H   UNL     1      34.251 -17.119 -19.646  0.00  0.00    +0.148 HD
ENDROOT
BRANCH   1  13
ATOM     13  C   UNL     1      31.934 -12.638 -21.416  0.00  0.00    +0.082 C 
ATOM     14  C   UNL     1      31.157 -10.528 -20.531  0.00  0.00    -0.020 C 
ATOM     15  C   UNL     1      31.642 -11.286 -21.597  0.00  0.00    +0.015 C 
ATOM     16  C   UNL     1      31.741 -13.232 -20.170  0.00  0.00    +0.019 C 
ATOM     17  C   UNL     1      30.963 -11.123 -19.284  0.00  0.00    -0.004 C 
ATOM     18  C   UNL     1      31.254 -12.475 -19.103  0.00  0.00    +0.001 C 
BRANCH  14  19
ATOM     19  C   UNL     1      30.846  -9.083 -20.723  0.00  0.00    +0.036 C 
BRANCH  19  20
ATOM     20  C   UNL     1      31.042  -8.270 -19.438  0.00  0.00    +0.089 C 
BRANCH  20  23
ATOM     21  O   UNL     1      32.324  -6.341 -18.715  0.00  0.00    -0.275 OA
ATOM     22  N   UNL     1      32.551  -7.076 -20.883  0.00  0.00    -0.329 N 
ATOM     23  C   UNL     1      32.027  -7.129 -19.608  0.00  0.00    +0.220 C 
ATOM     24  H   UNL     1      33.203  -6.377 -21.117  0.00  0.00    +0.145 HD
ATOM     25  H   UNL     1      32.272  -7.737 -21.557  0.00  0.00    +0.145 HD
ENDBRANCH  20  23
ENDBRANCH  19  20
ENDBRANCH  14  19
ENDBRANCH   1  13
BRANCH   2  26
ATOM     26  C   UNL     1      35.147 -18.633 -20.766  0.00  0.00    +0.093 C 
ATOM     27  C   UNL     1      36.630 -18.450 -20.449  0.00  0.00    +0.026 C 
BRANCH  26  28
ATOM     28  C   UNL     1      34.498 -19.728 -19.947  0.00  0.00    -0.005 C 
ATOM     29  C   UNL     1      33.109 -19.855 -19.927  0.00  0.00    -0.003 C 
ATOM     30  C   UNL     1      35.289 -20.610 -19.212  0.00  0.00    -0.003 C 
ATOM     31  C   UNL     1      32.511 -20.863 -19.172  0.00  0.00    -0.000 C 
ATOM     32  C   UNL     1      34.691 -21.619 -18.456  0.00  0.00    -0.000 C 
ATOM     33  C   UNL     1      33.302 -21.746 -18.437  0.00  0.00    -0.000 C 
ENDBRANCH  26  28
ENDBRANCH   2  26
TORSDOF 6
ENDMDL
MODEL 2
REMARK VINA RESULT:     -11.8      7.885     13.153
REMARK  Name = 24941249
REMARK  6 active torsions:
REMARK  status: ('A' for Active; 'I' for Inactive)
REMARK    1  A    between atoms: N_1  and  C_13
REMARK    2  A    between atoms: N_2  and  C_26
REMARK    3  A    between atoms: C_14  and  C_19
REMARK    4  A    between atoms: C_19  and  C_20
REMARK    5  A    between atoms: C_20  and  C_23
REMARK    6  A    between atoms: C_26  and  C_28
REMARK                            x       y       z     vdW  Elec       q    Type
REMARK                         _______ _______ _______ _____ _____    ______ ____
ROOT
ATOM      1  N   UNL     1      32.790 -23.926 -13.116  0.00  0.00    -0.230 N 
ATOM      2  N   UNL     1      33.610 -21.989 -17.527  0.00  0.00    -0.316 N 
ATOM      3  N   UNL     1      31.683 -24.345 -12.479  0.00  0.00    -0.169 NA
ATOM      4  N   UNL     1      31.452 -22.617 -16.744  0.00  0.00    -0.229 NA
ATOM      5  C   UNL     1      32.563 -23.439 -14.374  0.00  0.00    +0.088 A 
ATOM      6  C   UNL     1      31.192 -23.553 -14.569  0.00  0.00    +0.052 A 
ATOM      7  C   UNL     1      30.712 -24.116 -13.367  0.00  0.00    +0.082 A 
ATOM      8  C   UNL     1      33.420 -22.920 -15.337  0.00  0.00    +0.053 C 
ATOM      9  C   UNL     1      32.783 -22.528 -16.505  0.00  0.00    +0.130 C 
ATOM     10  C   UNL     1      30.647 -23.129 -15.780  0.00  0.00    +0.103 C 
ATOM     11  C   UNL     1      29.321 -24.455 -13.025  0.00  0.00    +0.054 C 
ATOM     12  H   UNL     1      34.578 -21.919 -17.363  0.00  0.00    +0.148 HD
ENDROOT
BRANCH   1  13
ATOM     13  C   UNL     1      34.027 -24.016 -12.477  0.00  0.00    +0.082 C 
ATOM     14  C   UNL     1      36.226 -25.003 -12.303  0.00  0.00    -0.020 C 
ATOM     15  C   UNL     1      34.989 -24.913 -12.942  0.00  0.00    +0.015 C 
ATOM     16  C   UNL     1      34.302 -23.209 -11.373  0.00  0.00    +0.019 C 
ATOM     17  C   UNL     1      36.501 -24.196 -11.199  0.00  0.00    -0.004 C 
ATOM     18  C   UNL     1      35.540 -23.298 -10.734  0.00  0.00    +0.001 C 
BRANCH  14  19
ATOM     19  C   UNL     1      37.254 -25.963 -12.799  0.00  0.00    +0.036 C 
BRANCH  19  20
ATOM     20  C   UNL     1      38.625 -25.301 -12.983  0.00  0.00    +0.089 C 
BRANCH  20  23
ATOM     21  O   UNL     1      39.693 -25.815 -15.100  0.00  0.00    -0.275 OA
ATOM     22  N   UNL     1      38.396 -23.923 -14.941  0.00  0.00    -0.329 N 
ATOM     23  C   UNL     1      38.975 -25.069 -14.440  0.00  0.00    +0.220 C 
ATOM     24  H   UNL     1      38.549 -23.664 -15.878  0.00  0.00    +0.145 HD
ATOM     25  H   UNL     1      37.829 -23.364 -14.362  0.00  0.00    +0.145 HD
ENDBRANCH  20  23
ENDBRANCH  19  20
ENDBRANCH  14  19
ENDBRANCH   1  13
BRANCH   2  26
ATOM     26  C   UNL     1      33.093 -21.548 -18.779  0.00  0.00    +0.093 C 
ATOM     27  C   UNL     1      31.675 -21.014 -18.582  0.00  0.00    +0.026 C 
BRANCH  26  28
ATOM     28  C   UNL     1      34.026 -20.531 -19.401  0.00  0.00    -0.005 C 
ATOM     29  C   UNL     1      33.528 -19.582 -20.294  0.00  0.00    -0.003 C 
ATOM     30  C   UNL     1      35.383 -20.542 -19.080  0.00  0.00    -0.003 C 
ATOM     31  C   UNL     1      34.388 -18.645 -20.867  0.00  0.00    -0.000 C 
ATOM     32  C   UNL     1      36.243 -19.606 -19.653  0.00  0.00    -0.000 C 
ATOM     33  C   UNL     1      35.745 -18.657 -20.547  0.00  0.00    -0.000 C 
ENDBRANCH  26  28
ENDBRANCH   2  26
TORSDOF 6
ENDMDL
MODEL 3
REMARK VINA RESULT:     -10.4      5.801     10.433
REMARK  Name = 24941249
REMARK  6 active torsions:
REMARK  status: ('A' for Active; 'I' for Inactive)
REMARK    1  A    between atoms: N_1  and  C_13
REMARK    2  A    between atoms: N_2  and  C_26
REMARK    3  A    between atoms: C_14  and  C_19
REMARK    4  A    between atoms: C_19  and  C_20
REMARK    5  A    between atoms: C_20  and  C_23
REMARK    6  A    between atoms: C_26  and  C_28
REMARK                            x       y       z     vdW  Elec       q    Type
REMARK                         _______ _______ _______ _____ _____    ______ ____
ROOT
ATOM      1  N   UNL     1      32.473 -22.025 -17.146  0.00  0.00    -0.230 N 
ATOM      2  N   UNL     1      35.526 -24.436 -14.189  0.00  0.00    -0.316 N 
ATOM      3  N   UNL     1      31.138 -21.859 -17.164  0.00  0.00    -0.169 NA
ATOM      4  N   UNL     1      33.166 -24.379 -13.883  0.00  0.00    -0.229 NA
ATOM      5  C   UNL     1      32.927 -22.797 -16.112  0.00  0.00    +0.088 A 
ATOM      6  C   UNL     1      31.790 -23.162 -15.401  0.00  0.00    +0.052 A 
ATOM      7  C   UNL     1      30.727 -22.553 -16.100  0.00  0.00    +0.082 A 
ATOM      8  C   UNL     1      34.206 -23.200 -15.746  0.00  0.00    +0.053 C 
ATOM      9  C   UNL     1      34.243 -23.995 -14.611  0.00  0.00    +0.130 C 
ATOM     10  C   UNL     1      31.934 -23.967 -14.270  0.00  0.00    +0.103 C 
ATOM     11  C   UNL     1      29.291 -22.609 -15.781  0.00  0.00    +0.054 C 
ATOM     12  H   UNL     1      36.314 -24.165 -14.711  0.00  0.00    +0.148 HD
ENDROOT
BRANCH   1  13
ATOM     13  C   UNL     1      33.254 -21.426 -18.134  0.00  0.00    +0.082 C 
ATOM     14  C   UNL     1      33.433 -20.054 -20.115  0.00  0.00    -0.020 C 
ATOM     15  C   UNL     1      32.651 -20.654 -19.127  0.00  0.00    +0.015 C 
ATOM     16  C   UNL     1      34.638 -21.597 -18.128  0.00  0.00    +0.019 C 
ATOM     17  C   UNL     1      34.817 -20.226 -20.109  0.00  0.00    -0.004 C 
ATOM     18  C   UNL     1      35.420 -20.997 -19.115  0.00  0.00    +0.001 C 
BRANCH  14  19
ATOM     19  C   UNL     1      32.789 -19.230 -21.178  0.00  0.00    +0.036 C 
BRANCH  19  20
ATOM     20  C   UNL     1      33.791 -18.772 -22.245  0.00  0.00    +0.089 C 
BRANCH  20  23
ATOM     21  O   UNL     1      34.321 -16.776 -20.972  0.00  0.00    -0.275 OA
ATOM     22  N   UNL     1      34.505 -16.713 -23.264  0.00  0.00    -0.329 N 
ATOM     23  C   UNL     1      34.227 -17.331 -22.063  0.00  0.00    +0.220 C 
ATOM     24  H   UNL     1      34.799 -15.774 -23.276  0.00  0.00    +0.145 HD
ATOM     25  H   UNL     1      34.410 -17.212 -24.107  0.00  0.00    +0.145 HD
ENDBRANCH  20  23
ENDBRANCH  19  20
ENDBRANCH  14  19
ENDBRANCH   1  13
BRANCH   2  26
ATOM     26  C   UNL     1      35.715 -25.257 -13.039  0.00  0.00    +0.093 C 
ATOM     27  C   UNL     1      37.000 -26.067 -13.200  0.00  0.00    +0.026 C 
BRANCH  26  28
ATOM     28  C   UNL     1      35.702 -24.410 -11.785  0.00  0.00    -0.005 C 
ATOM     29  C   UNL     1      34.928 -24.797 -10.690  0.00  0.00    -0.003 C 
ATOM     30  C   UNL     1      36.464 -23.244 -11.723  0.00  0.00    -0.003 C 
ATOM     31  C   UNL     1      34.916 -24.016  -9.534  0.00  0.00    -0.000 C 
ATOM     32  C   UNL     1      36.452 -22.464 -10.567  0.00  0.00    -0.000 C 
ATOM     33  C   UNL     1      35.679 -22.850  -9.472  0.00  0.00    -0.000 C 
ENDBRANCH  26  28
ENDBRANCH   2  26
TORSDOF 6
ENDMDL
MODEL 4
REMARK VINA RESULT:     -10.2      7.145     11.694
REMARK  Name = 24941249
REMARK  6 active torsions:
REMARK  status: ('A' for Active; 'I' for Inactive)
REMARK    1  A    between atoms: N_1  and  C_13
REMARK    2  A    between atoms: N_2  and  C_26
REMARK    3  A    between atoms: C_14  and  C_19
REMARK    4  A    between atoms: C_19  and  C_20
REMARK    5  A    between atoms: C_20  and  C_23
REMARK    6  A    between atoms: C_26  and  C_28
REMARK                            x       y       z     vdW  Elec       q    Type
REMARK                         _______ _______ _______ _____ _____    ______ ____
ROOT
ATOM      1  N   UNL     1      32.944 -23.471 -13.801  0.00  0.00    -0.230 N 
ATOM      2  N   UNL     1      34.370 -21.447 -18.014  0.00  0.00    -0.316 N 
ATOM      3  N   UNL     1      33.592 -23.830 -12.680  0.00  0.00    -0.169 NA
ATOM      4  N   UNL     1      35.855 -21.944 -16.222  0.00  0.00    -0.229 NA
ATOM      5  C   UNL     1      33.749 -22.925 -14.763  0.00  0.00    +0.088 A 
ATOM      6  C   UNL     1      35.027 -22.932 -14.219  0.00  0.00    +0.052 A 
ATOM      7  C   UNL     1      34.860 -23.500 -12.938  0.00  0.00    +0.082 A 
ATOM      8  C   UNL     1      33.475 -22.437 -16.036  0.00  0.00    +0.053 C 
ATOM      9  C   UNL     1      34.590 -21.959 -16.708  0.00  0.00    +0.130 C 
ATOM     10  C   UNL     1      36.084 -22.428 -14.977  0.00  0.00    +0.103 C 
ATOM     11  C   UNL     1      35.896 -23.748 -11.921  0.00  0.00    +0.054 C 
ATOM     12  H   UNL     1      33.455 -21.455 -18.377  0.00  0.00    +0.148 HD
ENDROOT
BRANCH   1  13
ATOM     13  C   UNL     1      31.566 -23.671 -13.894  0.00  0.00    +0.082 C 
ATOM     14  C   UNL     1      29.424 -23.078 -14.843  0.00  0.00    -0.020 C 
ATOM     15  C   UNL     1      30.802 -22.878 -14.751  0.00  0.00    +0.015 C 
ATOM     16  C   UNL     1      30.953 -24.664 -13.130  0.00  0.00    +0.019 C 
ATOM     17  C   UNL     1      28.811 -24.071 -14.079  0.00  0.00    -0.004 C 
ATOM     18  C   UNL     1      29.575 -24.864 -13.222  0.00  0.00    +0.001 C 
BRANCH  14  19
ATOM     19  C   UNL     1      28.607 -22.231 -15.758  0.00  0.00    +0.036 C 
BRANCH  19  20
ATOM     20  C   UNL     1      27.287 -22.904 -16.148  0.00  0.00    +0.089 C 
BRANCH  20  23
ATOM     21  O   UNL     1      25.569 -22.067 -14.653  0.00  0.00    -0.275 OA
ATOM     22  N   UNL     1      25.592 -21.341 -16.835  0.00  0.00    -0.329 N 
ATOM     23  C   UNL     1      26.071 -22.078 -15.773  0.00  0.00    +0.220 C 
ATOM     24  H   UNL     1      24.804 -20.763 -16.716  0.00  0.00    +0.145 HD
ATOM     25  H   UNL     1      26.038 -21.393 -17.711  0.00  0.00    +0.145 HD
ENDBRANCH  20  23
ENDBRANCH  19  20
ENDBRANCH  14  19
ENDBRANCH   1  13
BRANCH   2  26
ATOM     26  C   UNL     1      35.422 -20.923 -18.820  0.00  0.00    +0.093 C 
ATOM     27  C   UNL     1      36.177 -22.075 -19.481  0.00  0.00    +0.026 C 
BRANCH  26  28
ATOM     28  C   UNL     1      34.870 -19.927 -19.817  0.00  0.00    -0.005 C 
ATOM     29  C   UNL     1      35.693 -18.925 -20.330  0.00  0.00    -0.003 C 
ATOM     30  C   UNL     1      33.539 -20.013 -20.224  0.00  0.00    -0.003 C 
ATOM     31  C   UNL     1      35.185 -18.007 -21.249  0.00  0.00    -0.000 C 
ATOM     32  C   UNL     1      33.030 -19.095 -21.143  0.00  0.00    -0.000 C 
ATOM     33  C   UNL     1      33.853 -18.092 -21.656  0.00  0.00    -0.000 C 
ENDBRANCH  26  28
ENDBRANCH   2  26
TORSDOF 6
ENDMDL
MODEL 5
REMARK VINA RESULT:     -10.1      4.582     10.633
REMARK  Name = 24941249
REMARK  6 active torsions:
REMARK  status: ('A' for Active; 'I' for Inactive)
REMARK    1  A    between atoms: N_1  and  C_13
REMARK    2  A    between atoms: N_2  and  C_26
REMARK    3  A    between atoms: C_14  and  C_19
REMARK    4  A    between atoms: C_19  and  C_20
REMARK    5  A    between atoms: C_20  and  C_23
REMARK    6  A    between atoms: C_26  and  C_28
REMARK                            x       y       z     vdW  Elec       q    Type
REMARK                         _______ _______ _______ _____ _____    ______ ____
ROOT
ATOM      1  N   UNL     1      31.798 -11.600 -21.528  0.00  0.00    -0.230 N 
ATOM      2  N   UNL     1      32.962  -7.807 -24.380  0.00  0.00    -0.316 N 
ATOM      3  N   UNL     1      31.093 -11.722 -20.389  0.00  0.00    -0.169 NA
ATOM      4  N   UNL     1      31.664  -7.613 -22.395  0.00  0.00    -0.229 NA
ATOM      5  C   UNL     1      31.879 -10.320 -22.002  0.00  0.00    +0.088 A 
ATOM      6  C   UNL     1      31.167  -9.547 -21.094  0.00  0.00    +0.052 A 
ATOM      7  C   UNL     1      30.711 -10.469 -20.129  0.00  0.00    +0.082 A 
ATOM      8  C   UNL     1      32.502  -9.783 -23.124  0.00  0.00    +0.053 C 
ATOM      9  C   UNL     1      32.347  -8.411 -23.251  0.00  0.00    +0.130 C 
ATOM     10  C   UNL     1      31.070  -8.173 -21.312  0.00  0.00    +0.103 C 
ATOM     11  C   UNL     1      29.900 -10.192 -18.932  0.00  0.00    +0.054 C 
ATOM     12  H   UNL     1      33.462  -8.377 -25.008  0.00  0.00    +0.148 HD
ENDROOT
BRANCH   1  13
ATOM     13  C   UNL     1      32.364 -12.735 -22.111  0.00  0.00    +0.082 C 
ATOM     14  C   UNL     1      33.548 -14.830 -21.894  0.00  0.00    -0.020 C 
ATOM     15  C   UNL     1      32.982 -13.696 -21.311  0.00  0.00    +0.015 C 
ATOM     16  C   UNL     1      32.310 -12.908 -23.494  0.00  0.00    +0.019 C 
ATOM     17  C   UNL     1      33.494 -15.003 -23.277  0.00  0.00    -0.004 C 
ATOM     18  C   UNL     1      32.875 -14.043 -24.077  0.00  0.00    +0.001 C 
BRANCH  14  19
ATOM     19  C   UNL     1      34.210 -15.856 -21.040  0.00  0.00    +0.036 C 
BRANCH  19  20
ATOM     20  C   UNL     1      34.558 -17.128 -21.823  0.00  0.00    +0.089 C 
BRANCH  20  23
ATOM     21  O   UNL     1      34.906 -18.776 -20.078  0.00  0.00    -0.275 OA
ATOM     22  N   UNL     1      36.676 -18.199 -21.428  0.00  0.00    -0.329 N 
ATOM     23  C   UNL     1      35.365 -18.120 -21.007  0.00  0.00    +0.220 C 
ATOM     24  H   UNL     1      37.300 -18.810 -20.976  0.00  0.00    +0.145 HD
ATOM     25  H   UNL     1      36.985 -17.645 -22.180  0.00  0.00    +0.145 HD
ENDBRANCH  20  23
ENDBRANCH  19  20
ENDBRANCH  14  19
ENDBRANCH   1  13
BRANCH   2  26
ATOM     26  C   UNL     1      32.884  -6.408 -24.639  0.00  0.00    +0.093 C 
ATOM     27  C   UNL     1      34.143  -5.723 -24.110  0.00  0.00    +0.026 C 
BRANCH  26  28
ATOM     28  C   UNL     1      32.652  -6.161 -26.114  0.00  0.00    -0.005 C 
ATOM     29  C   UNL     1      31.363  -6.237 -26.640  0.00  0.00    -0.003 C 
ATOM     30  C   UNL     1      33.728  -5.857 -26.947  0.00  0.00    -0.003 C 
ATOM     31  C   UNL     1      31.149  -6.010 -27.999  0.00  0.00    -0.000 C 
ATOM     32  C   UNL     1      33.515  -5.630 -28.307  0.00  0.00    -0.000 C 
ATOM     33  C   UNL     1      32.225  -5.706 -28.833  0.00  0.00    -0.000 C 
ENDBRANCH  26  28
ENDBRANCH   2  26
TORSDOF 6
ENDMDL
MODEL 6
REMARK VINA RESULT:      -9.5      7.079     10.861
REMARK  Name = 24941249
REMARK  6 active torsions:
REMARK  status: ('A' for Active; 'I' for Inactive)
REMARK    1  A    between atoms: N_1  and  C_13
REMARK    2  A    between atoms: N_2  and  C_26
REMARK    3  A    between atoms: C_14  and  C_19
REMARK    4  A    between atoms: C_19  and  C_20
REMARK    5  A    between atoms: C_20  and  C_23
REMARK    6  A    between atoms: C_26  and  C_28
REMARK                            x       y       z     vdW  Elec       q    Type
REMARK                         _______ _______ _______ _____ _____    ______ ____
ROOT
ATOM      1  N   UNL     1      31.630 -22.176 -16.734  0.00  0.00    -0.230 N 
ATOM      2  N   UNL     1      35.305 -24.350 -14.359  0.00  0.00    -0.316 N 
ATOM      3  N   UNL     1      30.301 -22.122 -16.536  0.00  0.00    -0.169 NA
ATOM      4  N   UNL     1      33.029 -24.494 -13.678  0.00  0.00    -0.229 NA
ATOM      5  C   UNL     1      32.306 -22.917 -15.804  0.00  0.00    +0.088 A 
ATOM      6  C   UNL     1      31.332 -23.382 -14.929  0.00  0.00    +0.052 A 
ATOM      7  C   UNL     1      30.125 -22.858 -15.436  0.00  0.00    +0.082 A 
ATOM      8  C   UNL     1      33.656 -23.214 -15.657  0.00  0.00    +0.053 C 
ATOM      9  C   UNL     1      33.940 -24.014 -14.560  0.00  0.00    +0.130 C 
ATOM     10  C   UNL     1      31.721 -24.182 -13.855  0.00  0.00    +0.103 C 
ATOM     11  C   UNL     1      28.767 -23.037 -14.893  0.00  0.00    +0.054 C 
ATOM     12  H   UNL     1      35.975 -24.009 -14.994  0.00  0.00    +0.148 HD
ENDROOT
BRANCH   1  13
ATOM     13  C   UNL     1      32.191 -21.503 -17.821  0.00  0.00    +0.082 C 
ATOM     14  C   UNL     1      34.138 -20.778 -19.054  0.00  0.00    -0.020 C 
ATOM     15  C   UNL     1      33.577 -21.450 -17.967  0.00  0.00    +0.015 C 
ATOM     16  C   UNL     1      31.366 -20.884 -18.760  0.00  0.00    +0.019 C 
ATOM     17  C   UNL     1      33.313 -20.159 -19.993  0.00  0.00    -0.004 C 
ATOM     18  C   UNL     1      31.927 -20.213 -19.846  0.00  0.00    +0.001 C 
BRANCH  14  19
ATOM     19  C   UNL     1      35.620 -20.720 -19.210  0.00  0.00    +0.036 C 
BRANCH  19  20
ATOM     20  C   UNL     1      36.040 -20.000 -20.497  0.00  0.00    +0.089 C 
BRANCH  20  23
ATOM     21  O   UNL     1      36.819 -18.157 -19.125  0.00  0.00    -0.275 OA
ATOM     22  N   UNL     1      36.779 -17.900 -21.410  0.00  0.00    -0.329 N 
ATOM     23  C   UNL     1      36.582 -18.606 -20.242  0.00  0.00    +0.220 C 
ATOM     24  H   UNL     1      37.128 -16.981 -21.375  0.00  0.00    +0.145 HD
ATOM     25  H   UNL     1      36.569 -18.315 -22.277  0.00  0.00    +0.145 HD
ENDBRANCH  20  23
ENDBRANCH  19  20
ENDBRANCH  14  19
ENDBRANCH   1  13
BRANCH   2  26
ATOM     26  C   UNL     1      35.742 -25.163 -13.273  0.00  0.00    +0.093 C 
ATOM     27  C   UNL     1      37.110 -25.759 -13.604  0.00  0.00    +0.026 C 
BRANCH  26  28
ATOM     28  C   UNL     1      35.741 -24.364 -11.988  0.00  0.00    -0.005 C 
ATOM     29  C   UNL     1      36.471 -23.178 -11.903  0.00  0.00    -0.003 C 
ATOM     30  C   UNL     1      35.009 -24.812 -10.889  0.00  0.00    -0.003 C 
ATOM     31  C   UNL     1      36.470 -22.442 -10.718  0.00  0.00    -0.000 C 
ATOM     32  C   UNL     1      35.008 -24.076  -9.704  0.00  0.00    -0.000 C 
ATOM     33  C   UNL     1      35.739 -22.890  -9.619  0.00  0.00    -0.000 C 
ENDBRANCH  26  28
ENDBRANCH   2  26
TORSDOF 6
ENDMDL
MODEL 7
REMARK VINA RESULT:      -9.3      4.732     10.911
REMARK  Name = 24941249
REMARK  6 active torsions:
REMARK  status: ('A' for Active; 'I' for Inactive)
REMARK    1  A    between atoms: N_1  and  C_13
REMARK    2  A    between atoms: N_2  and  C_26
REMARK    3  A    between atoms: C_14  and  C_19
REMARK    4  A    between atoms: C_19  and  C_20
REMARK    5  A    between atoms: C_20  and  C_23
REMARK    6  A    between atoms: C_26  and  C_28
REMARK                            x       y       z     vdW  Elec       q    Type
REMARK                         _______ _______ _______ _____ _____    ______ ____
ROOT
ATOM      1  N   UNL     1      31.353  -8.882 -20.443  0.00  0.00    -0.230 N 
ATOM      2  N   UNL     1      32.808  -6.722 -24.577  0.00  0.00    -0.316 N 
ATOM      3  N   UNL     1      30.935  -8.418 -19.252  0.00  0.00    -0.169 NA
ATOM      4  N   UNL     1      32.126  -5.526 -22.636  0.00  0.00    -0.229 NA
ATOM      5  C   UNL     1      31.671  -7.905 -21.345  0.00  0.00    +0.088 A 
ATOM      6  C   UNL     1      31.438  -6.705 -20.683  0.00  0.00    +0.052 A 
ATOM      7  C   UNL     1      30.988  -7.093 -19.403  0.00  0.00    +0.082 A 
ATOM      8  C   UNL     1      32.132  -7.964 -22.655  0.00  0.00    +0.053 C 
ATOM      9  C   UNL     1      32.337  -6.723 -23.237  0.00  0.00    +0.130 C 
ATOM     10  C   UNL     1      31.675  -5.508 -21.357  0.00  0.00    +0.103 C 
ATOM     11  C   UNL     1      30.594  -6.219 -18.285  0.00  0.00    +0.054 C 
ATOM     12  H   UNL     1      32.966  -7.585 -25.023  0.00  0.00    +0.148 HD
ENDROOT
BRANCH   1  13
ATOM     13  C   UNL     1      31.427 -10.259 -20.657  0.00  0.00    +0.082 C 
ATOM     14  C   UNL     1      32.113 -12.131 -22.023  0.00  0.00    -0.020 C 
ATOM     15  C   UNL     1      32.039 -10.754 -21.808  0.00  0.00    +0.015 C 
ATOM     16  C   UNL     1      30.889 -11.141 -19.719  0.00  0.00    +0.019 C 
ATOM     17  C   UNL     1      31.575 -13.012 -21.085  0.00  0.00    -0.004 C 
ATOM     18  C   UNL     1      30.964 -12.517 -19.933  0.00  0.00    +0.001 C 
BRANCH  14  19
ATOM     19  C   UNL     1      32.766 -12.660 -23.254  0.00  0.00    +0.036 C 
BRANCH  19  20
ATOM     20  C   UNL     1      33.060 -14.161 -23.156  0.00  0.00    +0.089 C 
BRANCH  20  23
ATOM     21  O   UNL     1      33.712 -15.799 -24.823  0.00  0.00    -0.275 OA
ATOM     22  N   UNL     1      32.009 -14.333 -25.313  0.00  0.00    -0.329 N 
ATOM     23  C   UNL     1      32.986 -14.865 -24.498  0.00  0.00    +0.220 C 
ATOM     24  H   UNL     1      31.864 -14.706 -26.212  0.00  0.00    +0.145 HD
ATOM     25  H   UNL     1      31.458 -13.582 -24.995  0.00  0.00    +0.145 HD
ENDBRANCH  20  23
ENDBRANCH  19  20
ENDBRANCH  14  19
ENDBRANCH   1  13
BRANCH   2  26
ATOM     26  C   UNL     1      33.061  -5.521 -25.301  0.00  0.00    +0.093 C 
ATOM     27  C   UNL     1      34.516  -5.101 -25.094  0.00  0.00    +0.026 C 
BRANCH  26  28
ATOM     28  C   UNL     1      32.700  -5.703 -26.759  0.00  0.00    -0.005 C 
ATOM     29  C   UNL     1      31.367  -5.874 -27.131  0.00  0.00    -0.003 C 
ATOM     30  C   UNL     1      33.700  -5.698 -27.731  0.00  0.00    -0.003 C 
ATOM     31  C   UNL     1      31.034  -6.043 -28.475  0.00  0.00    -0.000 C 
ATOM     32  C   UNL     1      33.367  -5.866 -29.075  0.00  0.00    -0.000 C 
ATOM     33  C   UNL     1      32.034  -6.038 -29.447  0.00  0.00    -0.000 C 
ENDBRANCH  26  28
ENDBRANCH   2  26
TORSDOF 6
ENDMDL
