MODEL 1
REMARK VINA RESULT:     -11.8      0.000      0.000
REMARK  Name = 42628063
REMARK  6 active torsions:
REMARK  status: ('A' for Active; 'I' for Inactive)
REMARK    1  A    between atoms: C_1  and  N_3
REMARK    2  A    between atoms: C_1  and  C_21
REMARK    3  A    between atoms: C_4  and  N_10
REMARK    4  A    between atoms: C_11  and  C_15
REMARK    5  A    between atoms: N_20  and  C_24
REMARK    6  A    between atoms: C_27  and  N_31
REMARK                            x       y       z     vdW  Elec       q    Type
REMARK                         _______ _______ _______ _____ _____    ______ ____
ROOT
ATOM      1  C   UNL     1      34.513 -21.052 -19.668  0.00  0.00    +0.010 C 
ENDROOT
BRANCH   1   3
ATOM      2  F   UNL     1      32.356 -22.234 -15.927  0.00  0.00    -0.238 F 
ATOM      3  N   UNL     1      34.160 -21.259 -18.272  0.00  0.00    +0.396 N 
ATOM      4  C   UNL     1      34.682 -22.003 -16.140  0.00  0.00    +0.082 C 
ATOM      5  C   UNL     1      33.425 -22.737 -16.600  0.00  0.00    +0.156 C 
ATOM      6  C   UNL     1      35.329 -21.520 -17.432  0.00  0.00    -0.054 C 
ATOM      7  C   UNL     1      33.282 -22.419 -18.083  0.00  0.00    -0.039 C 
ATOM      8  H   UNL     1      33.694 -20.393 -18.004  0.00  0.00    -0.079 HD
BRANCH   4  10
ATOM      9  O   UNL     1      34.255 -22.940 -13.460  0.00  0.00    -0.270 OA
ATOM     10  N   UNL     1      35.566 -22.834 -15.371  0.00  0.00    -0.302 N 
ATOM     11  C   UNL     1      35.275 -23.241 -14.073  0.00  0.00    +0.252 C 
ATOM     12  H   UNL     1      36.412 -23.129 -15.779  0.00  0.00    +0.150 HD
BRANCH  11  15
ATOM     13 CL   UNL     1      39.874 -26.128 -13.022  0.00  0.00    -0.075 Cl
ATOM     14  S   UNL     1      37.740 -24.470 -14.250  0.00  0.00    -0.071 S 
ATOM     15  C   UNL     1      36.304 -24.079 -13.404  0.00  0.00    +0.084 C 
ATOM     16  C   UNL     1      36.287 -24.619 -12.137  0.00  0.00    +0.012 C 
ATOM     17  C   UNL     1      37.468 -25.366 -11.857  0.00  0.00    +0.019 C 
ATOM     18  C   UNL     1      38.343 -25.366 -12.921  0.00  0.00    +0.087 C 
ENDBRANCH  11  15
ENDBRANCH   4  10
ENDBRANCH   1   3
BRANCH   1  21
ATOM     19  O   UNL     1      32.567 -19.655 -19.962  0.00  0.00    -0.277 OA
ATOM     20  N   UNL     1      34.595 -19.057 -20.982  0.00  0.00    -0.284 N 
ATOM     21  C   UNL     1      33.753 -19.852 -20.208  0.00  0.00    +0.205 C 
ATOM     22  H   UNL     1      35.525 -19.366 -21.070  0.00  0.00    +0.155 HD
BRANCH  20  24
ATOM     23  F   UNL     1      33.931 -19.040 -23.689  0.00  0.00    -0.203 F 
ATOM     24  C   UNL     1      34.269 -17.856 -21.657  0.00  0.00    +0.078 C 
ATOM     25  C   UNL     1      33.941 -17.881 -23.013  0.00  0.00    +0.155 C 
ATOM     26  C   UNL     1      34.276 -16.646 -20.964  0.00  0.00    +0.018 C 
ATOM     27  C   UNL     1      33.626 -15.487 -22.982  0.00  0.00    +0.061 C 
ATOM     28  C   UNL     1      33.620 -16.698 -23.675  0.00  0.00    +0.046 C 
ATOM     29  C   UNL     1      33.955 -15.461 -21.627  0.00  0.00    +0.017 C 
BRANCH  27  31
ATOM     30  O   UNL     1      32.412 -15.312 -25.601  0.00  0.00    -0.269 OA
ATOM     31  N   UNL     1      33.293 -14.255 -23.671  0.00  0.00    -0.233 N 
ATOM     32  C   UNL     1      32.735 -14.303 -24.975  0.00  0.00    +0.257 C 
ATOM     33  C   UNL     1      33.495 -13.020 -23.052  0.00  0.00    +0.072 C 
ATOM     34  C   UNL     1      32.463 -12.987 -25.632  0.00  0.00    +0.059 C 
ATOM     35  C   UNL     1      33.213 -11.856 -23.648  0.00  0.00    +0.017 C 
ATOM     36  C   UNL     1      32.688 -11.843 -24.980  0.00  0.00    +0.006 C 
ENDBRANCH  27  31
ENDBRANCH  20  24
ENDBRANCH   1  21
TORSDOF 6
ENDMDL
MODEL 2
REMARK VINA RESULT:     -11.7      3.503      5.918
REMARK  Name = 42628063
REMARK  6 active torsions:
REMARK  status: ('A' for Active; 'I' for Inactive)
REMARK    1  A    between atoms: C_1  and  N_3
REMARK    2  A    between atoms: C_1  and  C_21
REMARK    3  A    between atoms: C_4  and  N_10
REMARK    4  A    between atoms: C_11  and  C_15
REMARK    5  A    between atoms: N_20  and  C_24
REMARK    6  A    between atoms: C_27  and  N_31
REMARK                            x       y       z     vdW  Elec       q    Type
REMARK                         _______ _______ _______ _____ _____    ______ ____
ROOT
ATOM      1  C   UNL     1      33.051 -17.309 -23.790  0.00  0.00    +0.010 C 
ENDROOT
BRANCH   1   3
ATOM      2  F   UNL     1      36.209 -17.893 -20.670  0.00  0.00    -0.238 F 
ATOM      3  N   UNL     1      33.971 -17.911 -22.837  0.00  0.00    +0.396 N 
ATOM      4  C   UNL     1      34.404 -19.340 -21.064  0.00  0.00    +0.082 C 
ATOM      5  C   UNL     1      34.850 -17.938 -20.659  0.00  0.00    +0.156 C 
ATOM      6  C   UNL     1      33.416 -19.106 -22.201  0.00  0.00    -0.054 C 
ATOM      7  C   UNL     1      34.306 -17.005 -21.732  0.00  0.00    -0.039 C 
ATOM      8  H   UNL     1      34.794 -18.134 -23.396  0.00  0.00    -0.079 HD
BRANCH   4  10
ATOM      9  O   UNL     1      35.775 -21.053 -19.213  0.00  0.00    -0.270 OA
ATOM     10  N   UNL     1      33.816 -20.077 -19.980  0.00  0.00    -0.302 N 
ATOM     11  C   UNL     1      34.562 -20.886 -19.130  0.00  0.00    +0.252 C 
ATOM     12  H   UNL     1      32.846 -20.006 -19.833  0.00  0.00    +0.150 HD
BRANCH  11  15
ATOM     13 CL   UNL     1      33.190 -23.465 -14.433  0.00  0.00    -0.075 Cl
ATOM     14  S   UNL     1      34.600 -22.040 -16.623  0.00  0.00    -0.071 S 
ATOM     15  C   UNL     1      33.801 -21.601 -18.073  0.00  0.00    +0.084 C 
ATOM     16  C   UNL     1      32.479 -21.987 -18.072  0.00  0.00    +0.012 C 
ATOM     17  C   UNL     1      32.116 -22.653 -16.866  0.00  0.00    +0.019 C 
ATOM     18  C   UNL     1      33.175 -22.750 -15.990  0.00  0.00    +0.087 C 
ENDBRANCH  11  15
ENDBRANCH   4  10
ENDBRANCH   1   3
BRANCH   1  21
ATOM     19  O   UNL     1      34.559 -15.689 -24.750  0.00  0.00    -0.277 OA
ATOM     20  N   UNL     1      32.617 -14.963 -23.648  0.00  0.00    -0.284 N 
ATOM     21  C   UNL     1      33.522 -15.905 -24.130  0.00  0.00    +0.205 C 
ATOM     22  H   UNL     1      31.831 -15.318 -23.175  0.00  0.00    +0.155 HD
BRANCH  20  24
ATOM     23  F   UNL     1      32.569 -13.695 -26.130  0.00  0.00    -0.203 F 
ATOM     24  C   UNL     1      32.695 -13.555 -23.761  0.00  0.00    +0.078 C 
ATOM     25  C   UNL     1      32.669 -12.950 -25.019  0.00  0.00    +0.155 C 
ATOM     26  C   UNL     1      32.800 -12.770 -22.613  0.00  0.00    +0.018 C 
ATOM     27  C   UNL     1      32.850 -10.778 -23.979  0.00  0.00    +0.061 C 
ATOM     28  C   UNL     1      32.746 -11.563 -25.127  0.00  0.00    +0.046 C 
ATOM     29  C   UNL     1      32.877 -11.381 -22.722  0.00  0.00    +0.017 C 
BRANCH  27  31
ATOM     30  O   UNL     1      35.160  -9.174 -23.304  0.00  0.00    -0.269 OA
ATOM     31  N   UNL     1      32.930  -9.334 -24.092  0.00  0.00    -0.233 N 
ATOM     32  C   UNL     1      34.112  -8.658 -23.689  0.00  0.00    +0.257 C 
ATOM     33  C   UNL     1      31.862  -8.603 -24.615  0.00  0.00    +0.072 C 
ATOM     34  C   UNL     1      34.094  -7.166 -23.795  0.00  0.00    +0.059 C 
ATOM     35  C   UNL     1      31.883  -7.271 -24.731  0.00  0.00    +0.017 C 
ATOM     36  C   UNL     1      33.032  -6.534 -24.300  0.00  0.00    +0.006 C 
ENDBRANCH  27  31
ENDBRANCH  20  24
ENDBRANCH   1  21
TORSDOF 6
ENDMDL
MODEL 3
REMARK VINA RESULT:     -11.6      7.660     14.151
REMARK  Name = 42628063
REMARK  6 active torsions:
REMARK  status: ('A' for Active; 'I' for Inactive)
REMARK    1  A    between atoms: C_1  and  N_3
REMARK    2  A    between atoms: C_1  and  C_21
REMARK    3  A    between atoms: C_4  and  N_10
REMARK    4  A    between atoms: C_11  and  C_15
REMARK    5  A    between atoms: N_20  and  C_24
REMARK    6  A    between atoms: C_27  and  N_31
REMARK                            x       y       z     vdW  Elec       q    Type
REMARK                         _______ _______ _______ _____ _____    ______ ____
ROOT
ATOM      1  C   UNL     1      32.893 -12.358 -24.486  0.00  0.00    +0.010 C 
ENDROOT
BRANCH   1   3
ATOM      2  F   UNL     1      35.308  -8.790 -23.268  0.00  0.00    -0.238 F 
ATOM      3  N   UNL     1      33.347 -11.146 -23.821  0.00  0.00    +0.396 N 
ATOM      4  C   UNL     1      32.976  -8.981 -23.083  0.00  0.00    +0.082 C 
ATOM      5  C   UNL     1      34.184  -8.960 -24.015  0.00  0.00    +0.156 C 
ATOM      6  C   UNL     1      32.240 -10.264 -23.449  0.00  0.00    -0.054 C 
ATOM      7  C   UNL     1      34.220 -10.333 -24.674  0.00  0.00    -0.039 C 
ATOM      8  H   UNL     1      33.844 -11.487 -22.998  0.00  0.00    -0.079 HD
BRANCH   4  10
ATOM      9  O   UNL     1      33.023  -6.628 -21.439  0.00  0.00    -0.270 OA
ATOM     10  N   UNL     1      32.141  -7.820 -23.222  0.00  0.00    -0.302 N 
ATOM     11  C   UNL     1      32.234  -6.721 -22.375  0.00  0.00    +0.252 C 
ATOM     12  H   UNL     1      31.475  -7.802 -23.947  0.00  0.00    +0.150 HD
BRANCH  11  15
ATOM     13 CL   UNL     1      28.725  -3.243 -24.860  0.00  0.00    -0.075 Cl
ATOM     14  S   UNL     1      30.640  -5.416 -24.211  0.00  0.00    -0.071 S 
ATOM     15  C   UNL     1      31.282  -5.611 -22.636  0.00  0.00    +0.084 C 
ATOM     16  C   UNL     1      30.805  -4.660 -21.761  0.00  0.00    +0.012 C 
ATOM     17  C   UNL     1      29.900  -3.758 -22.393  0.00  0.00    +0.019 C 
ATOM     18  C   UNL     1      29.720  -4.055 -23.727  0.00  0.00    +0.087 C 
ENDBRANCH  11  15
ENDBRANCH   4  10
ENDBRANCH   1   3
BRANCH   1  21
ATOM     19  O   UNL     1      31.686 -13.448 -22.704  0.00  0.00    -0.277 OA
ATOM     20  N   UNL     1      33.683 -14.388 -23.503  0.00  0.00    -0.284 N 
ATOM     21  C   UNL     1      32.659 -13.445 -23.450  0.00  0.00    +0.205 C 
ATOM     22  H   UNL     1      34.386 -14.230 -24.172  0.00  0.00    +0.155 HD
BRANCH  20  24
ATOM     23  F   UNL     1      33.967 -14.228 -20.734  0.00  0.00    -0.203 F 
ATOM     24  C   UNL     1      33.829 -15.548 -22.705  0.00  0.00    +0.078 C 
ATOM     25  C   UNL     1      33.969 -15.434 -21.321  0.00  0.00    +0.155 C 
ATOM     26  C   UNL     1      33.833 -16.808 -23.304  0.00  0.00    +0.018 C 
ATOM     27  C   UNL     1      34.116 -17.837 -21.137  0.00  0.00    +0.061 C 
ATOM     28  C   UNL     1      34.113 -16.578 -20.538  0.00  0.00    +0.046 C 
ATOM     29  C   UNL     1      33.976 -17.952 -22.520  0.00  0.00    +0.017 C 
BRANCH  27  31
ATOM     30  O   UNL     1      36.585 -18.738 -19.930  0.00  0.00    -0.269 OA
ATOM     31  N   UNL     1      34.265 -19.027 -20.322  0.00  0.00    -0.233 N 
ATOM     32  C   UNL     1      35.543 -19.384 -19.818  0.00  0.00    +0.257 C 
ATOM     33  C   UNL     1      33.156 -19.816 -20.008  0.00  0.00    +0.072 C 
ATOM     34  C   UNL     1      35.618 -20.651 -19.026  0.00  0.00    +0.059 C 
ATOM     35  C   UNL     1      33.243 -20.927 -19.270  0.00  0.00    +0.017 C 
ATOM     36  C   UNL     1      34.514 -21.358 -18.771  0.00  0.00    +0.006 C 
ENDBRANCH  27  31
ENDBRANCH  20  24
ENDBRANCH   1  21
TORSDOF 6
ENDMDL
MODEL 4
REMARK VINA RESULT:     -11.1      3.578      6.083
REMARK  Name = 42628063
REMARK  6 active torsions:
REMARK  status: ('A' for Active; 'I' for Inactive)
REMARK    1  A    between atoms: C_1  and  N_3
REMARK    2  A    between atoms: C_1  and  C_21
REMARK    3  A    between atoms: C_4  and  N_10
REMARK    4  A    between atoms: C_11  and  C_15
REMARK    5  A    between atoms: N_20  and  C_24
REMARK    6  A    between atoms: C_27  and  N_31
REMARK                            x       y       z     vdW  Elec       q    Type
REMARK                         _______ _______ _______ _____ _____    ______ ____
ROOT
ATOM      1  C   UNL     1      33.355 -16.926 -23.477  0.00  0.00    +0.010 C 
ENDROOT
BRANCH   1   3
ATOM      2  F   UNL     1      36.560 -18.438 -20.741  0.00  0.00    -0.238 F 
ATOM      3  N   UNL     1      34.201 -17.792 -22.669  0.00  0.00    +0.396 N 
ATOM      4  C   UNL     1      34.463 -19.442 -21.063  0.00  0.00    +0.082 C 
ATOM      5  C   UNL     1      35.228 -18.206 -20.598  0.00  0.00    +0.156 C 
ATOM      6  C   UNL     1      33.458 -18.903 -22.074  0.00  0.00    -0.054 C 
ATOM      7  C   UNL     1      34.809 -17.083 -21.537  0.00  0.00    -0.039 C 
ATOM      8  H   UNL     1      34.909 -18.124 -23.323  0.00  0.00    -0.079 HD
BRANCH   4  10
ATOM      9  O   UNL     1      35.729 -21.157 -19.141  0.00  0.00    -0.270 OA
ATOM     10  N   UNL     1      33.822 -20.143 -19.985  0.00  0.00    -0.302 N 
ATOM     11  C   UNL     1      34.519 -20.956 -19.098  0.00  0.00    +0.252 C 
ATOM     12  H   UNL     1      32.850 -20.043 -19.870  0.00  0.00    +0.150 HD
BRANCH  11  15
ATOM     13 CL   UNL     1      32.958 -23.511 -14.448  0.00  0.00    -0.075 Cl
ATOM     14  S   UNL     1      34.471 -22.157 -16.614  0.00  0.00    -0.071 S 
ATOM     15  C   UNL     1      33.707 -21.631 -18.053  0.00  0.00    +0.084 C 
ATOM     16  C   UNL     1      32.359 -21.916 -18.058  0.00  0.00    +0.012 C 
ATOM     17  C   UNL     1      31.948 -22.576 -16.863  0.00  0.00    +0.019 C 
ATOM     18  C   UNL     1      32.997 -22.769 -15.991  0.00  0.00    +0.087 C 
ENDBRANCH  11  15
ENDBRANCH   4  10
ENDBRANCH   1   3
BRANCH   1  21
ATOM     19  O   UNL     1      34.937 -15.161 -23.026  0.00  0.00    -0.277 OA
ATOM     20  N   UNL     1      32.689 -14.631 -23.449  0.00  0.00    -0.284 N 
ATOM     21  C   UNL     1      33.781 -15.480 -23.284  0.00  0.00    +0.205 C 
ATOM     22  H   UNL     1      31.830 -15.062 -23.660  0.00  0.00    +0.155 HD
BRANCH  20  24
ATOM     23  F   UNL     1      32.078 -13.343 -21.054  0.00  0.00    -0.203 F 
ATOM     24  C   UNL     1      32.672 -13.219 -23.351  0.00  0.00    +0.078 C 
ATOM     25  C   UNL     1      32.362 -12.604 -22.137  0.00  0.00    +0.155 C 
ATOM     26  C   UNL     1      32.966 -12.440 -24.471  0.00  0.00    +0.018 C 
ATOM     27  C   UNL     1      32.641 -10.436 -23.162  0.00  0.00    +0.061 C 
ATOM     28  C   UNL     1      32.346 -11.214 -22.043  0.00  0.00    +0.046 C 
ATOM     29  C   UNL     1      32.950 -11.049 -24.376  0.00  0.00    +0.017 C 
BRANCH  27  31
ATOM     30  O   UNL     1      34.957  -8.718 -23.385  0.00  0.00    -0.269 OA
ATOM     31  N   UNL     1      32.624  -8.989 -23.065  0.00  0.00    -0.233 N 
ATOM     32  C   UNL     1      33.839  -8.260 -23.152  0.00  0.00    +0.257 C 
ATOM     33  C   UNL     1      31.418  -8.303 -22.907  0.00  0.00    +0.072 C 
ATOM     34  C   UNL     1      33.738  -6.776 -22.994  0.00  0.00    +0.059 C 
ATOM     35  C   UNL     1      31.350  -6.971 -22.802  0.00  0.00    +0.017 C 
ATOM     36  C   UNL     1      32.549  -6.189 -22.840  0.00  0.00    +0.006 C 
ENDBRANCH  27  31
ENDBRANCH  20  24
ENDBRANCH   1  21
TORSDOF 6
ENDMDL
MODEL 5
REMARK VINA RESULT:     -11.0      5.708     12.330
REMARK  Name = 42628063
REMARK  6 active torsions:
REMARK  status: ('A' for Active; 'I' for Inactive)
REMARK    1  A    between atoms: C_1  and  N_3
REMARK    2  A    between atoms: C_1  and  C_21
REMARK    3  A    between atoms: C_4  and  N_10
REMARK    4  A    between atoms: C_11  and  C_15
REMARK    5  A    between atoms: N_20  and  C_24
REMARK    6  A    between atoms: C_27  and  N_31
REMARK                            x       y       z     vdW  Elec       q    Type
REMARK                         _______ _______ _______ _____ _____    ______ ____
ROOT
ATOM      1  C   UNL     1      34.477 -17.580 -23.010  0.00  0.00    +0.010 C 
ENDROOT
BRANCH   1   3
ATOM      2  F   UNL     1      32.447 -14.476 -20.503  0.00  0.00    -0.238 F 
ATOM      3  N   UNL     1      33.672 -16.446 -22.580  0.00  0.00    +0.396 N 
ATOM      4  C   UNL     1      33.053 -14.220 -22.756  0.00  0.00    +0.082 C 
ATOM      5  C   UNL     1      33.529 -14.465 -21.327  0.00  0.00    +0.156 C 
ATOM      6  C   UNL     1      33.671 -15.358 -23.558  0.00  0.00    -0.054 C 
ATOM      7  C   UNL     1      34.168 -15.847 -21.336  0.00  0.00    -0.039 C 
ATOM      8  H   UNL     1      32.739 -16.838 -22.457  0.00  0.00    -0.079 HD
BRANCH   4  10
ATOM      9  O   UNL     1      31.918 -11.686 -22.027  0.00  0.00    -0.270 OA
ATOM     10  N   UNL     1      33.437 -12.932 -23.261  0.00  0.00    -0.302 N 
ATOM     11  C   UNL     1      32.828 -11.751 -22.849  0.00  0.00    +0.252 C 
ATOM     12  H   UNL     1      34.160 -12.882 -23.926  0.00  0.00    +0.150 HD
BRANCH  11  15
ATOM     13 CL   UNL     1      33.649  -6.429 -24.112  0.00  0.00    -0.075 Cl
ATOM     14  S   UNL     1      32.734  -8.994 -22.930  0.00  0.00    -0.071 S 
ATOM     15  C   UNL     1      33.323 -10.503 -23.485  0.00  0.00    +0.084 C 
ATOM     16  C   UNL     1      34.234 -10.358 -24.508  0.00  0.00    +0.012 C 
ATOM     17  C   UNL     1      34.451  -8.990 -24.842  0.00  0.00    +0.019 C 
ATOM     18  C   UNL     1      33.699  -8.141 -24.059  0.00  0.00    +0.087 C 
ENDBRANCH  11  15
ENDBRANCH   4  10
ENDBRANCH   1   3
BRANCH   1  21
ATOM     19  O   UNL     1      36.108 -18.349 -21.407  0.00  0.00    -0.277 OA
ATOM     20  N   UNL     1      33.873 -19.043 -21.219  0.00  0.00    -0.284 N 
ATOM     21  C   UNL     1      34.943 -18.360 -21.792  0.00  0.00    +0.205 C 
ATOM     22  H   UNL     1      33.000 -18.933 -21.660  0.00  0.00    +0.155 HD
BRANCH  20  24
ATOM     23  F   UNL     1      31.521 -20.010 -20.075  0.00  0.00    -0.203 F 
ATOM     24  C   UNL     1      33.894 -19.876 -20.076  0.00  0.00    +0.078 C 
ATOM     25  C   UNL     1      32.699 -20.344 -19.527  0.00  0.00    +0.155 C 
ATOM     26  C   UNL     1      35.112 -20.231 -19.496  0.00  0.00    +0.018 C 
ATOM     27  C   UNL     1      33.941 -21.520 -17.822  0.00  0.00    +0.061 C 
ATOM     28  C   UNL     1      32.723 -21.165 -18.401  0.00  0.00    +0.046 C 
ATOM     29  C   UNL     1      35.136 -21.053 -18.370  0.00  0.00    +0.017 C 
BRANCH  27  31
ATOM     30  O   UNL     1      36.180 -21.816 -16.016  0.00  0.00    -0.269 OA
ATOM     31  N   UNL     1      33.966 -22.374 -16.650  0.00  0.00    -0.233 N 
ATOM     32  C   UNL     1      35.144 -22.463 -15.864  0.00  0.00    +0.257 C 
ATOM     33  C   UNL     1      32.830 -23.095 -16.274  0.00  0.00    +0.072 C 
ATOM     34  C   UNL     1      35.100 -23.402 -14.701  0.00  0.00    +0.059 C 
ATOM     35  C   UNL     1      32.805 -23.904 -15.210  0.00  0.00    +0.017 C 
ATOM     36  C   UNL     1      33.979 -24.064 -14.405  0.00  0.00    +0.006 C 
ENDBRANCH  27  31
ENDBRANCH  20  24
ENDBRANCH   1  21
TORSDOF 6
ENDMDL
MODEL 6
REMARK VINA RESULT:     -10.9      4.972     12.102
REMARK  Name = 42628063
REMARK  6 active torsions:
REMARK  status: ('A' for Active; 'I' for Inactive)
REMARK    1  A    between atoms: C_1  and  N_3
REMARK    2  A    between atoms: C_1  and  C_21
REMARK    3  A    between atoms: C_4  and  N_10
REMARK    4  A    between atoms: C_11  and  C_15
REMARK    5  A    between atoms: N_20  and  C_24
REMARK    6  A    between atoms: C_27  and  N_31
REMARK                            x       y       z     vdW  Elec       q    Type
REMARK                         _______ _______ _______ _____ _____    ______ ____
ROOT
ATOM      1  C   UNL     1      34.078 -20.152 -20.600  0.00  0.00    +0.010 C 
ENDROOT
BRANCH   1   3
ATOM      2  F   UNL     1      34.869 -16.883 -23.555  0.00  0.00    -0.238 F 
ATOM      3  N   UNL     1      34.424 -18.873 -21.200  0.00  0.00    +0.396 N 
ATOM      4  C   UNL     1      34.204 -16.569 -21.326  0.00  0.00    +0.082 C 
ATOM      5  C   UNL     1      33.852 -17.151 -22.692  0.00  0.00    +0.156 C 
ATOM      6  C   UNL     1      34.031 -17.738 -20.364  0.00  0.00    -0.054 C 
ATOM      7  C   UNL     1      33.751 -18.657 -22.485  0.00  0.00    -0.039 C 
ATOM      8  H   UNL     1      35.436 -18.919 -21.313  0.00  0.00    -0.079 HD
BRANCH   4  10
ATOM      9  O   UNL     1      34.096 -14.027 -22.656  0.00  0.00    -0.270 OA
ATOM     10  N   UNL     1      33.381 -15.447 -20.967  0.00  0.00    -0.302 N 
ATOM     11  C   UNL     1      33.395 -14.249 -21.672  0.00  0.00    +0.252 C 
ATOM     12  H   UNL     1      32.783 -15.530 -20.190  0.00  0.00    +0.150 HD
BRANCH  11  15
ATOM     13 CL   UNL     1      30.549  -9.534 -21.164  0.00  0.00    -0.075 Cl
ATOM     14  S   UNL     1      32.306 -11.745 -22.077  0.00  0.00    -0.071 S 
ATOM     15  C   UNL     1      32.504 -13.177 -21.158  0.00  0.00    +0.084 C 
ATOM     16  C   UNL     1      31.767 -13.151 -19.995  0.00  0.00    +0.012 C 
ATOM     17  C   UNL     1      31.031 -11.939 -19.854  0.00  0.00    +0.019 C 
ATOM     18  C   UNL     1      31.233 -11.085 -20.917  0.00  0.00    +0.087 C 
ENDBRANCH  11  15
ENDBRANCH   4  10
ENDBRANCH   1   3
BRANCH   1  21
ATOM     19  O   UNL     1      35.941 -19.743 -19.123  0.00  0.00    -0.277 OA
ATOM     20  N   UNL     1      34.303 -21.315 -18.524  0.00  0.00    -0.284 N 
ATOM     21  C   UNL     1      34.904 -20.360 -19.341  0.00  0.00    +0.205 C 
ATOM     22  H   UNL     1      33.464 -21.707 -18.857  0.00  0.00    +0.155 HD
BRANCH  20  24
ATOM     23  F   UNL     1      32.612 -22.677 -16.776  0.00  0.00    -0.203 F 
ATOM     24  C   UNL     1      34.759 -21.786 -17.270  0.00  0.00    +0.078 C 
ATOM     25  C   UNL     1      33.886 -22.465 -16.417  0.00  0.00    +0.155 C 
ATOM     26  C   UNL     1      36.082 -21.572 -16.885  0.00  0.00    +0.018 C 
ATOM     27  C   UNL     1      35.661 -22.715 -14.799  0.00  0.00    +0.061 C 
ATOM     28  C   UNL     1      34.338 -22.929 -15.183  0.00  0.00    +0.046 C 
ATOM     29  C   UNL     1      36.533 -22.036 -15.650  0.00  0.00    +0.017 C 
BRANCH  27  31
ATOM     30  O   UNL     1      36.922 -25.276 -14.333  0.00  0.00    -0.269 OA
ATOM     31  N   UNL     1      36.131 -23.197 -13.514  0.00  0.00    -0.233 N 
ATOM     32  C   UNL     1      36.698 -24.493 -13.410  0.00  0.00    +0.257 C 
ATOM     33  C   UNL     1      36.050 -22.386 -12.380  0.00  0.00    +0.072 C 
ATOM     34  C   UNL     1      37.114 -24.930 -12.041  0.00  0.00    +0.059 C 
ATOM     35  C   UNL     1      36.459 -22.787 -11.172  0.00  0.00    +0.017 C 
ATOM     36  C   UNL     1      37.001 -24.102 -11.000  0.00  0.00    +0.006 C 
ENDBRANCH  27  31
ENDBRANCH  20  24
ENDBRANCH   1  21
TORSDOF 6
ENDMDL
MODEL 7
REMARK VINA RESULT:     -10.9      4.842     12.040
REMARK  Name = 42628063
REMARK  6 active torsions:
REMARK  status: ('A' for Active; 'I' for Inactive)
REMARK    1  A    between atoms: C_1  and  N_3
REMARK    2  A    between atoms: C_1  and  C_21
REMARK    3  A    between atoms: C_4  and  N_10
REMARK    4  A    between atoms: C_11  and  C_15
REMARK    5  A    between atoms: N_20  and  C_24
REMARK    6  A    between atoms: C_27  and  N_31
REMARK                            x       y       z     vdW  Elec       q    Type
REMARK                         _______ _______ _______ _____ _____    ______ ____
ROOT
ATOM      1  C   UNL     1      32.978 -20.467 -20.116  0.00  0.00    +0.010 C 
ENDROOT
BRANCH   1   3
ATOM      2  F   UNL     1      36.732 -18.147 -20.869  0.00  0.00    -0.238 F 
ATOM      3  N   UNL     1      33.954 -19.392 -20.213  0.00  0.00    +0.396 N 
ATOM      4  C   UNL     1      34.559 -17.262 -20.897  0.00  0.00    +0.082 C 
ATOM      5  C   UNL     1      35.541 -18.252 -21.516  0.00  0.00    +0.156 C 
ATOM      6  C   UNL     1      33.339 -18.108 -20.552  0.00  0.00    -0.054 C 
ATOM      7  C   UNL     1      34.950 -19.633 -21.262  0.00  0.00    -0.039 C 
ATOM      8  H   UNL     1      34.385 -19.366 -19.290  0.00  0.00    -0.079 HD
BRANCH   4  10
ATOM      9  O   UNL     1      33.514 -14.699 -20.137  0.00  0.00    -0.270 OA
ATOM     10  N   UNL     1      34.230 -16.174 -21.777  0.00  0.00    -0.302 N 
ATOM     11  C   UNL     1      33.727 -14.962 -21.317  0.00  0.00    +0.252 C 
ATOM     12  H   UNL     1      34.368 -16.291 -22.744  0.00  0.00    +0.150 HD
BRANCH  11  15
ATOM     13 CL   UNL     1      32.200 -12.539 -26.049  0.00  0.00    -0.075 Cl
ATOM     14  S   UNL     1      32.864 -14.468 -23.892  0.00  0.00    -0.071 S 
ATOM     15  C   UNL     1      33.414 -13.947 -22.356  0.00  0.00    +0.084 C 
ATOM     16  C   UNL     1      33.499 -12.575 -22.274  0.00  0.00    +0.012 C 
ATOM     17  C   UNL     1      33.108 -11.941 -23.490  0.00  0.00    +0.019 C 
ATOM     18  C   UNL     1      32.739 -12.855 -24.453  0.00  0.00    +0.087 C 
ENDBRANCH  11  15
ENDBRANCH   4  10
ENDBRANCH   1   3
BRANCH   1  21
ATOM     19  O   UNL     1      31.951 -21.216 -18.065  0.00  0.00    -0.277 OA
ATOM     20  N   UNL     1      34.287 -21.280 -18.289  0.00  0.00    -0.284 N 
ATOM     21  C   UNL     1      32.982 -21.027 -18.703  0.00  0.00    +0.205 C 
ATOM     22  H   UNL     1      34.998 -21.072 -18.937  0.00  0.00    +0.155 HD
BRANCH  20  24
ATOM     23  F   UNL     1      36.698 -20.501 -17.126  0.00  0.00    -0.203 F 
ATOM     24  C   UNL     1      34.712 -21.802 -17.044  0.00  0.00    +0.078 C 
ATOM     25  C   UNL     1      35.924 -21.392 -16.488  0.00  0.00    +0.155 C 
ATOM     26  C   UNL     1      33.916 -22.730 -16.371  0.00  0.00    +0.018 C 
ATOM     27  C   UNL     1      35.543 -22.834 -14.589  0.00  0.00    +0.061 C 
ATOM     28  C   UNL     1      36.340 -21.908 -15.262  0.00  0.00    +0.046 C 
ATOM     29  C   UNL     1      34.331 -23.245 -15.144  0.00  0.00    +0.017 C 
BRANCH  27  31
ATOM     30  O   UNL     1      37.507 -24.928 -14.235  0.00  0.00    -0.269 OA
ATOM     31  N   UNL     1      35.976 -23.371 -13.313  0.00  0.00    -0.233 N 
ATOM     32  C   UNL     1      36.920 -24.429 -13.275  0.00  0.00    +0.257 C 
ATOM     33  C   UNL     1      35.486 -22.840 -12.118  0.00  0.00    +0.072 C 
ATOM     34  C   UNL     1      37.276 -24.955 -11.920  0.00  0.00    +0.059 C 
ATOM     35  C   UNL     1      35.845 -23.306 -10.917  0.00  0.00    +0.017 C 
ATOM     36  C   UNL     1      36.763 -24.401 -10.820  0.00  0.00    +0.006 C 
ENDBRANCH  27  31
ENDBRANCH  20  24
ENDBRANCH   1  21
TORSDOF 6
ENDMDL
MODEL 8
REMARK VINA RESULT:     -10.8      5.296     11.523
REMARK  Name = 42628063
REMARK  6 active torsions:
REMARK  status: ('A' for Active; 'I' for Inactive)
REMARK    1  A    between atoms: C_1  and  N_3
REMARK    2  A    between atoms: C_1  and  C_21
REMARK    3  A    between atoms: C_4  and  N_10
REMARK    4  A    between atoms: C_11  and  C_15
REMARK    5  A    between atoms: N_20  and  C_24
REMARK    6  A    between atoms: C_27  and  N_31
REMARK                            x       y       z     vdW  Elec       q    Type
REMARK                         _______ _______ _______ _____ _____    ______ ____
ROOT
ATOM      1  C   UNL     1      35.703 -19.790 -20.737  0.00  0.00    +0.010 C 
ENDROOT
BRANCH   1   3
ATOM      2  F   UNL     1      34.294 -17.186 -24.095  0.00  0.00    -0.238 F 
ATOM      3  N   UNL     1      35.403 -18.637 -21.572  0.00  0.00    +0.396 N 
ATOM      4  C   UNL     1      34.504 -16.520 -21.855  0.00  0.00    +0.082 C 
ATOM      5  C   UNL     1      33.824 -17.457 -22.848  0.00  0.00    +0.156 C 
ATOM      6  C   UNL     1      35.067 -17.449 -20.786  0.00  0.00    -0.054 C 
ATOM      7  C   UNL     1      34.246 -18.863 -22.445  0.00  0.00    -0.039 C 
ATOM      8  H   UNL     1      36.255 -18.496 -22.114  0.00  0.00    -0.079 HD
BRANCH   4  10
ATOM      9  O   UNL     1      33.853 -13.961 -22.982  0.00  0.00    -0.270 OA
ATOM     10  N   UNL     1      33.608 -15.542 -21.302  0.00  0.00    -0.302 N 
ATOM     11  C   UNL     1      33.352 -14.323 -21.921  0.00  0.00    +0.252 C 
ATOM     12  H   UNL     1      33.156 -15.743 -20.452  0.00  0.00    +0.150 HD
BRANCH  11  15
ATOM     13 CL   UNL     1      30.099 -10.037 -20.644  0.00  0.00    -0.075 Cl
ATOM     14  S   UNL     1      31.959 -11.941 -21.957  0.00  0.00    -0.071 S 
ATOM     15  C   UNL     1      32.420 -13.411 -21.210  0.00  0.00    +0.084 C 
ATOM     16  C   UNL     1      31.832 -13.570 -19.975  0.00  0.00    +0.012 C 
ATOM     17  C   UNL     1      30.992 -12.469 -19.636  0.00  0.00    +0.019 C 
ATOM     18  C   UNL     1      30.970 -11.512 -20.627  0.00  0.00    +0.087 C 
ENDBRANCH  11  15
ENDBRANCH   4  10
ENDBRANCH   1   3
BRANCH   1  21
ATOM     19  O   UNL     1      33.427 -19.531 -19.980  0.00  0.00    -0.277 OA
ATOM     20  N   UNL     1      34.837 -21.080 -18.920  0.00  0.00    -0.284 N 
ATOM     21  C   UNL     1      34.508 -20.096 -19.849  0.00  0.00    +0.205 C 
ATOM     22  H   UNL     1      35.757 -21.428 -18.963  0.00  0.00    +0.155 HD
BRANCH  20  24
ATOM     23  F   UNL     1      35.864 -21.945 -16.477  0.00  0.00    -0.203 F 
ATOM     24  C   UNL     1      34.003 -21.638 -17.923  0.00  0.00    +0.078 C 
ATOM     25  C   UNL     1      34.549 -22.062 -16.710  0.00  0.00    +0.155 C 
ATOM     26  C   UNL     1      32.633 -21.766 -18.153  0.00  0.00    +0.018 C 
ATOM     27  C   UNL     1      32.355 -22.738 -15.959  0.00  0.00    +0.061 C 
ATOM     28  C   UNL     1      33.725 -22.611 -15.729  0.00  0.00    +0.046 C 
ATOM     29  C   UNL     1      31.809 -22.315 -17.171  0.00  0.00    +0.017 C 
BRANCH  27  31
ATOM     30  O   UNL     1      29.468 -22.571 -15.914  0.00  0.00    -0.269 OA
ATOM     31  N   UNL     1      31.498 -23.310 -14.938  0.00  0.00    -0.233 N 
ATOM     32  C   UNL     1      30.093 -23.124 -15.009  0.00  0.00    +0.257 C 
ATOM     33  C   UNL     1      32.042 -24.063 -13.895  0.00  0.00    +0.072 C 
ATOM     34  C   UNL     1      29.287 -23.706 -13.891  0.00  0.00    +0.059 C 
ATOM     35  C   UNL     1      31.297 -24.602 -12.925  0.00  0.00    +0.017 C 
ATOM     36  C   UNL     1      29.878 -24.410 -12.923  0.00  0.00    +0.006 C 
ENDBRANCH  27  31
ENDBRANCH  20  24
ENDBRANCH   1  21
TORSDOF 6
ENDMDL
MODEL 9
REMARK VINA RESULT:     -10.6      5.473     11.598
REMARK  Name = 42628063
REMARK  6 active torsions:
REMARK  status: ('A' for Active; 'I' for Inactive)
REMARK    1  A    between atoms: C_1  and  N_3
REMARK    2  A    between atoms: C_1  and  C_21
REMARK    3  A    between atoms: C_4  and  N_10
REMARK    4  A    between atoms: C_11  and  C_15
REMARK    5  A    between atoms: N_20  and  C_24
REMARK    6  A    between atoms: C_27  and  N_31
REMARK                            x       y       z     vdW  Elec       q    Type
REMARK                         _______ _______ _______ _____ _____    ______ ____
ROOT
ATOM      1  C   UNL     1      35.345 -18.283 -22.339  0.00  0.00    +0.010 C 
ENDROOT
BRANCH   1   3
ATOM      2  F   UNL     1      32.757 -15.737 -24.958  0.00  0.00    -0.238 F 
ATOM      3  N   UNL     1      34.723 -17.142 -22.993  0.00  0.00    +0.396 N 
ATOM      4  C   UNL     1      33.673 -15.078 -22.900  0.00  0.00    +0.082 C 
ATOM      5  C   UNL     1      32.747 -16.045 -23.633  0.00  0.00    +0.156 C 
ATOM      6  C   UNL     1      34.609 -15.983 -22.108  0.00  0.00    -0.054 C 
ATOM      7  C   UNL     1      33.353 -17.428 -23.434  0.00  0.00    -0.039 C 
ATOM      8  H   UNL     1      35.334 -16.948 -23.785  0.00  0.00    -0.079 HD
BRANCH   4  10
ATOM      9  O   UNL     1      32.757 -12.452 -23.609  0.00  0.00    -0.270 OA
ATOM     10  N   UNL     1      32.965 -14.159 -22.053  0.00  0.00    -0.302 N 
ATOM     11  C   UNL     1      32.559 -12.901 -22.484  0.00  0.00    +0.252 C 
ATOM     12  H   UNL     1      32.759 -14.431 -21.130  0.00  0.00    +0.150 HD
BRANCH  11  15
ATOM     13 CL   UNL     1      30.471  -8.569 -19.750  0.00  0.00    -0.075 Cl
ATOM     14  S   UNL     1      31.840 -10.359 -21.683  0.00  0.00    -0.071 S 
ATOM     15  C   UNL     1      31.859 -12.059 -21.479  0.00  0.00    +0.084 C 
ATOM     16  C   UNL     1      31.182 -12.452 -20.345  0.00  0.00    +0.012 C 
ATOM     17  C   UNL     1      30.642 -11.342 -19.633  0.00  0.00    +0.019 C 
ATOM     18  C   UNL     1      30.925 -10.143 -20.251  0.00  0.00    +0.087 C 
ENDBRANCH  11  15
ENDBRANCH   4  10
ENDBRANCH   1   3
BRANCH   1  21
ATOM     19  O   UNL     1      34.378 -17.627 -20.228  0.00  0.00    -0.277 OA
ATOM     20  N   UNL     1      34.428 -19.896 -20.832  0.00  0.00    -0.284 N 
ATOM     21  C   UNL     1      34.663 -18.534 -21.004  0.00  0.00    +0.205 C 
ATOM     22  H   UNL     1      34.721 -20.484 -21.564  0.00  0.00    +0.155 HD
BRANCH  20  24
ATOM     23  F   UNL     1      35.917 -21.357 -18.982  0.00  0.00    -0.203 F 
ATOM     24  C   UNL     1      33.816 -20.532 -19.726  0.00  0.00    +0.078 C 
ATOM     25  C   UNL     1      34.589 -21.256 -18.818  0.00  0.00    +0.155 C 
ATOM     26  C   UNL     1      32.436 -20.435 -19.544  0.00  0.00    +0.018 C 
ATOM     27  C   UNL     1      32.605 -21.785 -17.547  0.00  0.00    +0.061 C 
ATOM     28  C   UNL     1      33.984 -21.882 -17.729  0.00  0.00    +0.046 C 
ATOM     29  C   UNL     1      31.831 -21.061 -18.454  0.00  0.00    +0.017 C 
BRANCH  27  31
ATOM     30  O   UNL     1      34.001 -23.160 -15.420  0.00  0.00    -0.269 OA
ATOM     31  N   UNL     1      31.975 -22.436 -16.415  0.00  0.00    -0.233 N 
ATOM     32  C   UNL     1      32.772 -23.113 -15.455  0.00  0.00    +0.257 C 
ATOM     33  C   UNL     1      30.590 -22.383 -16.247  0.00  0.00    +0.072 C 
ATOM     34  C   UNL     1      32.039 -23.797 -14.345  0.00  0.00    +0.059 C 
ATOM     35  C   UNL     1      29.960 -22.975 -15.226  0.00  0.00    +0.017 C 
ATOM     36  C   UNL     1      30.710 -23.709 -14.252  0.00  0.00    +0.006 C 
ENDBRANCH  27  31
ENDBRANCH  20  24
ENDBRANCH   1  21
TORSDOF 6
ENDMDL
