MODEL 1
REMARK VINA RESULT:     -14.4      0.000      0.000
REMARK  Name = 67335295
REMARK  6 active torsions:
REMARK  status: ('A' for Active; 'I' for Inactive)
REMARK    1  A    between atoms: N_2  and  C_14
REMARK    2  A    between atoms: C_7  and  O_20
REMARK    3  A    between atoms: O_20  and  C_21
REMARK    4  A    between atoms: C_21  and  C_23
REMARK    5  A    between atoms: C_22  and  C_28
REMARK    6  A    between atoms: C_28  and  N_30
REMARK                            x       y       z     vdW  Elec       q    Type
REMARK                         _______ _______ _______ _____ _____    ______ ____
ROOT
ATOM      1  O   UNL     1      33.070 -24.271 -11.694  0.00  0.00    -0.270 OA
ATOM      2  N   UNL     1      34.034 -23.780 -13.795  0.00  0.00    -0.265 N 
ATOM      3  C   UNL     1      33.564 -23.294 -15.086  0.00  0.00    +0.124 C 
ATOM      4  C   UNL     1      32.105 -23.119 -14.837  0.00  0.00    +0.036 C 
ATOM      5  C   UNL     1      33.020 -23.900 -12.852  0.00  0.00    +0.249 C 
ATOM      6  C   UNL     1      31.787 -23.476 -13.526  0.00  0.00    +0.054 C 
ATOM      7  C   UNL     1      31.118 -22.678 -15.699  0.00  0.00    +0.137 C 
ATOM      8  C   UNL     1      30.501 -23.410 -13.026  0.00  0.00    +0.004 C 
ATOM      9  C   UNL     1      29.808 -22.603 -15.218  0.00  0.00    +0.037 C 
ATOM     10  C   UNL     1      29.502 -22.965 -13.892  0.00  0.00    +0.003 C 
ENDROOT
BRANCH   2  14
ATOM     11  O   UNL     1      35.944 -22.094 -14.756  0.00  0.00    -0.273 OA
ATOM     12  O   UNL     1      39.188 -25.361 -14.661  0.00  0.00    -0.275 OA
ATOM     13  N   UNL     1      37.529 -23.762 -14.713  0.00  0.00    -0.254 N 
ATOM     14  C   UNL     1      35.410 -24.103 -13.522  0.00  0.00    +0.153 C 
ATOM     15  C   UNL     1      35.688 -25.578 -13.769  0.00  0.00    +0.039 C 
ATOM     16  C   UNL     1      37.154 -25.865 -13.502  0.00  0.00    +0.088 C 
ATOM     17  C   UNL     1      36.279 -23.225 -14.404  0.00  0.00    +0.246 C 
ATOM     18  C   UNL     1      38.051 -25.001 -14.355  0.00  0.00    +0.228 C 
ATOM     19  H   UNL     1      38.117 -23.189 -15.256  0.00  0.00    +0.158 HD
ENDBRANCH   2  14
BRANCH   7  20
ATOM     20  O   UNL     1      31.404 -22.328 -16.980  0.00  0.00    -0.471 OA
BRANCH  20  21
ATOM     21  C   UNL     1      32.619 -22.830 -17.538  0.00  0.00    +0.232 C 
BRANCH  21  23
ATOM     22  C   UNL     1      34.412 -19.771 -19.956  0.00  0.00    -0.043 C 
ATOM     23  C   UNL     1      33.246 -21.761 -18.385  0.00  0.00    +0.021 C 
ATOM     24  C   UNL     1      35.218 -20.655 -19.237  0.00  0.00    -0.007 C 
ATOM     25  C   UNL     1      33.023 -19.882 -19.888  0.00  0.00    -0.007 C 
ATOM     26  C   UNL     1      34.635 -21.650 -18.452  0.00  0.00    -0.001 C 
ATOM     27  C   UNL     1      32.440 -20.878 -19.103  0.00  0.00    -0.001 C 
BRANCH  22  28
ATOM     28  C   UNL     1      35.036 -18.708 -20.794  0.00  0.00    -0.050 C 
BRANCH  28  30
ATOM     29  O   UNL     1      33.480 -17.113 -24.352  0.00  0.00    -0.358 OA
ATOM     30  N   UNL     1      34.105 -18.158 -21.779  0.00  0.00    +0.393 N 
ATOM     31  C   UNL     1      34.508 -16.802 -22.176  0.00  0.00    -0.044 C 
ATOM     32  C   UNL     1      34.025 -19.027 -22.962  0.00  0.00    -0.044 C 
ATOM     33  C   UNL     1      33.059 -18.427 -23.980  0.00  0.00    +0.119 C 
ATOM     34  C   UNL     1      33.529 -16.255 -23.211  0.00  0.00    +0.119 C 
ATOM     35  H   UNL     1      33.183 -18.111 -21.345  0.00  0.00    -0.079 HD
ENDBRANCH  28  30
ENDBRANCH  22  28
ENDBRANCH  21  23
ENDBRANCH  20  21
ENDBRANCH   7  20
TORSDOF 6
ENDMDL
MODEL 2
REMARK VINA RESULT:     -12.6      2.208      5.218
REMARK  Name = 67335295
REMARK  6 active torsions:
REMARK  status: ('A' for Active; 'I' for Inactive)
REMARK    1  A    between atoms: N_2  and  C_14
REMARK    2  A    between atoms: C_7  and  O_20
REMARK    3  A    between atoms: O_20  and  C_21
REMARK    4  A    between atoms: C_21  and  C_23
REMARK    5  A    between atoms: C_22  and  C_28
REMARK    6  A    between atoms: C_28  and  N_30
REMARK                            x       y       z     vdW  Elec       q    Type
REMARK                         _______ _______ _______ _____ _____    ______ ____
ROOT
ATOM      1  O   UNL     1      31.190 -24.719 -12.165  0.00  0.00    -0.270 OA
ATOM      2  N   UNL     1      30.928 -23.375 -14.091  0.00  0.00    -0.265 N 
ATOM      3  C   UNL     1      31.804 -22.784 -15.095  0.00  0.00    +0.124 C 
ATOM      4  C   UNL     1      33.148 -23.239 -14.638  0.00  0.00    +0.036 C 
ATOM      5  C   UNL     1      31.614 -24.106 -13.128  0.00  0.00    +0.249 C 
ATOM      6  C   UNL     1      33.035 -24.015 -13.483  0.00  0.00    +0.054 C 
ATOM      7  C   UNL     1      34.389 -22.993 -15.194  0.00  0.00    +0.137 C 
ATOM      8  C   UNL     1      34.127 -24.567 -12.845  0.00  0.00    +0.004 C 
ATOM      9  C   UNL     1      35.513 -23.540 -14.567  0.00  0.00    +0.037 C 
ATOM     10  C   UNL     1      35.383 -24.321 -13.402  0.00  0.00    +0.003 C 
ENDROOT
BRANCH   2  14
ATOM     11  O   UNL     1      29.436 -25.412 -15.110  0.00  0.00    -0.273 OA
ATOM     12  O   UNL     1      25.868 -22.644 -16.005  0.00  0.00    -0.275 OA
ATOM     13  N   UNL     1      27.685 -23.990 -15.561  0.00  0.00    -0.254 N 
ATOM     14  C   UNL     1      29.497 -23.219 -14.097  0.00  0.00    +0.153 C 
ATOM     15  C   UNL     1      29.097 -21.836 -14.588  0.00  0.00    +0.039 C 
ATOM     16  C   UNL     1      27.583 -21.728 -14.608  0.00  0.00    +0.088 C 
ATOM     17  C   UNL     1      28.912 -24.307 -14.979  0.00  0.00    +0.246 C 
ATOM     18  C   UNL     1      26.964 -22.803 -15.470  0.00  0.00    +0.228 C 
ATOM     19  H   UNL     1      27.276 -24.699 -16.108  0.00  0.00    +0.158 HD
ENDBRANCH   2  14
BRANCH   7  20
ATOM     20  O   UNL     1      34.525 -22.239 -16.315  0.00  0.00    -0.471 OA
BRANCH  20  21
ATOM     21  C   UNL     1      33.429 -22.231 -17.231  0.00  0.00    +0.232 C 
BRANCH  21  23
ATOM     22  C   UNL     1      34.390 -19.667 -20.536  0.00  0.00    -0.043 C 
ATOM     23  C   UNL     1      33.765 -21.337 -18.388  0.00  0.00    +0.021 C 
ATOM     24  C   UNL     1      35.412 -20.251 -19.784  0.00  0.00    -0.007 C 
ATOM     25  C   UNL     1      33.057 -19.918 -20.212  0.00  0.00    -0.007 C 
ATOM     26  C   UNL     1      35.099 -21.086 -18.711  0.00  0.00    -0.001 C 
ATOM     27  C   UNL     1      32.744 -20.753 -19.139  0.00  0.00    -0.001 C 
BRANCH  22  28
ATOM     28  C   UNL     1      34.725 -18.776 -21.683  0.00  0.00    -0.050 C 
BRANCH  28  30
ATOM     29  O   UNL     1      33.832 -14.675 -21.769  0.00  0.00    -0.358 OA
ATOM     30  N   UNL     1      33.986 -17.515 -21.641  0.00  0.00    +0.393 N 
ATOM     31  C   UNL     1      34.463 -16.668 -20.538  0.00  0.00    -0.044 C 
ATOM     32  C   UNL     1      34.109 -16.796 -22.916  0.00  0.00    -0.044 C 
ATOM     33  C   UNL     1      33.342 -15.478 -22.844  0.00  0.00    +0.119 C 
ATOM     34  C   UNL     1      33.687 -15.355 -20.522  0.00  0.00    +0.119 C 
ATOM     35  H   UNL     1      33.003 -17.733 -21.482  0.00  0.00    -0.079 HD
ENDBRANCH  28  30
ENDBRANCH  22  28
ENDBRANCH  21  23
ENDBRANCH  20  21
ENDBRANCH   7  20
TORSDOF 6
ENDMDL
MODEL 3
REMARK VINA RESULT:     -12.1      7.648     14.675
REMARK  Name = 67335295
REMARK  6 active torsions:
REMARK  status: ('A' for Active; 'I' for Inactive)
REMARK    1  A    between atoms: N_2  and  C_14
REMARK    2  A    between atoms: C_7  and  O_20
REMARK    3  A    between atoms: O_20  and  C_21
REMARK    4  A    between atoms: C_21  and  C_23
REMARK    5  A    between atoms: C_22  and  C_28
REMARK    6  A    between atoms: C_28  and  N_30
REMARK                            x       y       z     vdW  Elec       q    Type
REMARK                         _______ _______ _______ _____ _____    ______ ____
ROOT
ATOM      1  O   UNL     1      31.508  -6.095 -19.917  0.00  0.00    -0.270 OA
ATOM      2  N   UNL     1      31.897  -7.330 -21.893  0.00  0.00    -0.265 N 
ATOM      3  C   UNL     1      31.834  -8.730 -22.295  0.00  0.00    +0.124 C 
ATOM      4  C   UNL     1      31.406  -9.394 -21.031  0.00  0.00    +0.036 C 
ATOM      5  C   UNL     1      31.557  -7.126 -20.561  0.00  0.00    +0.249 C 
ATOM      6  C   UNL     1      31.245  -8.452 -20.014  0.00  0.00    +0.054 C 
ATOM      7  C   UNL     1      31.173 -10.734 -20.783  0.00  0.00    +0.137 C 
ATOM      8  C   UNL     1      30.852  -8.794 -18.735  0.00  0.00    +0.004 C 
ATOM      9  C   UNL     1      30.775 -11.107 -19.496  0.00  0.00    +0.037 C 
ATOM     10  C   UNL     1      30.616 -10.145 -18.481  0.00  0.00    +0.003 C 
ENDROOT
BRANCH   2  14
ATOM     11  O   UNL     1      30.048  -6.486 -23.705  0.00  0.00    -0.273 OA
ATOM     12  O   UNL     1      33.264  -4.775 -26.521  0.00  0.00    -0.275 OA
ATOM     13  N   UNL     1      31.689  -5.664 -25.093  0.00  0.00    -0.254 N 
ATOM     14  C   UNL     1      32.273  -6.266 -22.786  0.00  0.00    +0.153 C 
ATOM     15  C   UNL     1      33.662  -6.495 -23.362  0.00  0.00    +0.039 C 
ATOM     16  C   UNL     1      34.001  -5.368 -24.321  0.00  0.00    +0.088 C 
ATOM     17  C   UNL     1      31.228  -6.187 -23.885  0.00  0.00    +0.246 C 
ATOM     18  C   UNL     1      32.976  -5.253 -25.424  0.00  0.00    +0.228 C 
ATOM     19  H   UNL     1      31.014  -5.575 -25.804  0.00  0.00    +0.158 HD
ENDBRANCH   2  14
BRANCH   7  20
ATOM     20  O   UNL     1      31.326 -11.669 -21.756  0.00  0.00    -0.471 OA
BRANCH  20  21
ATOM     21  C   UNL     1      32.595 -11.729 -22.409  0.00  0.00    +0.232 C 
BRANCH  21  23
ATOM     22  C   UNL     1      33.797 -15.833 -22.771  0.00  0.00    -0.043 C 
ATOM     23  C   UNL     1      33.013 -13.165 -22.535  0.00  0.00    +0.021 C 
ATOM     24  C   UNL     1      33.848 -15.197 -21.529  0.00  0.00    -0.007 C 
ATOM     25  C   UNL     1      33.356 -15.134 -23.894  0.00  0.00    -0.007 C 
ATOM     26  C   UNL     1      33.456 -13.863 -21.412  0.00  0.00    -0.001 C 
ATOM     27  C   UNL     1      32.963 -13.800 -23.776  0.00  0.00    -0.001 C 
BRANCH  22  28
ATOM     28  C   UNL     1      34.217 -17.258 -22.895  0.00  0.00    -0.050 C 
BRANCH  28  30
ATOM     29  O   UNL     1      35.233 -20.070 -19.950  0.00  0.00    -0.358 OA
ATOM     30  N   UNL     1      34.428 -17.891 -21.595  0.00  0.00    +0.393 N 
ATOM     31  C   UNL     1      33.605 -19.102 -21.466  0.00  0.00    -0.044 C 
ATOM     32  C   UNL     1      35.846 -18.223 -21.400  0.00  0.00    -0.044 C 
ATOM     33  C   UNL     1      36.039 -18.894 -20.043  0.00  0.00    +0.119 C 
ATOM     34  C   UNL     1      33.851 -19.751 -20.107  0.00  0.00    +0.119 C 
ATOM     35  H   UNL     1      34.146 -17.227 -20.874  0.00  0.00    -0.079 HD
ENDBRANCH  28  30
ENDBRANCH  22  28
ENDBRANCH  21  23
ENDBRANCH  20  21
ENDBRANCH   7  20
TORSDOF 6
ENDMDL
MODEL 4
REMARK VINA RESULT:     -12.1      6.847     14.277
REMARK  Name = 67335295
REMARK  6 active torsions:
REMARK  status: ('A' for Active; 'I' for Inactive)
REMARK    1  A    between atoms: N_2  and  C_14
REMARK    2  A    between atoms: C_7  and  O_20
REMARK    3  A    between atoms: O_20  and  C_21
REMARK    4  A    between atoms: C_21  and  C_23
REMARK    5  A    between atoms: C_22  and  C_28
REMARK    6  A    between atoms: C_28  and  N_30
REMARK                            x       y       z     vdW  Elec       q    Type
REMARK                         _______ _______ _______ _____ _____    ______ ____
ROOT
ATOM      1  O   UNL     1      30.454  -7.289 -21.289  0.00  0.00    -0.270 OA
ATOM      2  N   UNL     1      32.090  -8.180 -22.743  0.00  0.00    -0.265 N 
ATOM      3  C   UNL     1      32.685  -9.488 -22.990  0.00  0.00    +0.124 C 
ATOM      4  C   UNL     1      31.973 -10.343 -21.998  0.00  0.00    +0.036 C 
ATOM      5  C   UNL     1      31.132  -8.196 -21.736  0.00  0.00    +0.249 C 
ATOM      6  C   UNL     1      31.062  -9.584 -21.263  0.00  0.00    +0.054 C 
ATOM      7  C   UNL     1      32.111 -11.697 -21.753  0.00  0.00    +0.137 C 
ATOM      8  C   UNL     1      30.266 -10.126 -20.273  0.00  0.00    +0.004 C 
ATOM      9  C   UNL     1      31.317 -12.271 -20.756  0.00  0.00    +0.037 C 
ATOM     10  C   UNL     1      30.402 -11.491 -20.022  0.00  0.00    +0.003 C 
ENDROOT
BRANCH   2  14
ATOM     11  O   UNL     1      31.015  -7.829 -25.219  0.00  0.00    -0.273 OA
ATOM     12  O   UNL     1      34.412  -5.013 -26.535  0.00  0.00    -0.275 OA
ATOM     13  N   UNL     1      32.743  -6.444 -25.844  0.00  0.00    -0.254 N 
ATOM     14  C   UNL     1      32.456  -6.993 -23.469  0.00  0.00    +0.153 C 
ATOM     15  C   UNL     1      33.954  -6.739 -23.389  0.00  0.00    +0.039 C 
ATOM     16  C   UNL     1      34.297  -5.499 -24.194  0.00  0.00    +0.088 C 
ATOM     17  C   UNL     1      32.004  -7.166 -24.907  0.00  0.00    +0.246 C 
ATOM     18  C   UNL     1      33.852  -5.632 -25.630  0.00  0.00    +0.228 C 
ATOM     19  H   UNL     1      32.439  -6.520 -26.777  0.00  0.00    +0.158 HD
ENDBRANCH   2  14
BRANCH   7  20
ATOM     20  O   UNL     1      32.992 -12.455 -22.454  0.00  0.00    -0.471 OA
BRANCH  20  21
ATOM     21  C   UNL     1      32.475 -13.607 -23.122  0.00  0.00    +0.232 C 
BRANCH  21  23
ATOM     22  C   UNL     1      34.612 -17.078 -21.781  0.00  0.00    -0.043 C 
ATOM     23  C   UNL     1      33.220 -14.821 -22.653  0.00  0.00    +0.021 C 
ATOM     24  C   UNL     1      34.269 -16.075 -20.873  0.00  0.00    -0.007 C 
ATOM     25  C   UNL     1      34.259 -16.952 -23.124  0.00  0.00    -0.007 C 
ATOM     26  C   UNL     1      33.573 -14.947 -21.309  0.00  0.00    -0.001 C 
ATOM     27  C   UNL     1      33.563 -15.824 -23.560  0.00  0.00    -0.001 C 
BRANCH  22  28
ATOM     28  C   UNL     1      35.356 -18.283 -21.314  0.00  0.00    -0.050 C 
BRANCH  28  30
ATOM     29  O   UNL     1      33.411 -21.329 -19.180  0.00  0.00    -0.358 OA
ATOM     30  N   UNL     1      34.644 -19.001 -20.259  0.00  0.00    +0.393 N 
ATOM     31  C   UNL     1      33.337 -19.471 -20.739  0.00  0.00    -0.044 C 
ATOM     32  C   UNL     1      35.440 -20.137 -19.773  0.00  0.00    -0.044 C 
ATOM     33  C   UNL     1      34.672 -20.878 -18.682  0.00  0.00    +0.119 C 
ATOM     34  C   UNL     1      32.619 -20.228 -19.625  0.00  0.00    +0.119 C 
ATOM     35  H   UNL     1      34.494 -18.353 -19.486  0.00  0.00    -0.079 HD
ENDBRANCH  28  30
ENDBRANCH  22  28
ENDBRANCH  21  23
ENDBRANCH  20  21
ENDBRANCH   7  20
TORSDOF 6
ENDMDL
MODEL 5
REMARK VINA RESULT:     -11.7      2.431      5.340
REMARK  Name = 67335295
REMARK  6 active torsions:
REMARK  status: ('A' for Active; 'I' for Inactive)
REMARK    1  A    between atoms: N_2  and  C_14
REMARK    2  A    between atoms: C_7  and  O_20
REMARK    3  A    between atoms: O_20  and  C_21
REMARK    4  A    between atoms: C_21  and  C_23
REMARK    5  A    between atoms: C_22  and  C_28
REMARK    6  A    between atoms: C_28  and  N_30
REMARK                            x       y       z     vdW  Elec       q    Type
REMARK                         _______ _______ _______ _____ _____    ______ ____
ROOT
ATOM      1  O   UNL     1      32.144 -23.684 -13.146  0.00  0.00    -0.270 OA
ATOM      2  N   UNL     1      31.708 -23.208 -15.419  0.00  0.00    -0.265 N 
ATOM      3  C   UNL     1      32.471 -22.726 -16.564  0.00  0.00    +0.124 C 
ATOM      4  C   UNL     1      33.827 -22.540 -15.973  0.00  0.00    +0.036 C 
ATOM      5  C   UNL     1      32.468 -23.317 -14.260  0.00  0.00    +0.249 C 
ATOM      6  C   UNL     1      33.824 -22.887 -14.622  0.00  0.00    +0.054 C 
ATOM      7  C   UNL     1      34.989 -22.097 -16.577  0.00  0.00    +0.137 C 
ATOM      8  C   UNL     1      34.951 -22.811 -13.829  0.00  0.00    +0.004 C 
ATOM      9  C   UNL     1      36.146 -22.010 -15.796  0.00  0.00    +0.037 C 
ATOM     10  C   UNL     1      36.127 -22.364 -14.433  0.00  0.00    +0.003 C 
ENDROOT
BRANCH   2  14
ATOM     11  O   UNL     1      30.121 -21.697 -17.036  0.00  0.00    -0.273 OA
ATOM     12  O   UNL     1      26.313 -22.793 -14.692  0.00  0.00    -0.275 OA
ATOM     13  N   UNL     1      28.246 -22.253 -15.823  0.00  0.00    -0.254 N 
ATOM     14  C   UNL     1      30.308 -23.540 -15.482  0.00  0.00    +0.153 C 
ATOM     15  C   UNL     1      29.739 -23.790 -14.094  0.00  0.00    +0.039 C 
ATOM     16  C   UNL     1      28.258 -24.102 -14.207  0.00  0.00    +0.088 C 
ATOM     17  C   UNL     1      29.589 -22.396 -16.174  0.00  0.00    +0.246 C 
ATOM     18  C   UNL     1      27.510 -22.989 -14.900  0.00  0.00    +0.228 C 
ATOM     19  H   UNL     1      27.757 -21.537 -16.290  0.00  0.00    +0.158 HD
ENDBRANCH   2  14
BRANCH   7  20
ATOM     20  O   UNL     1      35.016 -21.752 -17.889  0.00  0.00    -0.471 OA
BRANCH  20  21
ATOM     21  C   UNL     1      36.042 -20.849 -18.305  0.00  0.00    +0.232 C 
BRANCH  21  23
ATOM     22  C   UNL     1      34.516 -18.343 -21.437  0.00  0.00    -0.043 C 
ATOM     23  C   UNL     1      35.508 -19.971 -19.399  0.00  0.00    +0.021 C 
ATOM     24  C   UNL     1      33.682 -19.280 -20.823  0.00  0.00    -0.007 C 
ATOM     25  C   UNL     1      35.844 -18.221 -21.031  0.00  0.00    -0.007 C 
ATOM     26  C   UNL     1      34.179 -20.094 -19.804  0.00  0.00    -0.001 C 
ATOM     27  C   UNL     1      36.341 -19.035 -20.012  0.00  0.00    -0.001 C 
BRANCH  22  28
ATOM     28  C   UNL     1      33.985 -17.474 -22.525  0.00  0.00    -0.050 C 
BRANCH  28  30
ATOM     29  O   UNL     1      33.058 -13.487 -21.594  0.00  0.00    -0.358 OA
ATOM     30  N   UNL     1      34.125 -16.051 -22.220  0.00  0.00    +0.393 N 
ATOM     31  C   UNL     1      33.450 -15.231 -23.235  0.00  0.00    -0.044 C 
ATOM     32  C   UNL     1      33.584 -15.749 -20.887  0.00  0.00    -0.044 C 
ATOM     33  C   UNL     1      33.730 -14.258 -20.595  0.00  0.00    +0.119 C 
ATOM     34  C   UNL     1      33.599 -13.753 -22.888  0.00  0.00    +0.119 C 
ATOM     35  H   UNL     1      35.120 -15.826 -22.227  0.00  0.00    -0.079 HD
ENDBRANCH  28  30
ENDBRANCH  22  28
ENDBRANCH  21  23
ENDBRANCH  20  21
ENDBRANCH   7  20
TORSDOF 6
ENDMDL
MODEL 6
REMARK VINA RESULT:     -11.6      8.208     15.226
REMARK  Name = 67335295
REMARK  6 active torsions:
REMARK  status: ('A' for Active; 'I' for Inactive)
REMARK    1  A    between atoms: N_2  and  C_14
REMARK    2  A    between atoms: C_7  and  O_20
REMARK    3  A    between atoms: O_20  and  C_21
REMARK    4  A    between atoms: C_21  and  C_23
REMARK    5  A    between atoms: C_22  and  C_28
REMARK    6  A    between atoms: C_28  and  N_30
REMARK                            x       y       z     vdW  Elec       q    Type
REMARK                         _______ _______ _______ _____ _____    ______ ____
ROOT
ATOM      1  O   UNL     1      31.609  -4.732 -20.966  0.00  0.00    -0.270 OA
ATOM      2  N   UNL     1      31.684  -6.574 -22.444  0.00  0.00    -0.265 N 
ATOM      3  C   UNL     1      31.452  -8.010 -22.356  0.00  0.00    +0.124 C 
ATOM      4  C   UNL     1      31.092  -8.177 -20.919  0.00  0.00    +0.036 C 
ATOM      5  C   UNL     1      31.499  -5.914 -21.235  0.00  0.00    +0.249 C 
ATOM      6  C   UNL     1      31.121  -6.946 -20.262  0.00  0.00    +0.054 C 
ATOM      7  C   UNL     1      30.762  -9.328 -20.229  0.00  0.00    +0.137 C 
ATOM      8  C   UNL     1      30.827  -6.809 -18.920  0.00  0.00    +0.004 C 
ATOM      9  C   UNL     1      30.461  -9.218 -18.868  0.00  0.00    +0.037 C 
ATOM     10  C   UNL     1      30.493  -7.969 -18.219  0.00  0.00    +0.003 C 
ENDROOT
BRANCH   2  14
ATOM     11  O   UNL     1      29.808  -6.342 -24.403  0.00  0.00    -0.273 OA
ATOM     12  O   UNL     1      32.988  -5.858 -27.697  0.00  0.00    -0.275 OA
ATOM     13  N   UNL     1      31.430  -6.126 -26.020  0.00  0.00    -0.254 N 
ATOM     14  C   UNL     1      32.066  -5.906 -23.660  0.00  0.00    +0.153 C 
ATOM     15  C   UNL     1      33.428  -6.379 -24.144  0.00  0.00    +0.039 C 
ATOM     16  C   UNL     1      33.774  -5.674 -25.443  0.00  0.00    +0.088 C 
ATOM     17  C   UNL     1      30.991  -6.173 -24.698  0.00  0.00    +0.246 C 
ATOM     18  C   UNL     1      32.719  -5.910 -26.497  0.00  0.00    +0.228 C 
ATOM     19  H   UNL     1      30.737  -6.263 -26.706  0.00  0.00    +0.158 HD
ENDBRANCH   2  14
BRANCH   7  20
ATOM     20  O   UNL     1      30.730 -10.537 -20.846  0.00  0.00    -0.471 OA
BRANCH  20  21
ATOM     21  C   UNL     1      30.853 -11.695 -20.019  0.00  0.00    +0.232 C 
BRANCH  21  23
ATOM     22  C   UNL     1      33.522 -14.479 -21.900  0.00  0.00    -0.043 C 
ATOM     23  C   UNL     1      31.785 -12.670 -20.677  0.00  0.00    +0.021 C 
ATOM     24  C   UNL     1      33.318 -14.531 -20.520  0.00  0.00    -0.007 C 
ATOM     25  C   UNL     1      32.858 -13.523 -22.667  0.00  0.00    -0.007 C 
ATOM     26  C   UNL     1      32.449 -13.626 -19.909  0.00  0.00    -0.001 C 
ATOM     27  C   UNL     1      31.988 -12.619 -22.056  0.00  0.00    -0.001 C 
BRANCH  22  28
ATOM     28  C   UNL     1      34.451 -15.446 -22.552  0.00  0.00    -0.050 C 
BRANCH  28  30
ATOM     29  O   UNL     1      34.027 -19.552 -23.313  0.00  0.00    -0.358 OA
ATOM     30  N   UNL     1      33.912 -16.804 -22.577  0.00  0.00    +0.393 N 
ATOM     31  C   UNL     1      33.664 -17.241 -23.958  0.00  0.00    -0.044 C 
ATOM     32  C   UNL     1      34.828 -17.741 -21.909  0.00  0.00    -0.044 C 
ATOM     33  C   UNL     1      34.251 -19.153 -21.959  0.00  0.00    +0.119 C 
ATOM     34  C   UNL     1      33.114 -18.665 -23.959  0.00  0.00    +0.119 C 
ATOM     35  H   UNL     1      33.026 -16.799 -22.072  0.00  0.00    -0.079 HD
ENDBRANCH  28  30
ENDBRANCH  22  28
ENDBRANCH  21  23
ENDBRANCH  20  21
ENDBRANCH   7  20
TORSDOF 6
ENDMDL
