MODEL 1
REMARK VINA RESULT:     -11.7      0.000      0.000
REMARK  Name = 10200651
REMARK  5 active torsions:
REMARK  status: ('A' for Active; 'I' for Inactive)
REMARK    1  A    between atoms: C_1  and  C_7
REMARK    2  A    between atoms: C_4  and  C_22
REMARK    3  A    between atoms: C_10  and  C_17
REMARK    4  A    between atoms: N_21  and  C_24
REMARK    5  A    between atoms: C_27  and  C_31
REMARK                            x       y       z     vdW  Elec       q    Type
REMARK                         _______ _______ _______ _____ _____    ______ ____
ROOT
ATOM      1  C   UNL     1      33.776 -19.375 -20.737  0.00  0.00    -0.000 C 
ATOM      2  C   UNL     1      32.535 -19.806 -20.269  0.00  0.00    +0.000 C 
ATOM      3  C   UNL     1      34.948 -19.886 -20.181  0.00  0.00    +0.000 C 
ATOM      4  C   UNL     1      33.640 -21.239 -18.711  0.00  0.00    +0.054 C 
ATOM      5  C   UNL     1      32.466 -20.749 -19.244  0.00  0.00    +0.005 C 
ATOM      6  C   UNL     1      34.879 -20.830 -19.156  0.00  0.00    +0.005 C 
ENDROOT
BRANCH   1   7
ATOM      7  C   UNL     1      33.847 -18.396 -21.801  0.00  0.00    -0.004 C 
ATOM      8  C   UNL     1      34.042 -18.785 -23.128  0.00  0.00    -0.022 C 
ATOM      9  C   UNL     1      33.719 -17.042 -21.486  0.00  0.00    +0.004 C 
ATOM     10  C   UNL     1      33.785 -16.079 -22.493  0.00  0.00    +0.055 C 
ATOM     11  C   UNL     1      34.108 -17.822 -24.135  0.00  0.00    -0.004 C 
ATOM     12  C   UNL     1      33.979 -16.470 -23.819  0.00  0.00    +0.004 C 
ATOM     13  C   UNL     1      34.184 -20.223 -23.505  0.00  0.00    +0.031 C 
BRANCH  10  17
ATOM     14  O   UNL     1      33.497 -13.842 -23.222  0.00  0.00    -0.420 OA
ATOM     15  N   UNL     1      33.660 -14.082 -21.004  0.00  0.00    -0.107 NA
ATOM     16  N   UNL     1      33.498 -12.737 -21.277  0.00  0.00    -0.111 NA
ATOM     17  C   UNL     1      33.653 -14.681 -22.166  0.00  0.00    +0.250 A 
ATOM     18  C   UNL     1      33.408 -12.644 -22.583  0.00  0.00    +0.227 A 
ATOM     19  C   UNL     1      33.229 -11.456 -23.427  0.00  0.00    +0.097 C 
ENDBRANCH  10  17
ENDBRANCH   1   7
BRANCH   4  22
ATOM     20  O   UNL     1      32.884 -23.245 -17.808  0.00  0.00    -0.270 OA
ATOM     21  N   UNL     1      34.316 -21.943 -16.473  0.00  0.00    -0.280 N 
ATOM     22  C   UNL     1      33.566 -22.244 -17.618  0.00  0.00    +0.249 C 
ATOM     23  H   UNL     1      34.807 -21.089 -16.491  0.00  0.00    +0.155 HD
BRANCH  21  24
ATOM     24  C   UNL     1      34.455 -22.704 -15.312  0.00  0.00    +0.051 C 
ATOM     25  C   UNL     1      35.722 -23.105 -14.888  0.00  0.00    +0.025 C 
ATOM     26  C   UNL     1      33.327 -23.064 -14.575  0.00  0.00    +0.015 C 
ATOM     27  C   UNL     1      35.861 -23.867 -13.727  0.00  0.00    +0.070 C 
ATOM     28  C   UNL     1      33.465 -23.826 -13.414  0.00  0.00    +0.002 C 
ATOM     29  C   UNL     1      34.732 -24.227 -12.991  0.00  0.00    +0.010 C 
BRANCH  27  31
ATOM     30  N   UNL     1      38.213 -24.612 -12.939  0.00  0.00    -0.191 NA
ATOM     31  C   UNL     1      37.158 -24.278 -13.292  0.00  0.00    +0.100 C 
ENDBRANCH  27  31
ENDBRANCH  21  24
ENDBRANCH   4  22
TORSDOF 5
ENDMDL
MODEL 2
REMARK VINA RESULT:     -11.7      1.157      1.851
REMARK  Name = 10200651
REMARK  5 active torsions:
REMARK  status: ('A' for Active; 'I' for Inactive)
REMARK    1  A    between atoms: C_1  and  C_7
REMARK    2  A    between atoms: C_4  and  C_22
REMARK    3  A    between atoms: C_10  and  C_17
REMARK    4  A    between atoms: N_21  and  C_24
REMARK    5  A    between atoms: C_27  and  C_31
REMARK                            x       y       z     vdW  Elec       q    Type
REMARK                         _______ _______ _______ _____ _____    ______ ____
ROOT
ATOM      1  C   UNL     1      34.033 -19.133 -20.831  0.00  0.00    -0.000 C 
ATOM      2  C   UNL     1      35.277 -19.459 -20.290  0.00  0.00    +0.000 C 
ATOM      3  C   UNL     1      32.875 -19.716 -20.319  0.00  0.00    +0.000 C 
ATOM      4  C   UNL     1      34.201 -20.931 -18.748  0.00  0.00    +0.054 C 
ATOM      5  C   UNL     1      35.362 -20.369 -19.236  0.00  0.00    +0.005 C 
ATOM      6  C   UNL     1      32.960 -20.626 -19.265  0.00  0.00    +0.005 C 
ENDROOT
BRANCH   1   7
ATOM      7  C   UNL     1      33.945 -18.190 -21.925  0.00  0.00    -0.004 C 
ATOM      8  C   UNL     1      33.988 -18.617 -23.253  0.00  0.00    -0.022 C 
ATOM      9  C   UNL     1      33.816 -16.829 -21.638  0.00  0.00    +0.004 C 
ATOM     10  C   UNL     1      33.731 -15.900 -22.675  0.00  0.00    +0.055 C 
ATOM     11  C   UNL     1      33.903 -17.688 -24.290  0.00  0.00    -0.004 C 
ATOM     12  C   UNL     1      33.773 -16.330 -24.001  0.00  0.00    +0.004 C 
ATOM     13  C   UNL     1      34.126 -20.064 -23.601  0.00  0.00    +0.031 C 
BRANCH  10  17
ATOM     14  O   UNL     1      33.506 -13.672 -23.452  0.00  0.00    -0.420 OA
ATOM     15  N   UNL     1      33.553 -13.878 -21.225  0.00  0.00    -0.107 NA
ATOM     16  N   UNL     1      33.420 -12.535 -21.527  0.00  0.00    -0.111 NA
ATOM     17  C   UNL     1      33.598 -14.495 -22.376  0.00  0.00    +0.250 A 
ATOM     18  C   UNL     1      33.399 -12.462 -22.837  0.00  0.00    +0.227 A 
ATOM     19  C   UNL     1      33.276 -11.287 -23.707  0.00  0.00    +0.097 C 
ENDBRANCH  10  17
ENDBRANCH   1   7
BRANCH   4  22
ATOM     20  O   UNL     1      33.545 -22.874 -17.650  0.00  0.00    -0.270 OA
ATOM     21  N   UNL     1      35.255 -21.606 -16.652  0.00  0.00    -0.280 N 
ATOM     22  C   UNL     1      34.292 -21.901 -17.625  0.00  0.00    +0.249 C 
ATOM     23  H   UNL     1      35.769 -20.777 -16.791  0.00  0.00    +0.155 HD
BRANCH  21  24
ATOM     24  C   UNL     1      35.578 -22.341 -15.511  0.00  0.00    +0.051 C 
ATOM     25  C   UNL     1      34.583 -22.680 -14.595  0.00  0.00    +0.025 C 
ATOM     26  C   UNL     1      36.896 -22.738 -15.287  0.00  0.00    +0.015 C 
ATOM     27  C   UNL     1      34.906 -23.416 -13.454  0.00  0.00    +0.070 C 
ATOM     28  C   UNL     1      37.220 -23.473 -14.147  0.00  0.00    +0.002 C 
ATOM     29  C   UNL     1      36.225 -23.811 -13.230  0.00  0.00    +0.010 C 
BRANCH  27  31
ATOM     30  N   UNL     1      33.058 -24.046 -11.751  0.00  0.00    -0.191 NA
ATOM     31  C   UNL     1      33.887 -23.763 -12.515  0.00  0.00    +0.100 C 
ENDBRANCH  27  31
ENDBRANCH  21  24
ENDBRANCH   4  22
TORSDOF 5
ENDMDL
MODEL 3
REMARK VINA RESULT:     -11.2      3.900     11.925
REMARK  Name = 10200651
REMARK  5 active torsions:
REMARK  status: ('A' for Active; 'I' for Inactive)
REMARK    1  A    between atoms: C_1  and  C_7
REMARK    2  A    between atoms: C_4  and  C_22
REMARK    3  A    between atoms: C_10  and  C_17
REMARK    4  A    between atoms: N_21  and  C_24
REMARK    5  A    between atoms: C_27  and  C_31
REMARK                            x       y       z     vdW  Elec       q    Type
REMARK                         _______ _______ _______ _____ _____    ______ ____
ROOT
ATOM      1  C   UNL     1      33.123 -14.209 -22.898  0.00  0.00    -0.000 C 
ATOM      2  C   UNL     1      32.456 -13.667 -21.800  0.00  0.00    +0.000 C 
ATOM      3  C   UNL     1      33.592 -13.375 -23.912  0.00  0.00    +0.000 C 
ATOM      4  C   UNL     1      32.733 -11.486 -22.732  0.00  0.00    +0.054 C 
ATOM      5  C   UNL     1      32.258 -12.289 -21.716  0.00  0.00    +0.005 C 
ATOM      6  C   UNL     1      33.395 -11.997 -23.828  0.00  0.00    +0.005 C 
ENDROOT
BRANCH   1   7
ATOM      7  C   UNL     1      33.327 -15.640 -22.985  0.00  0.00    -0.004 C 
ATOM      8  C   UNL     1      32.827 -16.376 -24.060  0.00  0.00    -0.022 C 
ATOM      9  C   UNL     1      34.039 -16.286 -21.972  0.00  0.00    +0.004 C 
ATOM     10  C   UNL     1      34.248 -17.664 -22.033  0.00  0.00    +0.055 C 
ATOM     11  C   UNL     1      33.036 -17.754 -24.121  0.00  0.00    -0.004 C 
ATOM     12  C   UNL     1      33.747 -18.398 -23.109  0.00  0.00    +0.004 C 
ATOM     13  C   UNL     1      32.061 -15.722 -25.164  0.00  0.00    +0.031 C 
BRANCH  10  17
ATOM     14  O   UNL     1      34.460 -19.508 -20.559  0.00  0.00    -0.420 OA
ATOM     15  N   UNL     1      36.081 -17.978 -20.371  0.00  0.00    -0.107 NA
ATOM     16  N   UNL     1      36.335 -18.983 -19.457  0.00  0.00    -0.111 NA
ATOM     17  C   UNL     1      34.982 -18.329 -20.985  0.00  0.00    +0.250 A 
ATOM     18  C   UNL     1      35.363 -19.854 -19.601  0.00  0.00    +0.227 A 
ATOM     19  C   UNL     1      35.124 -21.116 -18.891  0.00  0.00    +0.097 C 
ENDBRANCH  10  17
ENDBRANCH   1   7
BRANCH   4  22
ATOM     20  O   UNL     1      33.217  -9.296 -23.349  0.00  0.00    -0.270 OA
ATOM     21  N   UNL     1      31.515  -9.607 -21.758  0.00  0.00    -0.280 N 
ATOM     22  C   UNL     1      32.521 -10.017 -22.643  0.00  0.00    +0.249 C 
ATOM     23  H   UNL     1      31.053 -10.326 -21.267  0.00  0.00    +0.155 HD
BRANCH  21  24
ATOM     24  C   UNL     1      31.083  -8.308 -21.490  0.00  0.00    +0.051 C 
ATOM     25  C   UNL     1      31.431  -7.691 -20.289  0.00  0.00    +0.025 C 
ATOM     26  C   UNL     1      30.303  -7.625 -22.424  0.00  0.00    +0.015 C 
ATOM     27  C   UNL     1      30.999  -6.391 -20.021  0.00  0.00    +0.070 C 
ATOM     28  C   UNL     1      29.871  -6.327 -22.157  0.00  0.00    +0.002 C 
ATOM     29  C   UNL     1      30.219  -5.710 -20.955  0.00  0.00    +0.010 C 
BRANCH  27  31
ATOM     30  N   UNL     1      31.644  -5.245 -17.789  0.00  0.00    -0.191 NA
ATOM     31  C   UNL     1      31.355  -5.759 -18.790  0.00  0.00    +0.100 C 
ENDBRANCH  27  31
ENDBRANCH  21  24
ENDBRANCH   4  22
TORSDOF 5
ENDMDL
MODEL 4
REMARK VINA RESULT:     -11.1      1.760      2.355
REMARK  Name = 10200651
REMARK  5 active torsions:
REMARK  status: ('A' for Active; 'I' for Inactive)
REMARK    1  A    between atoms: C_1  and  C_7
REMARK    2  A    between atoms: C_4  and  C_22
REMARK    3  A    between atoms: C_10  and  C_17
REMARK    4  A    between atoms: N_21  and  C_24
REMARK    5  A    between atoms: C_27  and  C_31
REMARK                            x       y       z     vdW  Elec       q    Type
REMARK                         _______ _______ _______ _____ _____    ______ ____
ROOT
ATOM      1  C   UNL     1      33.511 -19.287 -20.828  0.00  0.00    -0.000 C 
ATOM      2  C   UNL     1      34.625 -19.839 -20.195  0.00  0.00    +0.000 C 
ATOM      3  C   UNL     1      32.228 -19.646 -20.420  0.00  0.00    +0.000 C 
ATOM      4  C   UNL     1      33.174 -21.088 -18.769  0.00  0.00    +0.054 C 
ATOM      5  C   UNL     1      34.455 -20.750 -19.153  0.00  0.00    +0.005 C 
ATOM      6  C   UNL     1      32.057 -20.557 -19.378  0.00  0.00    +0.005 C 
ENDROOT
BRANCH   1   7
ATOM      7  C   UNL     1      33.689 -18.342 -21.910  0.00  0.00    -0.004 C 
ATOM      8  C   UNL     1      33.972 -18.773 -23.207  0.00  0.00    -0.022 C 
ATOM      9  C   UNL     1      33.573 -16.976 -21.642  0.00  0.00    +0.004 C 
ATOM     10  C   UNL     1      33.741 -16.045 -22.668  0.00  0.00    +0.055 C 
ATOM     11  C   UNL     1      34.140 -17.843 -24.232  0.00  0.00    -0.004 C 
ATOM     12  C   UNL     1      34.024 -16.479 -23.963  0.00  0.00    +0.004 C 
ATOM     13  C   UNL     1      34.104 -20.226 -23.534  0.00  0.00    +0.031 C 
BRANCH  10  17
ATOM     14  O   UNL     1      33.513 -13.829 -23.477  0.00  0.00    -0.420 OA
ATOM     15  N   UNL     1      33.604 -13.999 -21.248  0.00  0.00    -0.107 NA
ATOM     16  N   UNL     1      33.472 -12.661 -21.569  0.00  0.00    -0.111 NA
ATOM     17  C   UNL     1      33.622 -14.635 -22.390  0.00  0.00    +0.250 A 
ATOM     18  C   UNL     1      33.424 -12.609 -22.879  0.00  0.00    +0.227 A 
ATOM     19  C   UNL     1      33.290 -11.447 -23.766  0.00  0.00    +0.097 C 
ENDBRANCH  10  17
ENDBRANCH   1   7
BRANCH   4  22
ATOM     20  O   UNL     1      33.910 -22.839 -17.427  0.00  0.00    -0.270 OA
ATOM     21  N   UNL     1      31.777 -21.964 -16.969  0.00  0.00    -0.280 N 
ATOM     22  C   UNL     1      32.992 -22.060 -17.659  0.00  0.00    +0.249 C 
ATOM     23  H   UNL     1      31.150 -21.277 -17.292  0.00  0.00    +0.155 HD
BRANCH  21  24
ATOM     24  C   UNL     1      31.345 -22.721 -15.878  0.00  0.00    +0.051 C 
ATOM     25  C   UNL     1      32.202 -22.944 -14.801  0.00  0.00    +0.025 C 
ATOM     26  C   UNL     1      30.056 -23.254 -15.866  0.00  0.00    +0.015 C 
ATOM     27  C   UNL     1      31.771 -23.701 -13.711  0.00  0.00    +0.070 C 
ATOM     28  C   UNL     1      29.624 -24.010 -14.777  0.00  0.00    +0.002 C 
ATOM     29  C   UNL     1      30.482 -24.234 -13.700  0.00  0.00    +0.010 C 
BRANCH  27  31
ATOM     30  N   UNL     1      33.362 -24.115 -11.710  0.00  0.00    -0.191 NA
ATOM     31  C   UNL     1      32.648 -23.930 -12.607  0.00  0.00    +0.100 C 
ENDBRANCH  27  31
ENDBRANCH  21  24
ENDBRANCH   4  22
TORSDOF 5
ENDMDL
MODEL 5
REMARK VINA RESULT:     -11.0      1.873      2.990
REMARK  Name = 10200651
REMARK  5 active torsions:
REMARK  status: ('A' for Active; 'I' for Inactive)
REMARK    1  A    between atoms: C_1  and  C_7
REMARK    2  A    between atoms: C_4  and  C_22
REMARK    3  A    between atoms: C_10  and  C_17
REMARK    4  A    between atoms: N_21  and  C_24
REMARK    5  A    between atoms: C_27  and  C_31
REMARK                            x       y       z     vdW  Elec       q    Type
REMARK                         _______ _______ _______ _____ _____    ______ ____
ROOT
ATOM      1  C   UNL     1      33.823 -19.172 -20.831  0.00  0.00    -0.000 C 
ATOM      2  C   UNL     1      35.021 -19.568 -20.235  0.00  0.00    +0.000 C 
ATOM      3  C   UNL     1      32.609 -19.660 -20.348  0.00  0.00    +0.000 C 
ATOM      4  C   UNL     1      33.790 -20.918 -18.698  0.00  0.00    +0.054 C 
ATOM      5  C   UNL     1      35.004 -20.451 -19.156  0.00  0.00    +0.005 C 
ATOM      6  C   UNL     1      32.592 -20.543 -19.269  0.00  0.00    +0.005 C 
ENDROOT
BRANCH   1   7
ATOM      7  C   UNL     1      33.840 -18.256 -21.951  0.00  0.00    -0.004 C 
ATOM      8  C   UNL     1      33.978 -18.719 -23.261  0.00  0.00    -0.022 C 
ATOM      9  C   UNL     1      33.716 -16.886 -21.708  0.00  0.00    +0.004 C 
ATOM     10  C   UNL     1      33.732 -15.983 -22.771  0.00  0.00    +0.055 C 
ATOM     11  C   UNL     1      33.994 -17.815 -24.323  0.00  0.00    -0.004 C 
ATOM     12  C   UNL     1      33.869 -16.448 -24.079  0.00  0.00    +0.004 C 
ATOM     13  C   UNL     1      34.113 -20.176 -23.562  0.00  0.00    +0.031 C 
BRANCH  10  17
ATOM     14  O   UNL     1      33.470 -13.785 -23.619  0.00  0.00    -0.420 OA
ATOM     15  N   UNL     1      33.600 -13.910 -21.390  0.00  0.00    -0.107 NA
ATOM     16  N   UNL     1      33.451 -12.580 -21.734  0.00  0.00    -0.111 NA
ATOM     17  C   UNL     1      33.605 -14.569 -22.518  0.00  0.00    +0.250 A 
ATOM     18  C   UNL     1      33.380 -12.554 -23.044  0.00  0.00    +0.227 A 
ATOM     19  C   UNL     1      33.221 -11.411 -23.951  0.00  0.00    +0.097 C 
ENDBRANCH  10  17
ENDBRANCH   1   7
BRANCH   4  22
ATOM     20  O   UNL     1      34.830 -22.394 -17.232  0.00  0.00    -0.270 OA
ATOM     21  N   UNL     1      32.529 -22.024 -16.923  0.00  0.00    -0.280 N 
ATOM     22  C   UNL     1      33.772 -21.860 -17.548  0.00  0.00    +0.249 C 
ATOM     23  H   UNL     1      31.780 -21.515 -17.312  0.00  0.00    +0.155 HD
BRANCH  21  24
ATOM     24  C   UNL     1      32.220 -22.816 -15.817  0.00  0.00    +0.051 C 
ATOM     25  C   UNL     1      30.902 -23.204 -15.582  0.00  0.00    +0.025 C 
ATOM     26  C   UNL     1      33.231 -23.219 -14.945  0.00  0.00    +0.015 C 
ATOM     27  C   UNL     1      30.594 -23.997 -14.476  0.00  0.00    +0.070 C 
ATOM     28  C   UNL     1      32.925 -24.011 -13.838  0.00  0.00    +0.002 C 
ATOM     29  C   UNL     1      31.605 -24.399 -13.604  0.00  0.00    +0.010 C 
BRANCH  27  31
ATOM     30  N   UNL     1      28.145 -24.719 -14.040  0.00  0.00    -0.191 NA
ATOM     31  C   UNL     1      29.243 -24.395 -14.235  0.00  0.00    +0.100 C 
ENDBRANCH  27  31
ENDBRANCH  21  24
ENDBRANCH   4  22
TORSDOF 5
ENDMDL
MODEL 6
REMARK VINA RESULT:     -10.9      3.698     12.638
REMARK  Name = 10200651
REMARK  5 active torsions:
REMARK  status: ('A' for Active; 'I' for Inactive)
REMARK    1  A    between atoms: C_1  and  C_7
REMARK    2  A    between atoms: C_4  and  C_22
REMARK    3  A    between atoms: C_10  and  C_17
REMARK    4  A    between atoms: N_21  and  C_24
REMARK    5  A    between atoms: C_27  and  C_31
REMARK                            x       y       z     vdW  Elec       q    Type
REMARK                         _______ _______ _______ _____ _____    ______ ____
ROOT
ATOM      1  C   UNL     1      33.203 -14.546 -22.837  0.00  0.00    -0.000 C 
ATOM      2  C   UNL     1      33.425 -13.768 -23.974  0.00  0.00    +0.000 C 
ATOM      3  C   UNL     1      32.759 -13.948 -21.658  0.00  0.00    +0.000 C 
ATOM      4  C   UNL     1      32.762 -11.826 -22.752  0.00  0.00    +0.054 C 
ATOM      5  C   UNL     1      33.202 -12.392 -23.931  0.00  0.00    +0.005 C 
ATOM      6  C   UNL     1      32.536 -12.572 -21.615  0.00  0.00    +0.005 C 
ENDROOT
BRANCH   1   7
ATOM      7  C   UNL     1      33.435 -15.974 -22.882  0.00  0.00    -0.004 C 
ATOM      8  C   UNL     1      32.960 -16.749 -23.942  0.00  0.00    -0.022 C 
ATOM      9  C   UNL     1      34.146 -16.578 -21.843  0.00  0.00    +0.004 C 
ATOM     10  C   UNL     1      34.380 -17.953 -21.863  0.00  0.00    +0.055 C 
ATOM     11  C   UNL     1      33.195 -18.124 -23.962  0.00  0.00    -0.004 C 
ATOM     12  C   UNL     1      33.906 -18.726 -22.924  0.00  0.00    +0.004 C 
ATOM     13  C   UNL     1      32.195 -16.140 -25.072  0.00  0.00    +0.031 C 
BRANCH  10  17
ATOM     14  O   UNL     1      34.569 -19.714 -20.287  0.00  0.00    -0.420 OA
ATOM     15  N   UNL     1      36.231 -18.218 -20.212  0.00  0.00    -0.107 NA
ATOM     16  N   UNL     1      36.474 -19.175 -19.245  0.00  0.00    -0.111 NA
ATOM     17  C   UNL     1      35.114 -18.576 -20.789  0.00  0.00    +0.250 A 
ATOM     18  C   UNL     1      35.479 -20.027 -19.324  0.00  0.00    +0.227 A 
ATOM     19  C   UNL     1      35.220 -21.239 -18.539  0.00  0.00    +0.097 C 
ENDBRANCH  10  17
ENDBRANCH   1   7
BRANCH   4  22
ATOM     20  O   UNL     1      31.731  -9.934 -21.874  0.00  0.00    -0.270 OA
ATOM     21  N   UNL     1      33.267  -9.601 -23.623  0.00  0.00    -0.280 N 
ATOM     22  C   UNL     1      32.526 -10.359 -22.706  0.00  0.00    +0.249 C 
ATOM     23  H   UNL     1      33.861 -10.110 -24.222  0.00  0.00    +0.155 HD
BRANCH  21  24
ATOM     24  C   UNL     1      33.270  -8.216 -23.790  0.00  0.00    +0.051 C 
ATOM     25  C   UNL     1      32.386  -7.620 -24.689  0.00  0.00    +0.025 C 
ATOM     26  C   UNL     1      34.156  -7.427 -23.057  0.00  0.00    +0.015 C 
ATOM     27  C   UNL     1      32.389  -6.235 -24.856  0.00  0.00    +0.070 C 
ATOM     28  C   UNL     1      34.159  -6.042 -23.223  0.00  0.00    +0.002 C 
ATOM     29  C   UNL     1      33.276  -5.447 -24.123  0.00  0.00    +0.010 C 
BRANCH  27  31
ATOM     30  N   UNL     1      30.749  -5.126 -26.527  0.00  0.00    -0.191 NA
ATOM     31  C   UNL     1      31.485  -5.624 -25.778  0.00  0.00    +0.100 C 
ENDBRANCH  27  31
ENDBRANCH  21  24
ENDBRANCH   4  22
TORSDOF 5
ENDMDL
MODEL 7
REMARK VINA RESULT:     -10.8      4.509     12.249
REMARK  Name = 10200651
REMARK  5 active torsions:
REMARK  status: ('A' for Active; 'I' for Inactive)
REMARK    1  A    between atoms: C_1  and  C_7
REMARK    2  A    between atoms: C_4  and  C_22
REMARK    3  A    between atoms: C_10  and  C_17
REMARK    4  A    between atoms: N_21  and  C_24
REMARK    5  A    between atoms: C_27  and  C_31
REMARK                            x       y       z     vdW  Elec       q    Type
REMARK                         _______ _______ _______ _____ _____    ______ ____
ROOT
ATOM      1  C   UNL     1      32.669 -13.783 -21.820  0.00  0.00    -0.000 C 
ATOM      2  C   UNL     1      32.000 -13.790 -20.597  0.00  0.00    +0.000 C 
ATOM      3  C   UNL     1      32.747 -12.608 -22.567  0.00  0.00    +0.000 C 
ATOM      4  C   UNL     1      31.500 -11.471 -20.877  0.00  0.00    +0.054 C 
ATOM      5  C   UNL     1      31.408 -12.620 -20.119  0.00  0.00    +0.005 C 
ATOM      6  C   UNL     1      32.156 -11.438 -22.089  0.00  0.00    +0.005 C 
ENDROOT
BRANCH   1   7
ATOM      7  C   UNL     1      33.283 -14.996 -22.316  0.00  0.00    -0.004 C 
ATOM      8  C   UNL     1      33.298 -15.293 -23.680  0.00  0.00    -0.022 C 
ATOM      9  C   UNL     1      33.867 -15.881 -21.406  0.00  0.00    +0.004 C 
ATOM     10  C   UNL     1      34.463 -17.058 -21.859  0.00  0.00    +0.055 C 
ATOM     11  C   UNL     1      33.895 -16.470 -24.133  0.00  0.00    -0.004 C 
ATOM     12  C   UNL     1      34.478 -17.351 -23.223  0.00  0.00    +0.004 C 
ATOM     13  C   UNL     1      32.684 -14.373 -24.684  0.00  0.00    +0.031 C 
BRANCH  10  17
ATOM     14  O   UNL     1      34.320 -19.057 -20.594  0.00  0.00    -0.420 OA
ATOM     15  N   UNL     1      36.226 -17.919 -20.319  0.00  0.00    -0.107 NA
ATOM     16  N   UNL     1      36.285 -19.050 -19.525  0.00  0.00    -0.111 NA
ATOM     17  C   UNL     1      35.066 -17.970 -20.919  0.00  0.00    +0.250 A 
ATOM     18  C   UNL     1      35.151 -19.683 -19.717  0.00  0.00    +0.227 A 
ATOM     19  C   UNL     1      34.671 -20.940 -19.132  0.00  0.00    +0.097 C 
ENDBRANCH  10  17
ENDBRANCH   1   7
BRANCH   4  22
ATOM     20  O   UNL     1      29.907 -10.339 -19.615  0.00  0.00    -0.270 OA
ATOM     21  N   UNL     1      31.465  -9.031 -20.795  0.00  0.00    -0.280 N 
ATOM     22  C   UNL     1      30.869 -10.225 -20.368  0.00  0.00    +0.249 C 
ATOM     23  H   UNL     1      32.234  -9.127 -21.403  0.00  0.00    +0.155 HD
BRANCH  21  24
ATOM     24  C   UNL     1      31.107  -7.724 -20.461  0.00  0.00    +0.051 C 
ATOM     25  C   UNL     1      30.685  -6.842 -21.455  0.00  0.00    +0.025 C 
ATOM     26  C   UNL     1      31.171  -7.301 -19.134  0.00  0.00    +0.015 C 
ATOM     27  C   UNL     1      30.327  -5.535 -21.122  0.00  0.00    +0.070 C 
ATOM     28  C   UNL     1      30.813  -5.995 -18.800  0.00  0.00    +0.002 C 
ATOM     29  C   UNL     1      30.392  -5.113 -19.794  0.00  0.00    +0.010 C 
BRANCH  27  31
ATOM     30  N   UNL     1      29.544  -3.895 -22.967  0.00  0.00    -0.191 NA
ATOM     31  C   UNL     1      29.895  -4.631 -22.139  0.00  0.00    +0.100 C 
ENDBRANCH  27  31
ENDBRANCH  21  24
ENDBRANCH   4  22
TORSDOF 5
ENDMDL
MODEL 8
REMARK VINA RESULT:     -10.7      2.711     11.269
REMARK  Name = 10200651
REMARK  5 active torsions:
REMARK  status: ('A' for Active; 'I' for Inactive)
REMARK    1  A    between atoms: C_1  and  C_7
REMARK    2  A    between atoms: C_4  and  C_22
REMARK    3  A    between atoms: C_10  and  C_17
REMARK    4  A    between atoms: N_21  and  C_24
REMARK    5  A    between atoms: C_27  and  C_31
REMARK                            x       y       z     vdW  Elec       q    Type
REMARK                         _______ _______ _______ _____ _____    ______ ____
ROOT
ATOM      1  C   UNL     1      34.276 -17.234 -21.369  0.00  0.00    -0.000 C 
ATOM      2  C   UNL     1      34.076 -17.256 -22.750  0.00  0.00    +0.000 C 
ATOM      3  C   UNL     1      34.095 -16.050 -20.656  0.00  0.00    +0.000 C 
ATOM      4  C   UNL     1      33.519 -14.934 -22.687  0.00  0.00    +0.054 C 
ATOM      5  C   UNL     1      33.693 -16.092 -23.416  0.00  0.00    +0.005 C 
ATOM      6  C   UNL     1      33.711 -14.886 -21.323  0.00  0.00    +0.005 C 
ENDROOT
BRANCH   1   7
ATOM      7  C   UNL     1      34.674 -18.441 -20.677  0.00  0.00    -0.004 C 
ATOM      8  C   UNL     1      36.003 -18.869 -20.678  0.00  0.00    -0.022 C 
ATOM      9  C   UNL     1      33.705 -19.185 -20.001  0.00  0.00    +0.004 C 
ATOM     10  C   UNL     1      34.064 -20.353 -19.328  0.00  0.00    +0.055 C 
ATOM     11  C   UNL     1      36.361 -20.037 -20.005  0.00  0.00    -0.004 C 
ATOM     12  C   UNL     1      35.393 -20.779 -19.329  0.00  0.00    +0.004 C 
ATOM     13  C   UNL     1      37.069 -18.101 -21.390  0.00  0.00    +0.031 C 
BRANCH  10  17
ATOM     14  O   UNL     1      33.513 -21.871 -17.591  0.00  0.00    -0.420 OA
ATOM     15  N   UNL     1      31.775 -21.215 -18.837  0.00  0.00    -0.107 NA
ATOM     16  N   UNL     1      31.305 -22.090 -17.875  0.00  0.00    -0.111 NA
ATOM     17  C   UNL     1      33.062 -21.121 -18.630  0.00  0.00    +0.250 A 
ATOM     18  C   UNL     1      32.354 -22.448 -17.173  0.00  0.00    +0.227 A 
ATOM     19  C   UNL     1      32.446 -23.360 -16.026  0.00  0.00    +0.097 C 
ENDBRANCH  10  17
ENDBRANCH   1   7
BRANCH   4  22
ATOM     20  O   UNL     1      32.477 -13.816 -24.440  0.00  0.00    -0.270 OA
ATOM     21  N   UNL     1      33.486 -12.494 -22.778  0.00  0.00    -0.280 N 
ATOM     22  C   UNL     1      33.112 -13.694 -23.399  0.00  0.00    +0.249 C 
ATOM     23  H   UNL     1      33.998 -12.583 -21.941  0.00  0.00    +0.155 HD
BRANCH  21  24
ATOM     24  C   UNL     1      33.222 -11.190 -23.199  0.00  0.00    +0.051 C 
ATOM     25  C   UNL     1      32.317 -10.399 -22.492  0.00  0.00    +0.025 C 
ATOM     26  C   UNL     1      33.863 -10.678 -24.327  0.00  0.00    +0.015 C 
ATOM     27  C   UNL     1      32.053  -9.095 -22.913  0.00  0.00    +0.070 C 
ATOM     28  C   UNL     1      33.599  -9.375 -24.748  0.00  0.00    +0.002 C 
ATOM     29  C   UNL     1      32.694  -8.584 -24.041  0.00  0.00    +0.010 C 
BRANCH  27  31
ATOM     30  N   UNL     1      30.372  -7.625 -21.600  0.00  0.00    -0.191 NA
ATOM     31  C   UNL     1      31.126  -8.285 -22.189  0.00  0.00    +0.100 C 
ENDBRANCH  27  31
ENDBRANCH  21  24
ENDBRANCH   4  22
TORSDOF 5
ENDMDL
MODEL 9
REMARK VINA RESULT:     -10.5      5.640     11.067
REMARK  Name = 10200651
REMARK  5 active torsions:
REMARK  status: ('A' for Active; 'I' for Inactive)
REMARK    1  A    between atoms: C_1  and  C_7
REMARK    2  A    between atoms: C_4  and  C_22
REMARK    3  A    between atoms: C_10  and  C_17
REMARK    4  A    between atoms: N_21  and  C_24
REMARK    5  A    between atoms: C_27  and  C_31
REMARK                            x       y       z     vdW  Elec       q    Type
REMARK                         _______ _______ _______ _____ _____    ______ ____
ROOT
ATOM      1  C   UNL     1      32.872  -8.971 -23.797  0.00  0.00    -0.000 C 
ATOM      2  C   UNL     1      33.605  -9.931 -24.495  0.00  0.00    +0.000 C 
ATOM      3  C   UNL     1      32.104  -9.345 -22.695  0.00  0.00    +0.000 C 
ATOM      4  C   UNL     1      32.804 -11.608 -22.995  0.00  0.00    +0.054 C 
ATOM      5  C   UNL     1      33.571 -11.265 -24.089  0.00  0.00    +0.005 C 
ATOM      6  C   UNL     1      32.070 -10.679 -22.289  0.00  0.00    +0.005 C 
ENDROOT
BRANCH   1   7
ATOM      7  C   UNL     1      32.907  -7.587 -24.218  0.00  0.00    -0.004 C 
ATOM      8  C   UNL     1      33.626  -6.631 -23.498  0.00  0.00    -0.022 C 
ATOM      9  C   UNL     1      32.207  -7.209 -25.366  0.00  0.00    +0.004 C 
ATOM     10  C   UNL     1      32.224  -5.881 -25.792  0.00  0.00    +0.055 C 
ATOM     11  C   UNL     1      33.644  -5.303 -23.924  0.00  0.00    -0.004 C 
ATOM     12  C   UNL     1      32.944  -4.928 -25.071  0.00  0.00    +0.004 C 
ATOM     13  C   UNL     1      34.388  -6.995 -22.265  0.00  0.00    +0.031 C 
BRANCH  10  17
ATOM     14  O   UNL     1      30.900  -4.276 -26.927  0.00  0.00    -0.420 OA
ATOM     15  N   UNL     1      31.322  -6.130 -28.104  0.00  0.00    -0.107 NA
ATOM     16  N   UNL     1      30.547  -5.295 -28.887  0.00  0.00    -0.111 NA
ATOM     17  C   UNL     1      31.500  -5.493 -26.977  0.00  0.00    +0.250 A 
ATOM     18  C   UNL     1      30.324  -4.226 -28.159  0.00  0.00    +0.227 A 
ATOM     19  C   UNL     1      29.561  -3.016 -28.484  0.00  0.00    +0.097 C 
ENDBRANCH  10  17
ENDBRANCH   1   7
BRANCH   4  22
ATOM     20  O   UNL     1      32.111 -13.307 -21.566  0.00  0.00    -0.270 OA
ATOM     21  N   UNL     1      33.484 -13.922 -23.372  0.00  0.00    -0.280 N 
ATOM     22  C   UNL     1      32.767 -13.030 -22.564  0.00  0.00    +0.249 C 
ATOM     23  H   UNL     1      33.958 -13.525 -24.139  0.00  0.00    +0.155 HD
BRANCH  21  24
ATOM     24  C   UNL     1      33.606 -15.305 -23.227  0.00  0.00    +0.051 C 
ATOM     25  C   UNL     1      34.288 -15.834 -22.132  0.00  0.00    +0.025 C 
ATOM     26  C   UNL     1      33.047 -16.158 -24.178  0.00  0.00    +0.015 C 
ATOM     27  C   UNL     1      34.411 -17.216 -21.987  0.00  0.00    +0.070 C 
ATOM     28  C   UNL     1      33.169 -17.539 -24.035  0.00  0.00    +0.002 C 
ATOM     29  C   UNL     1      33.851 -18.068 -22.939  0.00  0.00    +0.010 C 
BRANCH  27  31
ATOM     30  N   UNL     1      35.677 -18.199 -19.953  0.00  0.00    -0.191 NA
ATOM     31  C   UNL     1      35.109 -17.758 -20.865  0.00  0.00    +0.100 C 
ENDBRANCH  27  31
ENDBRANCH  21  24
ENDBRANCH   4  22
TORSDOF 5
ENDMDL
