MODEL 1
REMARK VINA RESULT:     -12.0      0.000      0.000
REMARK  Name = 12136798
REMARK  7 active torsions:
REMARK  status: ('A' for Active; 'I' for Inactive)
REMARK    1  A    between atoms: C_1  and  C_21
REMARK    2  A    between atoms: C_2  and  C_9
REMARK    3  A    between atoms: N_8  and  C_12
REMARK    4  A    between atoms: C_13  and  N_18
REMARK    5  A    between atoms: C_21  and  N_23
REMARK    6  A    between atoms: C_24  and  C_26
REMARK    7  A    between atoms: C_27  and  C_29
REMARK                            x       y       z     vdW  Elec       q    Type
REMARK                         _______ _______ _______ _____ _____    ______ ____
ROOT
ATOM      1  C   UNL     1      34.430 -19.789 -19.928  0.00  0.00    -0.003 C 
ATOM      2  C   UNL     1      33.262 -21.701 -18.283  0.00  0.00    +0.054 C 
ATOM      3  C   UNL     1      35.235 -20.599 -19.136  0.00  0.00    -0.002 C 
ATOM      4  C   UNL     1      33.047 -19.924 -19.905  0.00  0.00    -0.002 C 
ATOM      5  C   UNL     1      34.649 -21.559 -18.310  0.00  0.00    +0.004 C 
ATOM      6  C   UNL     1      32.461 -20.884 -19.080  0.00  0.00    +0.004 C 
ENDROOT
BRANCH   2   9
ATOM      7  O   UNL     1      32.663 -23.890 -17.774  0.00  0.00    -0.270 OA
ATOM      8  N   UNL     1      32.108 -22.222 -16.220  0.00  0.00    -0.279 N 
ATOM      9  C   UNL     1      32.650 -22.700 -17.420  0.00  0.00    +0.250 C 
ATOM     10  H   UNL     1      32.174 -21.249 -16.078  0.00  0.00    +0.155 HD
BRANCH   8  12
ATOM     11  F   UNL     1      29.715 -25.093 -12.148  0.00  0.00    -0.204 F 
ATOM     12  C   UNL     1      31.477 -22.954 -15.184  0.00  0.00    +0.064 C 
ATOM     13  C   UNL     1      30.096 -23.038 -15.127  0.00  0.00    +0.057 C 
ATOM     14  C   UNL     1      32.277 -23.575 -14.238  0.00  0.00    +0.018 C 
ATOM     15  C   UNL     1      29.497 -23.764 -14.097  0.00  0.00    +0.045 C 
ATOM     16  C   UNL     1      31.679 -24.301 -13.209  0.00  0.00    +0.031 C 
ATOM     17  C   UNL     1      30.289 -24.395 -13.137  0.00  0.00    +0.141 C 
BRANCH  13  18
ATOM     18  N   UNL     1      29.275 -22.407 -16.087  0.00  0.00    -0.356 N 
ATOM     19  H   UNL     1      29.061 -22.868 -16.931  0.00  0.00    +0.142 HD
ATOM     20  H   UNL     1      28.915 -21.507 -15.914  0.00  0.00    +0.142 HD
ENDBRANCH  13  18
ENDBRANCH   8  12
ENDBRANCH   2   9
BRANCH   1  21
ATOM     21  C   UNL     1      35.060 -18.756 -20.817  0.00  0.00    +0.117 C 
BRANCH  21  23
ATOM     22  O   UNL     1      34.570 -16.696 -22.794  0.00  0.00    -0.270 OA
ATOM     23  N   UNL     1      34.508 -17.438 -20.592  0.00  0.00    -0.297 N 
ATOM     24  C   UNL     1      34.310 -16.519 -21.608  0.00  0.00    +0.246 C 
ATOM     25  H   UNL     1      34.261 -17.184 -19.674  0.00  0.00    +0.150 HD
BRANCH  24  26
ATOM     26  C   UNL     1      33.730 -15.245 -21.097  0.00  0.00    +0.058 C 
ATOM     27  C   UNL     1      32.991 -14.473 -21.908  0.00  0.00    +0.006 C 
BRANCH  27  29
ATOM     28  N   UNL     1      31.912 -10.899 -22.001  0.00  0.00    -0.242 NA
ATOM     29  C   UNL     1      32.361 -13.202 -21.506  0.00  0.00    +0.019 C 
ATOM     30  C   UNL     1      31.662 -13.117 -20.321  0.00  0.00    +0.003 C 
ATOM     31  C   UNL     1      32.466 -12.093 -22.310  0.00  0.00    +0.099 C 
ATOM     32  C   UNL     1      31.078 -11.905 -19.968  0.00  0.00    +0.021 C 
ATOM     33  C   UNL     1      31.231 -10.836 -20.835  0.00  0.00    +0.099 C 
ENDBRANCH  27  29
ENDBRANCH  24  26
ENDBRANCH  21  23
ENDBRANCH   1  21
TORSDOF 7
ENDMDL
MODEL 2
REMARK VINA RESULT:     -11.8      0.556      1.548
REMARK  Name = 12136798
REMARK  7 active torsions:
REMARK  status: ('A' for Active; 'I' for Inactive)
REMARK    1  A    between atoms: C_1  and  C_21
REMARK    2  A    between atoms: C_2  and  C_9
REMARK    3  A    between atoms: N_8  and  C_12
REMARK    4  A    between atoms: C_13  and  N_18
REMARK    5  A    between atoms: C_21  and  N_23
REMARK    6  A    between atoms: C_24  and  C_26
REMARK    7  A    between atoms: C_27  and  C_29
REMARK                            x       y       z     vdW  Elec       q    Type
REMARK                         _______ _______ _______ _____ _____    ______ ____
ROOT
ATOM      1  C   UNL     1      34.534 -19.780 -19.933  0.00  0.00    -0.003 C 
ATOM      2  C   UNL     1      33.328 -21.680 -18.301  0.00  0.00    +0.054 C 
ATOM      3  C   UNL     1      33.149 -19.891 -19.914  0.00  0.00    -0.002 C 
ATOM      4  C   UNL     1      35.323 -20.610 -19.146  0.00  0.00    -0.002 C 
ATOM      5  C   UNL     1      32.543 -20.843 -19.095  0.00  0.00    +0.004 C 
ATOM      6  C   UNL     1      34.718 -21.563 -18.326  0.00  0.00    +0.004 C 
ENDROOT
BRANCH   2   9
ATOM      7  O   UNL     1      32.747 -23.870 -17.778  0.00  0.00    -0.270 OA
ATOM      8  N   UNL     1      32.093 -22.185 -16.282  0.00  0.00    -0.279 N 
ATOM      9  C   UNL     1      32.697 -22.675 -17.448  0.00  0.00    +0.250 C 
ATOM     10  H   UNL     1      32.135 -21.209 -16.156  0.00  0.00    +0.155 HD
BRANCH   8  12
ATOM     11  F   UNL     1      29.441 -25.011 -12.341  0.00  0.00    -0.204 F 
ATOM     12  C   UNL     1      31.430 -22.910 -15.261  0.00  0.00    +0.064 C 
ATOM     13  C   UNL     1      32.114 -23.302 -14.123  0.00  0.00    +0.057 C 
ATOM     14  C   UNL     1      30.088 -23.212 -15.436  0.00  0.00    +0.018 C 
ATOM     15  C   UNL     1      31.440 -24.015 -13.132  0.00  0.00    +0.045 C 
ATOM     16  C   UNL     1      29.414 -23.924 -14.445  0.00  0.00    +0.031 C 
ATOM     17  C   UNL     1      30.090 -24.327 -13.293  0.00  0.00    +0.141 C 
BRANCH  13  18
ATOM     18  N   UNL     1      33.481 -22.998 -13.939  0.00  0.00    -0.356 N 
ATOM     19  H   UNL     1      33.998 -22.593 -14.672  0.00  0.00    +0.142 HD
ATOM     20  H   UNL     1      33.917 -23.190 -13.077  0.00  0.00    +0.142 HD
ENDBRANCH  13  18
ENDBRANCH   8  12
ENDBRANCH   2   9
BRANCH   1  21
ATOM     21  C   UNL     1      35.187 -18.754 -20.814  0.00  0.00    +0.117 C 
BRANCH  21  23
ATOM     22  O   UNL     1      34.477 -16.812 -22.844  0.00  0.00    -0.270 OA
ATOM     23  N   UNL     1      34.634 -17.434 -20.609  0.00  0.00    -0.297 N 
ATOM     24  C   UNL     1      34.326 -16.574 -21.650  0.00  0.00    +0.246 C 
ATOM     25  H   UNL     1      34.470 -17.132 -19.686  0.00  0.00    +0.150 HD
BRANCH  24  26
ATOM     26  C   UNL     1      33.773 -15.282 -21.155  0.00  0.00    +0.058 C 
ATOM     27  C   UNL     1      33.011 -14.527 -21.960  0.00  0.00    +0.006 C 
BRANCH  27  29
ATOM     28  N   UNL     1      32.014 -10.930 -22.084  0.00  0.00    -0.242 NA
ATOM     29  C   UNL     1      32.404 -13.241 -21.573  0.00  0.00    +0.019 C 
ATOM     30  C   UNL     1      31.690 -13.135 -20.398  0.00  0.00    +0.003 C 
ATOM     31  C   UNL     1      32.545 -12.138 -22.380  0.00  0.00    +0.099 C 
ATOM     32  C   UNL     1      31.130 -11.908 -20.059  0.00  0.00    +0.021 C 
ATOM     33  C   UNL     1      31.319 -10.847 -20.928  0.00  0.00    +0.099 C 
ENDBRANCH  27  29
ENDBRANCH  24  26
ENDBRANCH  21  23
ENDBRANCH   1  21
TORSDOF 7
ENDMDL
MODEL 3
REMARK VINA RESULT:     -11.5      1.935      2.418
REMARK  Name = 12136798
REMARK  7 active torsions:
REMARK  status: ('A' for Active; 'I' for Inactive)
REMARK    1  A    between atoms: C_1  and  C_21
REMARK    2  A    between atoms: C_2  and  C_9
REMARK    3  A    between atoms: N_8  and  C_12
REMARK    4  A    between atoms: C_13  and  N_18
REMARK    5  A    between atoms: C_21  and  N_23
REMARK    6  A    between atoms: C_24  and  C_26
REMARK    7  A    between atoms: C_27  and  C_29
REMARK                            x       y       z     vdW  Elec       q    Type
REMARK                         _______ _______ _______ _____ _____    ______ ____
ROOT
ATOM      1  C   UNL     1      35.210 -20.046 -19.541  0.00  0.00    -0.003 C 
ATOM      2  C   UNL     1      33.621 -21.800 -18.083  0.00  0.00    +0.054 C 
ATOM      3  C   UNL     1      33.863 -20.179 -19.856  0.00  0.00    -0.002 C 
ATOM      4  C   UNL     1      35.771 -20.782 -18.504  0.00  0.00    -0.002 C 
ATOM      5  C   UNL     1      33.065 -21.058 -19.125  0.00  0.00    +0.004 C 
ATOM      6  C   UNL     1      34.974 -21.662 -17.772  0.00  0.00    +0.004 C 
ENDROOT
BRANCH   2   9
ATOM      7  O   UNL     1      32.503 -23.823 -17.812  0.00  0.00    -0.270 OA
ATOM      8  N   UNL     1      32.396 -22.277 -16.051  0.00  0.00    -0.279 N 
ATOM      9  C   UNL     1      32.790 -22.720 -17.320  0.00  0.00    +0.250 C 
ATOM     10  H   UNL     1      32.702 -21.376 -15.797  0.00  0.00    +0.155 HD
BRANCH   8  12
ATOM     11  F   UNL     1      29.411 -24.946 -12.240  0.00  0.00    -0.204 F 
ATOM     12  C   UNL     1      31.614 -22.955 -15.083  0.00  0.00    +0.064 C 
ATOM     13  C   UNL     1      30.232 -22.941 -15.164  0.00  0.00    +0.057 C 
ATOM     14  C   UNL     1      32.269 -23.626 -14.062  0.00  0.00    +0.018 C 
ATOM     15  C   UNL     1      29.483 -23.617 -14.200  0.00  0.00    +0.045 C 
ATOM     16  C   UNL     1      31.521 -24.301 -13.099  0.00  0.00    +0.031 C 
ATOM     17  C   UNL     1      30.128 -24.296 -13.166  0.00  0.00    +0.141 C 
BRANCH  13  18
ATOM     18  N   UNL     1      29.557 -22.259 -16.201  0.00  0.00    -0.356 N 
ATOM     19  H   UNL     1      28.573 -22.223 -16.207  0.00  0.00    +0.142 HD
ATOM     20  H   UNL     1      30.070 -21.820 -16.918  0.00  0.00    +0.142 HD
ENDBRANCH  13  18
ENDBRANCH   8  12
ENDBRANCH   2   9
BRANCH   1  21
ATOM     21  C   UNL     1      36.068 -19.099 -20.327  0.00  0.00    +0.117 C 
BRANCH  21  23
ATOM     22  O   UNL     1      34.492 -16.708 -19.889  0.00  0.00    -0.270 OA
ATOM     23  N   UNL     1      35.303 -18.361 -21.308  0.00  0.00    -0.297 N 
ATOM     24  C   UNL     1      34.578 -17.222 -20.999  0.00  0.00    +0.246 C 
ATOM     25  H   UNL     1      35.299 -18.683 -22.238  0.00  0.00    +0.150 HD
BRANCH  24  26
ATOM     26  C   UNL     1      33.886 -16.665 -22.196  0.00  0.00    +0.058 C 
ATOM     27  C   UNL     1      33.926 -15.347 -22.438  0.00  0.00    +0.006 C 
BRANCH  27  29
ATOM     28  N   UNL     1      32.239 -14.900 -25.741  0.00  0.00    -0.242 NA
ATOM     29  C   UNL     1      33.289 -14.690 -23.594  0.00  0.00    +0.019 C 
ATOM     30  C   UNL     1      33.144 -13.319 -23.621  0.00  0.00    +0.003 C 
ATOM     31  C   UNL     1      32.833 -15.439 -24.651  0.00  0.00    +0.099 C 
ATOM     32  C   UNL     1      32.539 -12.727 -24.725  0.00  0.00    +0.021 C 
ATOM     33  C   UNL     1      32.107 -13.555 -25.748  0.00  0.00    +0.099 C 
ENDBRANCH  27  29
ENDBRANCH  24  26
ENDBRANCH  21  23
ENDBRANCH   1  21
TORSDOF 7
ENDMDL
MODEL 4
REMARK VINA RESULT:     -11.5      4.126     11.070
REMARK  Name = 12136798
REMARK  7 active torsions:
REMARK  status: ('A' for Active; 'I' for Inactive)
REMARK    1  A    between atoms: C_1  and  C_21
REMARK    2  A    between atoms: C_2  and  C_9
REMARK    3  A    between atoms: N_8  and  C_12
REMARK    4  A    between atoms: C_13  and  N_18
REMARK    5  A    between atoms: C_21  and  N_23
REMARK    6  A    between atoms: C_24  and  C_26
REMARK    7  A    between atoms: C_27  and  C_29
REMARK                            x       y       z     vdW  Elec       q    Type
REMARK                         _______ _______ _______ _____ _____    ______ ____
ROOT
ATOM      1  C   UNL     1      35.151 -20.118 -19.534  0.00  0.00    -0.003 C 
ATOM      2  C   UNL     1      34.291 -18.438 -21.575  0.00  0.00    +0.054 C 
ATOM      3  C   UNL     1      33.825 -20.160 -19.947  0.00  0.00    -0.002 C 
ATOM      4  C   UNL     1      36.052 -19.245 -20.131  0.00  0.00    -0.002 C 
ATOM      5  C   UNL     1      33.393 -19.317 -20.971  0.00  0.00    +0.004 C 
ATOM      6  C   UNL     1      35.621 -18.401 -21.155  0.00  0.00    +0.004 C 
ENDROOT
BRANCH   2   9
ATOM      7  O   UNL     1      33.471 -18.053 -23.717  0.00  0.00    -0.270 OA
ATOM      8  N   UNL     1      33.841 -16.188 -22.344  0.00  0.00    -0.279 N 
ATOM      9  C   UNL     1      33.841 -17.557 -22.642  0.00  0.00    +0.250 C 
ATOM     10  H   UNL     1      34.164 -15.945 -21.446  0.00  0.00    +0.155 HD
BRANCH   8  12
ATOM     11  F   UNL     1      32.260 -12.018 -25.610  0.00  0.00    -0.204 F 
ATOM     12  C   UNL     1      33.438 -15.106 -23.166  0.00  0.00    +0.064 C 
ATOM     13  C   UNL     1      33.376 -13.822 -22.653  0.00  0.00    +0.057 C 
ATOM     14  C   UNL     1      33.111 -15.372 -24.486  0.00  0.00    +0.018 C 
ATOM     15  C   UNL     1      32.976 -12.773 -23.482  0.00  0.00    +0.045 C 
ATOM     16  C   UNL     1      32.712 -14.324 -25.315  0.00  0.00    +0.031 C 
ATOM     17  C   UNL     1      32.643 -13.025 -24.813  0.00  0.00    +0.141 C 
BRANCH  13  18
ATOM     18  N   UNL     1      33.708 -13.544 -21.308  0.00  0.00    -0.356 N 
ATOM     19  H   UNL     1      33.111 -13.840 -20.583  0.00  0.00    +0.142 HD
ATOM     20  H   UNL     1      34.535 -13.054 -21.096  0.00  0.00    +0.142 HD
ENDBRANCH  13  18
ENDBRANCH   8  12
ENDBRANCH   2   9
BRANCH   1  21
ATOM     21  C   UNL     1      35.616 -21.026 -18.433  0.00  0.00    +0.117 C 
BRANCH  21  23
ATOM     22  O   UNL     1      35.725 -22.395 -15.882  0.00  0.00    -0.270 OA
ATOM     23  N   UNL     1      34.510 -21.592 -17.694  0.00  0.00    -0.297 N 
ATOM     24  C   UNL     1      34.664 -22.231 -16.475  0.00  0.00    +0.246 C 
ATOM     25  H   UNL     1      33.605 -21.520 -18.076  0.00  0.00    +0.150 HD
BRANCH  24  26
ATOM     26  C   UNL     1      33.362 -22.718 -15.937  0.00  0.00    +0.058 C 
ATOM     27  C   UNL     1      33.181 -22.821 -14.612  0.00  0.00    +0.006 C 
BRANCH  27  29
ATOM     28  N   UNL     1      30.861 -24.752 -12.413  0.00  0.00    -0.242 NA
ATOM     29  C   UNL     1      31.935 -23.279 -13.972  0.00  0.00    +0.019 C 
ATOM     30  C   UNL     1      30.729 -22.700 -14.306  0.00  0.00    +0.003 C 
ATOM     31  C   UNL     1      31.967 -24.286 -13.037  0.00  0.00    +0.099 C 
ATOM     32  C   UNL     1      29.570 -23.153 -13.685  0.00  0.00    +0.021 C 
ATOM     33  C   UNL     1      29.689 -24.172 -12.754  0.00  0.00    +0.099 C 
ENDBRANCH  27  29
ENDBRANCH  24  26
ENDBRANCH  21  23
ENDBRANCH   1  21
TORSDOF 7
ENDMDL
MODEL 5
REMARK VINA RESULT:     -11.5      5.204     12.113
REMARK  Name = 12136798
REMARK  7 active torsions:
REMARK  status: ('A' for Active; 'I' for Inactive)
REMARK    1  A    between atoms: C_1  and  C_21
REMARK    2  A    between atoms: C_2  and  C_9
REMARK    3  A    between atoms: N_8  and  C_12
REMARK    4  A    between atoms: C_13  and  N_18
REMARK    5  A    between atoms: C_21  and  N_23
REMARK    6  A    between atoms: C_24  and  C_26
REMARK    7  A    between atoms: C_27  and  C_29
REMARK                            x       y       z     vdW  Elec       q    Type
REMARK                         _______ _______ _______ _____ _____    ______ ____
ROOT
ATOM      1  C   UNL     1      33.438 -13.982 -22.578  0.00  0.00    -0.003 C 
ATOM      2  C   UNL     1      31.999 -11.834 -21.558  0.00  0.00    +0.054 C 
ATOM      3  C   UNL     1      32.760 -14.119 -21.373  0.00  0.00    -0.002 C 
ATOM      4  C   UNL     1      33.405 -12.782 -23.278  0.00  0.00    -0.002 C 
ATOM      5  C   UNL     1      32.037 -13.042 -20.861  0.00  0.00    +0.004 C 
ATOM      6  C   UNL     1      32.683 -11.704 -22.767  0.00  0.00    +0.004 C 
ENDROOT
BRANCH   2   9
ATOM      7  O   UNL     1      30.340 -10.925 -20.204  0.00  0.00    -0.270 OA
ATOM      8  N   UNL     1      31.642  -9.442 -21.473  0.00  0.00    -0.279 N 
ATOM      9  C   UNL     1      31.247 -10.709 -21.023  0.00  0.00    +0.250 C 
ATOM     10  H   UNL     1      32.380  -9.429 -22.125  0.00  0.00    +0.155 HD
BRANCH   8  12
ATOM     11  F   UNL     1      29.566  -4.495 -20.142  0.00  0.00    -0.204 F 
ATOM     12  C   UNL     1      31.117  -8.176 -21.114  0.00  0.00    +0.064 C 
ATOM     13  C   UNL     1      31.307  -7.676 -19.836  0.00  0.00    +0.057 C 
ATOM     14  C   UNL     1      30.414  -7.461 -22.071  0.00  0.00    +0.018 C 
ATOM     15  C   UNL     1      30.781  -6.427 -19.506  0.00  0.00    +0.045 C 
ATOM     16  C   UNL     1      29.889  -6.212 -21.741  0.00  0.00    +0.031 C 
ATOM     17  C   UNL     1      30.071  -5.695 -20.458  0.00  0.00    +0.141 C 
BRANCH  13  18
ATOM     18  N   UNL     1      32.022  -8.399 -18.856  0.00  0.00    -0.356 N 
ATOM     19  H   UNL     1      32.023  -8.091 -17.921  0.00  0.00    +0.142 HD
ATOM     20  H   UNL     1      32.518  -9.212 -19.107  0.00  0.00    +0.142 HD
ENDBRANCH  13  18
ENDBRANCH   8  12
ENDBRANCH   2   9
BRANCH   1  21
ATOM     21  C   UNL     1      34.215 -15.142 -23.130  0.00  0.00    +0.117 C 
BRANCH  21  23
ATOM     22  O   UNL     1      33.784 -17.723 -24.375  0.00  0.00    -0.270 OA
ATOM     23  N   UNL     1      33.872 -16.385 -22.476  0.00  0.00    -0.297 N 
ATOM     24  C   UNL     1      33.686 -17.574 -23.161  0.00  0.00    +0.246 C 
ATOM     25  H   UNL     1      33.766 -16.386 -21.497  0.00  0.00    +0.150 HD
BRANCH  24  26
ATOM     26  C   UNL     1      33.340 -18.695 -22.242  0.00  0.00    +0.058 C 
ATOM     27  C   UNL     1      33.928 -18.779 -21.039  0.00  0.00    +0.006 C 
BRANCH  27  29
ATOM     28  N   UNL     1      32.042 -21.094 -18.795  0.00  0.00    -0.242 NA
ATOM     29  C   UNL     1      33.655 -19.835 -20.048  0.00  0.00    +0.019 C 
ATOM     30  C   UNL     1      34.696 -20.529 -19.467  0.00  0.00    +0.003 C 
ATOM     31  C   UNL     1      32.361 -20.137 -19.696  0.00  0.00    +0.099 C 
ATOM     32  C   UNL     1      34.408 -21.520 -18.535  0.00  0.00    +0.021 C 
ATOM     33  C   UNL     1      33.077 -21.762 -18.237  0.00  0.00    +0.099 C 
ENDBRANCH  27  29
ENDBRANCH  24  26
ENDBRANCH  21  23
ENDBRANCH   1  21
TORSDOF 7
ENDMDL
MODEL 6
REMARK VINA RESULT:     -11.2      5.032     12.325
REMARK  Name = 12136798
REMARK  7 active torsions:
REMARK  status: ('A' for Active; 'I' for Inactive)
REMARK    1  A    between atoms: C_1  and  C_21
REMARK    2  A    between atoms: C_2  and  C_9
REMARK    3  A    between atoms: N_8  and  C_12
REMARK    4  A    between atoms: C_13  and  N_18
REMARK    5  A    between atoms: C_21  and  N_23
REMARK    6  A    between atoms: C_24  and  C_26
REMARK    7  A    between atoms: C_27  and  C_29
REMARK                            x       y       z     vdW  Elec       q    Type
REMARK                         _______ _______ _______ _____ _____    ______ ____
ROOT
ATOM      1  C   UNL     1      33.569 -16.148 -23.345  0.00  0.00    -0.003 C 
ATOM      2  C   UNL     1      33.000 -13.474 -22.844  0.00  0.00    +0.054 C 
ATOM      3  C   UNL     1      32.920 -15.390 -24.313  0.00  0.00    -0.002 C 
ATOM      4  C   UNL     1      33.936 -15.583 -22.130  0.00  0.00    -0.002 C 
ATOM      5  C   UNL     1      32.635 -14.047 -24.062  0.00  0.00    +0.004 C 
ATOM      6  C   UNL     1      33.650 -14.241 -21.878  0.00  0.00    +0.004 C 
ENDROOT
BRANCH   2   9
ATOM      7  O   UNL     1      31.935 -11.787 -21.647  0.00  0.00    -0.270 OA
ATOM      8  N   UNL     1      33.342 -11.146 -23.413  0.00  0.00    -0.279 N 
ATOM      9  C   UNL     1      32.701 -12.074 -22.581  0.00  0.00    +0.250 C 
ATOM     10  H   UNL     1      33.922 -11.526 -24.112  0.00  0.00    +0.155 HD
BRANCH   8  12
ATOM     11  F   UNL     1      32.976  -5.634 -23.240  0.00  0.00    -0.204 F 
ATOM     12  C   UNL     1      33.264  -9.732 -23.380  0.00  0.00    +0.064 C 
ATOM     13  C   UNL     1      34.205  -8.963 -24.043  0.00  0.00    +0.057 C 
ATOM     14  C   UNL     1      32.227  -9.147 -22.668  0.00  0.00    +0.018 C 
ATOM     15  C   UNL     1      34.108  -7.572 -23.996  0.00  0.00    +0.045 C 
ATOM     16  C   UNL     1      32.130  -7.757 -22.622  0.00  0.00    +0.031 C 
ATOM     17  C   UNL     1      33.070  -6.969 -23.285  0.00  0.00    +0.141 C 
BRANCH  13  18
ATOM     18  N   UNL     1      35.264  -9.551 -24.770  0.00  0.00    -0.356 N 
ATOM     19  H   UNL     1      35.845  -8.991 -25.333  0.00  0.00    +0.142 HD
ATOM     20  H   UNL     1      35.422 -10.522 -24.712  0.00  0.00    +0.142 HD
ENDBRANCH  13  18
ENDBRANCH   8  12
ENDBRANCH   2   9
BRANCH   1  21
ATOM     21  C   UNL     1      33.877 -17.592 -23.615  0.00  0.00    +0.117 C 
BRANCH  21  23
ATOM     22  O   UNL     1      35.686 -18.542 -21.561  0.00  0.00    -0.270 OA
ATOM     23  N   UNL     1      33.556 -18.435 -22.485  0.00  0.00    -0.297 N 
ATOM     24  C   UNL     1      34.496 -18.838 -21.551  0.00  0.00    +0.246 C 
ATOM     25  H   UNL     1      32.625 -18.736 -22.375  0.00  0.00    +0.150 HD
BRANCH  24  26
ATOM     26  C   UNL     1      33.893 -19.700 -20.495  0.00  0.00    +0.058 C 
ATOM     27  C   UNL     1      34.683 -20.320 -19.606  0.00  0.00    +0.006 C 
BRANCH  27  29
ATOM     28  N   UNL     1      34.664 -22.367 -16.482  0.00  0.00    -0.242 NA
ATOM     29  C   UNL     1      34.196 -21.185 -18.516  0.00  0.00    +0.019 C 
ATOM     30  C   UNL     1      32.884 -21.606 -18.498  0.00  0.00    +0.003 C 
ATOM     31  C   UNL     1      35.046 -21.575 -17.511  0.00  0.00    +0.099 C 
ATOM     32  C   UNL     1      32.453 -22.422 -17.457  0.00  0.00    +0.021 C 
ATOM     33  C   UNL     1      33.373 -22.770 -16.483  0.00  0.00    +0.099 C 
ENDBRANCH  27  29
ENDBRANCH  24  26
ENDBRANCH  21  23
ENDBRANCH   1  21
TORSDOF 7
ENDMDL
MODEL 7
REMARK VINA RESULT:     -11.2      1.785      2.345
REMARK  Name = 12136798
REMARK  7 active torsions:
REMARK  status: ('A' for Active; 'I' for Inactive)
REMARK    1  A    between atoms: C_1  and  C_21
REMARK    2  A    between atoms: C_2  and  C_9
REMARK    3  A    between atoms: N_8  and  C_12
REMARK    4  A    between atoms: C_13  and  N_18
REMARK    5  A    between atoms: C_21  and  N_23
REMARK    6  A    between atoms: C_24  and  C_26
REMARK    7  A    between atoms: C_27  and  C_29
REMARK                            x       y       z     vdW  Elec       q    Type
REMARK                         _______ _______ _______ _____ _____    ______ ____
ROOT
ATOM      1  C   UNL     1      35.009 -19.876 -19.740  0.00  0.00    -0.003 C 
ATOM      2  C   UNL     1      33.412 -21.676 -18.348  0.00  0.00    +0.054 C 
ATOM      3  C   UNL     1      35.596 -20.782 -18.865  0.00  0.00    -0.002 C 
ATOM      4  C   UNL     1      33.632 -19.860 -19.926  0.00  0.00    -0.002 C 
ATOM      5  C   UNL     1      34.795 -21.686 -18.167  0.00  0.00    +0.004 C 
ATOM      6  C   UNL     1      32.830 -20.763 -19.227  0.00  0.00    +0.004 C 
ENDROOT
BRANCH   2   9
ATOM      7  O   UNL     1      32.553 -23.805 -17.975  0.00  0.00    -0.270 OA
ATOM      8  N   UNL     1      31.870 -22.089 -16.529  0.00  0.00    -0.279 N 
ATOM      9  C   UNL     1      32.576 -22.617 -17.618  0.00  0.00    +0.250 C 
ATOM     10  H   UNL     1      31.989 -21.124 -16.368  0.00  0.00    +0.155 HD
BRANCH   8  12
ATOM     11  F   UNL     1      28.439 -24.686 -13.060  0.00  0.00    -0.204 F 
ATOM     12  C   UNL     1      31.006 -22.760 -15.629  0.00  0.00    +0.064 C 
ATOM     13  C   UNL     1      31.523 -23.445 -14.542  0.00  0.00    +0.057 C 
ATOM     14  C   UNL     1      29.642 -22.713 -15.869  0.00  0.00    +0.018 C 
ATOM     15  C   UNL     1      30.652 -24.098 -13.669  0.00  0.00    +0.045 C 
ATOM     16  C   UNL     1      28.772 -23.365 -14.997  0.00  0.00    +0.031 C 
ATOM     17  C   UNL     1      29.276 -24.059 -13.897  0.00  0.00    +0.141 C 
BRANCH  13  18
ATOM     18  N   UNL     1      32.911 -23.498 -14.291  0.00  0.00    -0.356 N 
ATOM     19  H   UNL     1      33.532 -23.755 -15.011  0.00  0.00    +0.142 HD
ATOM     20  H   UNL     1      33.260 -23.277 -13.397  0.00  0.00    +0.142 HD
ENDBRANCH  13  18
ENDBRANCH   8  12
ENDBRANCH   2   9
BRANCH   1  21
ATOM     21  C   UNL     1      35.870 -18.904 -20.493  0.00  0.00    +0.117 C 
BRANCH  21  23
ATOM     22  O   UNL     1      34.568 -19.432 -23.027  0.00  0.00    -0.270 OA
ATOM     23  N   UNL     1      35.084 -17.983 -21.284  0.00  0.00    -0.297 N 
ATOM     24  C   UNL     1      34.498 -18.331 -22.489  0.00  0.00    +0.246 C 
ATOM     25  H   UNL     1      34.960 -17.065 -20.949  0.00  0.00    +0.150 HD
BRANCH  24  26
ATOM     26  C   UNL     1      33.749 -17.192 -23.090  0.00  0.00    +0.058 C 
ATOM     27  C   UNL     1      34.190 -15.937 -22.920  0.00  0.00    +0.006 C 
BRANCH  27  29
ATOM     28  N   UNL     1      32.283 -13.737 -25.260  0.00  0.00    -0.242 NA
ATOM     29  C   UNL     1      33.536 -14.739 -23.477  0.00  0.00    +0.019 C 
ATOM     30  C   UNL     1      33.555 -13.550 -22.779  0.00  0.00    +0.003 C 
ATOM     31  C   UNL     1      32.902 -14.799 -24.694  0.00  0.00    +0.099 C 
ATOM     32  C   UNL     1      32.930 -12.436 -23.329  0.00  0.00    +0.021 C 
ATOM     33  C   UNL     1      32.313 -12.581 -24.561  0.00  0.00    +0.099 C 
ENDBRANCH  27  29
ENDBRANCH  24  26
ENDBRANCH  21  23
ENDBRANCH   1  21
TORSDOF 7
ENDMDL
MODEL 8
REMARK VINA RESULT:     -10.7      5.838     12.737
REMARK  Name = 12136798
REMARK  7 active torsions:
REMARK  status: ('A' for Active; 'I' for Inactive)
REMARK    1  A    between atoms: C_1  and  C_21
REMARK    2  A    between atoms: C_2  and  C_9
REMARK    3  A    between atoms: N_8  and  C_12
REMARK    4  A    between atoms: C_13  and  N_18
REMARK    5  A    between atoms: C_21  and  N_23
REMARK    6  A    between atoms: C_24  and  C_26
REMARK    7  A    between atoms: C_27  and  C_29
REMARK                            x       y       z     vdW  Elec       q    Type
REMARK                         _______ _______ _______ _____ _____    ______ ____
ROOT
ATOM      1  C   UNL     1      32.855 -14.224 -24.411  0.00  0.00    -0.003 C 
ATOM      2  C   UNL     1      33.121 -11.525 -23.801  0.00  0.00    +0.054 C 
ATOM      3  C   UNL     1      33.194 -13.841 -23.119  0.00  0.00    -0.002 C 
ATOM      4  C   UNL     1      32.649 -13.272 -25.402  0.00  0.00    -0.002 C 
ATOM      5  C   UNL     1      33.326 -12.487 -22.812  0.00  0.00    +0.004 C 
ATOM      6  C   UNL     1      32.782 -11.917 -25.096  0.00  0.00    +0.004 C 
ENDROOT
BRANCH   2   9
ATOM      7  O   UNL     1      34.297  -9.518 -23.820  0.00  0.00    -0.270 OA
ATOM      8  N   UNL     1      32.172  -9.523 -22.825  0.00  0.00    -0.279 N 
ATOM      9  C   UNL     1      33.261 -10.112 -23.482  0.00  0.00    +0.250 C 
ATOM     10  H   UNL     1      31.418 -10.124 -22.623  0.00  0.00    +0.155 HD
BRANCH   8  12
ATOM     11  F   UNL     1      31.559  -4.293 -21.148  0.00  0.00    -0.204 F 
ATOM     12  C   UNL     1      32.014  -8.177 -22.414  0.00  0.00    +0.064 C 
ATOM     13  C   UNL     1      31.872  -7.170 -23.354  0.00  0.00    +0.057 C 
ATOM     14  C   UNL     1      32.006  -7.902 -21.056  0.00  0.00    +0.018 C 
ATOM     15  C   UNL     1      31.718  -5.851 -22.924  0.00  0.00    +0.045 C 
ATOM     16  C   UNL     1      31.851  -6.584 -20.627  0.00  0.00    +0.031 C 
ATOM     17  C   UNL     1      31.708  -5.558 -21.561  0.00  0.00    +0.141 C 
BRANCH  13  18
ATOM     18  N   UNL     1      31.879  -7.443 -24.740  0.00  0.00    -0.356 N 
ATOM     19  H   UNL     1      31.048  -7.363 -25.261  0.00  0.00    +0.142 HD
ATOM     20  H   UNL     1      32.716  -7.711 -25.185  0.00  0.00    +0.142 HD
ENDBRANCH  13  18
ENDBRANCH   8  12
ENDBRANCH   2   9
BRANCH   1  21
ATOM     21  C   UNL     1      32.711 -15.681 -24.741  0.00  0.00    +0.117 C 
BRANCH  21  23
ATOM     22  O   UNL     1      32.205 -18.484 -24.211  0.00  0.00    -0.270 OA
ATOM     23  N   UNL     1      33.375 -16.525 -23.772  0.00  0.00    -0.297 N 
ATOM     24  C   UNL     1      33.061 -17.861 -23.593  0.00  0.00    +0.246 C 
ATOM     25  H   UNL     1      34.084 -16.129 -23.214  0.00  0.00    +0.150 HD
BRANCH  24  26
ATOM     26  C   UNL     1      33.898 -18.488 -22.531  0.00  0.00    +0.058 C 
ATOM     27  C   UNL     1      33.312 -19.072 -21.475  0.00  0.00    +0.006 C 
BRANCH  27  29
ATOM     28  N   UNL     1      36.066 -19.961 -19.114  0.00  0.00    -0.242 NA
ATOM     29  C   UNL     1      34.038 -19.731 -20.374  0.00  0.00    +0.019 C 
ATOM     30  C   UNL     1      33.412 -20.687 -19.603  0.00  0.00    +0.003 C 
ATOM     31  C   UNL     1      35.344 -19.395 -20.108  0.00  0.00    +0.099 C 
ATOM     32  C   UNL     1      34.123 -21.292 -18.572  0.00  0.00    +0.021 C 
ATOM     33  C   UNL     1      35.435 -20.896 -18.370  0.00  0.00    +0.099 C 
ENDBRANCH  27  29
ENDBRANCH  24  26
ENDBRANCH  21  23
ENDBRANCH   1  21
TORSDOF 7
ENDMDL
MODEL 9
REMARK VINA RESULT:     -10.6      4.503      7.418
REMARK  Name = 12136798
REMARK  7 active torsions:
REMARK  status: ('A' for Active; 'I' for Inactive)
REMARK    1  A    between atoms: C_1  and  C_21
REMARK    2  A    between atoms: C_2  and  C_9
REMARK    3  A    between atoms: N_8  and  C_12
REMARK    4  A    between atoms: C_13  and  N_18
REMARK    5  A    between atoms: C_21  and  N_23
REMARK    6  A    between atoms: C_24  and  C_26
REMARK    7  A    between atoms: C_27  and  C_29
REMARK                            x       y       z     vdW  Elec       q    Type
REMARK                         _______ _______ _______ _____ _____    ______ ____
ROOT
ATOM      1  C   UNL     1      33.256 -13.419 -23.995  0.00  0.00    -0.003 C 
ATOM      2  C   UNL     1      33.608 -16.025 -23.096  0.00  0.00    +0.054 C 
ATOM      3  C   UNL     1      33.689 -13.645 -22.694  0.00  0.00    -0.002 C 
ATOM      4  C   UNL     1      32.996 -14.482 -24.851  0.00  0.00    -0.002 C 
ATOM      5  C   UNL     1      33.867 -14.953 -22.243  0.00  0.00    +0.004 C 
ATOM      6  C   UNL     1      33.173 -15.790 -24.400  0.00  0.00    +0.004 C 
ENDROOT
BRANCH   2   9
ATOM      7  O   UNL     1      33.807 -18.316 -23.452  0.00  0.00    -0.270 OA
ATOM      8  N   UNL     1      33.964 -17.541 -21.243  0.00  0.00    -0.279 N 
ATOM      9  C   UNL     1      33.791 -17.390 -22.625  0.00  0.00    +0.250 C 
ATOM     10  H   UNL     1      33.927 -16.711 -20.713  0.00  0.00    +0.155 HD
BRANCH   8  12
ATOM     11  F   UNL     1      34.747 -22.197 -18.369  0.00  0.00    -0.204 F 
ATOM     12  C   UNL     1      34.184 -18.731 -20.506  0.00  0.00    +0.064 C 
ATOM     13  C   UNL     1      35.469 -19.111 -20.158  0.00  0.00    +0.057 C 
ATOM     14  C   UNL     1      33.084 -19.496 -20.150  0.00  0.00    +0.018 C 
ATOM     15  C   UNL     1      35.661 -20.288 -19.433  0.00  0.00    +0.045 C 
ATOM     16  C   UNL     1      33.276 -20.671 -19.425  0.00  0.00    +0.031 C 
ATOM     17  C   UNL     1      34.564 -21.068 -19.067  0.00  0.00    +0.141 C 
BRANCH  13  18
ATOM     18  N   UNL     1      36.594 -18.338 -20.518  0.00  0.00    -0.356 N 
ATOM     19  H   UNL     1      37.472 -18.529 -20.115  0.00  0.00    +0.142 HD
ATOM     20  H   UNL     1      36.502 -17.608 -21.173  0.00  0.00    +0.142 HD
ENDBRANCH  13  18
ENDBRANCH   8  12
ENDBRANCH   2   9
BRANCH   1  21
ATOM     21  C   UNL     1      33.066 -12.011 -24.481  0.00  0.00    +0.117 C 
BRANCH  21  23
ATOM     22  O   UNL     1      33.269  -9.122 -24.411  0.00  0.00    -0.270 OA
ATOM     23  N   UNL     1      32.630 -11.127 -23.424  0.00  0.00    -0.297 N 
ATOM     24  C   UNL     1      32.771  -9.751 -23.483  0.00  0.00    +0.246 C 
ATOM     25  H   UNL     1      32.213 -11.522 -22.624  0.00  0.00    +0.150 HD
BRANCH  24  26
ATOM     26  C   UNL     1      32.238  -9.086 -22.260  0.00  0.00    +0.058 C 
ATOM     27  C   UNL     1      32.411  -7.768 -22.086  0.00  0.00    +0.006 C 
BRANCH  27  29
ATOM     28  N   UNL     1      31.319  -6.984 -18.601  0.00  0.00    -0.242 NA
ATOM     29  C   UNL     1      31.919  -7.007 -20.924  0.00  0.00    +0.019 C 
ATOM     30  C   UNL     1      31.609  -5.669 -21.050  0.00  0.00    +0.003 C 
ATOM     31  C   UNL     1      31.766  -7.624 -19.706  0.00  0.00    +0.099 C 
ATOM     32  C   UNL     1      31.147  -4.976 -19.936  0.00  0.00    +0.021 C 
ATOM     33  C   UNL     1      31.021  -5.673 -18.746  0.00  0.00    +0.099 C 
ENDBRANCH  27  29
ENDBRANCH  24  26
ENDBRANCH  21  23
ENDBRANCH   1  21
TORSDOF 7
ENDMDL
