MODEL 1
REMARK VINA RESULT:     -11.9      0.000      0.000
REMARK  Name = 25243828
REMARK  6 active torsions:
REMARK  status: ('A' for Active; 'I' for Inactive)
REMARK    1  A    between atoms: C_1  and  C_18
REMARK    2  A    between atoms: C_4  and  O_7
REMARK    3  A    between atoms: O_7  and  C_9
REMARK    4  A    between atoms: C_11  and  C_17
REMARK    5  A    between atoms: C_18  and  C_21
REMARK    6  A    between atoms: C_26  and  O_27
REMARK                            x       y       z     vdW  Elec       q    Type
REMARK                         _______ _______ _______ _____ _____    ______ ____
ROOT
ATOM      1  C   UNL     1      32.923 -23.057 -14.221  0.00  0.00    -0.019 C 
ATOM      2  C   UNL     1      33.062 -23.188 -15.602  0.00  0.00    +0.033 C 
ATOM      3  C   UNL     1      31.690 -22.700 -13.674  0.00  0.00    -0.004 C 
ATOM      4  C   UNL     1      31.968 -22.960 -16.437  0.00  0.00    +0.147 C 
ATOM      5  C   UNL     1      30.597 -22.472 -14.509  0.00  0.00    +0.003 C 
ATOM      6  C   UNL     1      30.735 -22.603 -15.891  0.00  0.00    +0.038 C 
ENDROOT
BRANCH   4   7
ATOM      7  O   UNL     1      32.103 -23.085 -17.786  0.00  0.00    -0.436 OA
BRANCH   7   9
ATOM      8  N   UNL     1      31.924 -21.191 -19.136  0.00  0.00    -0.210 NA
ATOM      9  C   UNL     1      32.724 -22.053 -18.470  0.00  0.00    +0.230 C 
ATOM     10  C   UNL     1      34.106 -21.960 -18.434  0.00  0.00    +0.058 C 
ATOM     11  C   UNL     1      33.915 -20.006 -19.824  0.00  0.00    +0.091 C 
ATOM     12  C   UNL     1      34.706 -20.913 -19.127  0.00  0.00    +0.010 C 
ATOM     13  C   UNL     1      32.542 -20.187 -19.797  0.00  0.00    +0.106 C 
BRANCH  11  17
ATOM     14  F   UNL     1      34.025 -17.651 -20.234  0.00  0.00    -0.166 F 
ATOM     15  F   UNL     1      35.879 -18.766 -20.398  0.00  0.00    -0.166 F 
ATOM     16  F   UNL     1      34.345 -18.979 -21.925  0.00  0.00    -0.166 F 
ATOM     17  C   UNL     1      34.527 -18.876 -20.575  0.00  0.00    +0.420 C 
ENDBRANCH  11  17
ENDBRANCH   7   9
ENDBRANCH   4   7
BRANCH   1  18
ATOM     18  C   UNL     1      34.102 -23.301 -13.318  0.00  0.00    +0.027 C 
BRANCH  18  21
ATOM     19  O   UNL     1      40.174 -24.257 -13.743  0.00  0.00    -0.226 OA
ATOM     20  N   UNL     1      37.986 -24.937 -14.145  0.00  0.00    -0.246 N 
ATOM     21  C   UNL     1      35.254 -23.968 -14.065  0.00  0.00    +0.008 C 
ATOM     22  C   UNL     1      36.452 -23.013 -14.189  0.00  0.00    +0.022 C 
ATOM     23  C   UNL     1      35.676 -25.271 -13.367  0.00  0.00    +0.022 C 
ATOM     24  C   UNL     1      37.643 -23.702 -14.855  0.00  0.00    +0.097 C 
ATOM     25  C   UNL     1      36.882 -25.902 -14.061  0.00  0.00    +0.097 C 
ATOM     26  C   UNL     1      39.279 -25.095 -13.637  0.00  0.00    +0.402 C 
BRANCH  26  27
ATOM     27  O   UNL     1      39.533 -26.263 -12.979  0.00  0.00    -0.466 OA
ATOM     28  H   UNL     1      39.019 -26.501 -12.233  0.00  0.00    +0.297 HD
ENDBRANCH  26  27
ENDBRANCH  18  21
ENDBRANCH   1  18
TORSDOF 6
ENDMDL
MODEL 2
REMARK VINA RESULT:     -11.4      3.226      5.931
REMARK  Name = 25243828
REMARK  6 active torsions:
REMARK  status: ('A' for Active; 'I' for Inactive)
REMARK    1  A    between atoms: C_1  and  C_18
REMARK    2  A    between atoms: C_4  and  O_7
REMARK    3  A    between atoms: O_7  and  C_9
REMARK    4  A    between atoms: C_11  and  C_17
REMARK    5  A    between atoms: C_18  and  C_21
REMARK    6  A    between atoms: C_26  and  O_27
REMARK                            x       y       z     vdW  Elec       q    Type
REMARK                         _______ _______ _______ _____ _____    ______ ____
ROOT
ATOM      1  C   UNL     1      32.669 -23.618 -13.929  0.00  0.00    -0.019 C 
ATOM      2  C   UNL     1      32.334 -23.667 -15.282  0.00  0.00    +0.033 C 
ATOM      3  C   UNL     1      33.816 -22.940 -13.518  0.00  0.00    -0.004 C 
ATOM      4  C   UNL     1      33.148 -23.039 -16.225  0.00  0.00    +0.147 C 
ATOM      5  C   UNL     1      34.630 -22.311 -14.460  0.00  0.00    +0.003 C 
ATOM      6  C   UNL     1      34.296 -22.360 -15.814  0.00  0.00    +0.038 C 
ENDROOT
BRANCH   4   7
ATOM      7  O   UNL     1      32.824 -23.088 -17.546  0.00  0.00    -0.436 OA
BRANCH   7   9
ATOM      8  N   UNL     1      34.549 -21.913 -18.586  0.00  0.00    -0.210 NA
ATOM      9  C   UNL     1      33.224 -22.032 -18.347  0.00  0.00    +0.230 C 
ATOM     10  C   UNL     1      32.263 -21.172 -18.853  0.00  0.00    +0.058 C 
ATOM     11  C   UNL     1      34.046 -19.965 -19.926  0.00  0.00    +0.091 C 
ATOM     12  C   UNL     1      32.691 -20.121 -19.658  0.00  0.00    +0.010 C 
ATOM     13  C   UNL     1      34.927 -20.879 -19.372  0.00  0.00    +0.106 C 
BRANCH  11  17
ATOM     14  F   UNL     1      34.103 -18.919 -22.078  0.00  0.00    -0.166 F 
ATOM     15  F   UNL     1      34.146 -17.612 -20.347  0.00  0.00    -0.166 F 
ATOM     16  F   UNL     1      35.897 -18.797 -20.856  0.00  0.00    -0.166 F 
ATOM     17  C   UNL     1      34.534 -18.849 -20.782  0.00  0.00    +0.420 C 
ENDBRANCH  11  17
ENDBRANCH   7   9
ENDBRANCH   4   7
BRANCH   1  18
ATOM     18  C   UNL     1      31.793 -24.297 -12.911  0.00  0.00    +0.027 C 
BRANCH  18  21
ATOM     19  O   UNL     1      27.406 -22.046 -16.607  0.00  0.00    -0.226 OA
ATOM     20  N   UNL     1      28.051 -23.364 -14.801  0.00  0.00    -0.246 N 
ATOM     21  C   UNL     1      30.325 -23.918 -13.090  0.00  0.00    +0.008 C 
ATOM     22  C   UNL     1      30.190 -22.595 -13.860  0.00  0.00    +0.022 C 
ATOM     23  C   UNL     1      29.555 -25.039 -13.808  0.00  0.00    +0.022 C 
ATOM     24  C   UNL     1      28.724 -22.254 -14.123  0.00  0.00    +0.097 C 
ATOM     25  C   UNL     1      28.105 -24.634 -14.064  0.00  0.00    +0.097 C 
ATOM     26  C   UNL     1      27.431 -23.136 -16.034  0.00  0.00    +0.402 C 
BRANCH  26  27
ATOM     27  O   UNL     1      26.829 -24.211 -16.619  0.00  0.00    -0.466 OA
ATOM     28  H   UNL     1      26.307 -24.094 -17.387  0.00  0.00    +0.297 HD
ENDBRANCH  26  27
ENDBRANCH  18  21
ENDBRANCH   1  18
TORSDOF 6
ENDMDL
MODEL 3
REMARK VINA RESULT:     -11.1      5.119      8.754
REMARK  Name = 25243828
REMARK  6 active torsions:
REMARK  status: ('A' for Active; 'I' for Inactive)
REMARK    1  A    between atoms: C_1  and  C_18
REMARK    2  A    between atoms: C_4  and  O_7
REMARK    3  A    between atoms: O_7  and  C_9
REMARK    4  A    between atoms: C_11  and  C_17
REMARK    5  A    between atoms: C_18  and  C_21
REMARK    6  A    between atoms: C_26  and  O_27
REMARK                            x       y       z     vdW  Elec       q    Type
REMARK                         _______ _______ _______ _____ _____    ______ ____
ROOT
ATOM      1  C   UNL     1      34.423 -18.021 -21.594  0.00  0.00    -0.019 C 
ATOM      2  C   UNL     1      34.605 -16.645 -21.727  0.00  0.00    +0.033 C 
ATOM      3  C   UNL     1      33.803 -18.745 -22.612  0.00  0.00    -0.004 C 
ATOM      4  C   UNL     1      34.167 -15.991 -22.879  0.00  0.00    +0.147 C 
ATOM      5  C   UNL     1      33.364 -18.091 -23.764  0.00  0.00    +0.003 C 
ATOM      6  C   UNL     1      33.546 -16.715 -23.898  0.00  0.00    +0.038 C 
ENDROOT
BRANCH   4   7
ATOM      7  O   UNL     1      34.342 -14.648 -23.009  0.00  0.00    -0.436 OA
BRANCH   7   9
ATOM      8  N   UNL     1      33.068 -12.696 -22.933  0.00  0.00    -0.210 NA
ATOM      9  C   UNL     1      33.489 -13.816 -22.304  0.00  0.00    +0.230 C 
ATOM     10  C   UNL     1      33.118 -14.168 -21.017  0.00  0.00    +0.058 C 
ATOM     11  C   UNL     1      31.803 -12.155 -20.945  0.00  0.00    +0.091 C 
ATOM     12  C   UNL     1      32.258 -13.317 -20.331  0.00  0.00    +0.010 C 
ATOM     13  C   UNL     1      32.233 -11.892 -22.236  0.00  0.00    +0.106 C 
BRANCH  11  17
ATOM     14  F   UNL     1      31.163  -9.903 -20.455  0.00  0.00    -0.166 F 
ATOM     15  F   UNL     1      29.572 -11.370 -20.592  0.00  0.00    -0.166 F 
ATOM     16  F   UNL     1      30.913 -11.381 -18.881  0.00  0.00    -0.166 F 
ATOM     17  C   UNL     1      30.884 -11.223 -20.237  0.00  0.00    +0.420 C 
ENDBRANCH  11  17
ENDBRANCH   7   9
ENDBRANCH   4   7
BRANCH   1  18
ATOM     18  C   UNL     1      34.894 -18.726 -20.352  0.00  0.00    +0.027 C 
BRANCH  18  21
ATOM     19  O   UNL     1      33.006 -23.067 -16.407  0.00  0.00    -0.226 OA
ATOM     20  N   UNL     1      32.767 -21.916 -18.415  0.00  0.00    -0.246 N 
ATOM     21  C   UNL     1      34.158 -20.048 -20.142  0.00  0.00    +0.008 C 
ATOM     22  C   UNL     1      34.906 -20.937 -19.136  0.00  0.00    +0.022 C 
ATOM     23  C   UNL     1      32.715 -19.801 -19.671  0.00  0.00    +0.022 C 
ATOM     24  C   UNL     1      34.132 -22.223 -18.850  0.00  0.00    +0.097 C 
ATOM     25  C   UNL     1      31.998 -21.119 -19.380  0.00  0.00    +0.097 C 
ATOM     26  C   UNL     1      32.322 -22.393 -17.177  0.00  0.00    +0.402 C 
BRANCH  26  27
ATOM     27  O   UNL     1      31.046 -22.066 -16.825  0.00  0.00    -0.466 OA
ATOM     28  H   UNL     1      30.872 -21.246 -16.407  0.00  0.00    +0.297 HD
ENDBRANCH  26  27
ENDBRANCH  18  21
ENDBRANCH   1  18
TORSDOF 6
ENDMDL
MODEL 4
REMARK VINA RESULT:     -10.8      5.840     10.852
REMARK  Name = 25243828
REMARK  6 active torsions:
REMARK  status: ('A' for Active; 'I' for Inactive)
REMARK    1  A    between atoms: C_1  and  C_18
REMARK    2  A    between atoms: C_4  and  O_7
REMARK    3  A    between atoms: O_7  and  C_9
REMARK    4  A    between atoms: C_11  and  C_17
REMARK    5  A    between atoms: C_18  and  C_21
REMARK    6  A    between atoms: C_26  and  O_27
REMARK                            x       y       z     vdW  Elec       q    Type
REMARK                         _______ _______ _______ _____ _____    ______ ____
ROOT
ATOM      1  C   UNL     1      34.146 -16.341 -22.459  0.00  0.00    -0.019 C 
ATOM      2  C   UNL     1      34.825 -17.113 -21.517  0.00  0.00    +0.033 C 
ATOM      3  C   UNL     1      33.461 -16.959 -23.505  0.00  0.00    -0.004 C 
ATOM      4  C   UNL     1      34.820 -18.504 -21.622  0.00  0.00    +0.147 C 
ATOM      5  C   UNL     1      33.456 -18.350 -23.610  0.00  0.00    +0.003 C 
ATOM      6  C   UNL     1      34.135 -19.123 -22.668  0.00  0.00    +0.038 C 
ENDROOT
BRANCH   4   7
ATOM      7  O   UNL     1      35.484 -19.259 -20.704  0.00  0.00    -0.436 OA
BRANCH   7   9
ATOM      8  N   UNL     1      35.408 -20.834 -18.985  0.00  0.00    -0.210 NA
ATOM      9  C   UNL     1      34.730 -20.044 -19.849  0.00  0.00    +0.230 C 
ATOM     10  C   UNL     1      33.348 -19.980 -19.920  0.00  0.00    +0.058 C 
ATOM     11  C   UNL     1      33.276 -21.602 -18.145  0.00  0.00    +0.091 C 
ATOM     12  C   UNL     1      32.614 -20.777 -19.048  0.00  0.00    +0.010 C 
ATOM     13  C   UNL     1      34.661 -21.594 -18.154  0.00  0.00    +0.106 C 
BRANCH  11  17
ATOM     14  F   UNL     1      32.473 -23.782 -17.574  0.00  0.00    -0.166 F 
ATOM     15  F   UNL     1      33.030 -22.477 -15.933  0.00  0.00    -0.166 F 
ATOM     16  F   UNL     1      31.214 -22.085 -17.063  0.00  0.00    -0.166 F 
ATOM     17  C   UNL     1      32.518 -22.467 -17.201  0.00  0.00    +0.420 C 
ENDBRANCH  11  17
ENDBRANCH   7   9
ENDBRANCH   4   7
BRANCH   1  18
ATOM     18  C   UNL     1      34.152 -14.841 -22.349  0.00  0.00    +0.027 C 
BRANCH  18  21
ATOM     19  O   UNL     1      31.153 -10.857 -18.729  0.00  0.00    -0.226 OA
ATOM     20  N   UNL     1      31.228 -12.214 -20.618  0.00  0.00    -0.246 N 
ATOM     21  C   UNL     1      32.811 -14.307 -21.850  0.00  0.00    +0.008 C 
ATOM     22  C   UNL     1      32.859 -14.035 -20.338  0.00  0.00    +0.022 C 
ATOM     23  C   UNL     1      32.412 -13.034 -22.612  0.00  0.00    +0.022 C 
ATOM     24  C   UNL     1      31.552 -13.415 -19.844  0.00  0.00    +0.097 C 
ATOM     25  C   UNL     1      31.112 -12.448 -22.063  0.00  0.00    +0.097 C 
ATOM     26  C   UNL     1      31.053 -10.998 -19.948  0.00  0.00    +0.402 C 
BRANCH  26  27
ATOM     27  O   UNL     1      30.763  -9.915 -20.723  0.00  0.00    -0.466 OA
ATOM     28  H   UNL     1      30.605  -9.083 -20.324  0.00  0.00    +0.297 HD
ENDBRANCH  26  27
ENDBRANCH  18  21
ENDBRANCH   1  18
TORSDOF 6
ENDMDL
MODEL 5
REMARK VINA RESULT:     -10.7      4.031      5.778
REMARK  Name = 25243828
REMARK  6 active torsions:
REMARK  status: ('A' for Active; 'I' for Inactive)
REMARK    1  A    between atoms: C_1  and  C_18
REMARK    2  A    between atoms: C_4  and  O_7
REMARK    3  A    between atoms: O_7  and  C_9
REMARK    4  A    between atoms: C_11  and  C_17
REMARK    5  A    between atoms: C_18  and  C_21
REMARK    6  A    between atoms: C_26  and  O_27
REMARK                            x       y       z     vdW  Elec       q    Type
REMARK                         _______ _______ _______ _____ _____    ______ ____
ROOT
ATOM      1  C   UNL     1      33.524 -21.622 -18.208  0.00  0.00    -0.019 C 
ATOM      2  C   UNL     1      34.508 -20.884 -18.865  0.00  0.00    +0.033 C 
ATOM      3  C   UNL     1      32.179 -21.435 -18.531  0.00  0.00    -0.004 C 
ATOM      4  C   UNL     1      34.148 -19.957 -19.844  0.00  0.00    +0.147 C 
ATOM      5  C   UNL     1      31.819 -20.509 -19.510  0.00  0.00    +0.003 C 
ATOM      6  C   UNL     1      32.803 -19.770 -20.167  0.00  0.00    +0.038 C 
ENDROOT
BRANCH   4   7
ATOM      7  O   UNL     1      35.107 -19.235 -20.484  0.00  0.00    -0.436 OA
BRANCH   7   9
ATOM      8  N   UNL     1      34.506 -16.982 -20.427  0.00  0.00    -0.210 NA
ATOM      9  C   UNL     1      34.710 -18.096 -21.165  0.00  0.00    +0.230 C 
ATOM     10  C   UNL     1      34.546 -18.157 -22.539  0.00  0.00    +0.058 C 
ATOM     11  C   UNL     1      33.930 -15.833 -22.474  0.00  0.00    +0.091 C 
ATOM     12  C   UNL     1      34.149 -16.999 -23.199  0.00  0.00    +0.010 C 
ATOM     13  C   UNL     1      34.121 -15.876 -21.103  0.00  0.00    +0.106 C 
BRANCH  11  17
ATOM     14  F   UNL     1      34.130 -13.458 -22.681  0.00  0.00    -0.166 F 
ATOM     15  F   UNL     1      33.736 -14.575 -24.499  0.00  0.00    -0.166 F 
ATOM     16  F   UNL     1      32.167 -14.331 -23.014  0.00  0.00    -0.166 F 
ATOM     17  C   UNL     1      33.503 -14.579 -23.151  0.00  0.00    +0.420 C 
ENDBRANCH  11  17
ENDBRANCH   7   9
ENDBRANCH   4   7
BRANCH   1  18
ATOM     18  C   UNL     1      33.910 -22.619 -17.151  0.00  0.00    +0.027 C 
BRANCH  18  21
ATOM     19  O   UNL     1      29.465 -24.921 -13.557  0.00  0.00    -0.226 OA
ATOM     20  N   UNL     1      31.367 -23.610 -13.834  0.00  0.00    -0.246 N 
ATOM     21  C   UNL     1      33.058 -22.466 -15.893  0.00  0.00    +0.008 C 
ATOM     22  C   UNL     1      31.599 -22.865 -16.168  0.00  0.00    +0.022 C 
ATOM     23  C   UNL     1      33.634 -23.300 -14.737  0.00  0.00    +0.022 C 
ATOM     24  C   UNL     1      30.758 -22.801 -14.894  0.00  0.00    +0.097 C 
ATOM     25  C   UNL     1      32.742 -23.216 -13.500  0.00  0.00    +0.097 C 
ATOM     26  C   UNL     1      30.621 -24.637 -13.246  0.00  0.00    +0.402 C 
BRANCH  26  27
ATOM     27  O   UNL     1      31.247 -25.359 -12.273  0.00  0.00    -0.466 OA
ATOM     28  H   UNL     1      31.919 -25.968 -12.502  0.00  0.00    +0.297 HD
ENDBRANCH  26  27
ENDBRANCH  18  21
ENDBRANCH   1  18
TORSDOF 6
ENDMDL
MODEL 6
REMARK VINA RESULT:     -10.3      5.419      9.106
REMARK  Name = 25243828
REMARK  6 active torsions:
REMARK  status: ('A' for Active; 'I' for Inactive)
REMARK    1  A    between atoms: C_1  and  C_18
REMARK    2  A    between atoms: C_4  and  O_7
REMARK    3  A    between atoms: O_7  and  C_9
REMARK    4  A    between atoms: C_11  and  C_17
REMARK    5  A    between atoms: C_18  and  C_21
REMARK    6  A    between atoms: C_26  and  O_27
REMARK                            x       y       z     vdW  Elec       q    Type
REMARK                         _______ _______ _______ _____ _____    ______ ____
ROOT
ATOM      1  C   UNL     1      35.040 -20.688 -19.113  0.00  0.00    -0.019 C 
ATOM      2  C   UNL     1      33.692 -21.036 -19.028  0.00  0.00    +0.033 C 
ATOM      3  C   UNL     1      35.912 -21.014 -18.074  0.00  0.00    -0.004 C 
ATOM      4  C   UNL     1      33.215 -21.711 -17.903  0.00  0.00    +0.147 C 
ATOM      5  C   UNL     1      35.435 -21.689 -16.949  0.00  0.00    +0.003 C 
ATOM      6  C   UNL     1      34.087 -22.038 -16.864  0.00  0.00    +0.038 C 
ENDROOT
BRANCH   4   7
ATOM      7  O   UNL     1      31.900 -22.049 -17.819  0.00  0.00    -0.436 OA
BRANCH   7   9
ATOM      8  N   UNL     1      30.131 -22.350 -16.328  0.00  0.00    -0.210 NA
ATOM      9  C   UNL     1      31.439 -22.545 -16.611  0.00  0.00    +0.230 C 
ATOM     10  C   UNL     1      32.324 -23.204 -15.773  0.00  0.00    +0.058 C 
ATOM     11  C   UNL     1      30.496 -23.514 -14.241  0.00  0.00    +0.091 C 
ATOM     12  C   UNL     1      31.835 -23.696 -14.567  0.00  0.00    +0.010 C 
ATOM     13  C   UNL     1      29.692 -22.840 -15.146  0.00  0.00    +0.106 C 
BRANCH  11  17
ATOM     14  F   UNL     1      30.694 -25.020 -12.393  0.00  0.00    -0.166 F 
ATOM     15  F   UNL     1      29.835 -23.070 -11.985  0.00  0.00    -0.166 F 
ATOM     16  F   UNL     1      28.690 -24.550 -13.092  0.00  0.00    -0.166 F 
ATOM     17  C   UNL     1      29.944 -24.026 -12.957  0.00  0.00    +0.420 C 
ENDBRANCH  11  17
ENDBRANCH   7   9
ENDBRANCH   4   7
BRANCH   1  18
ATOM     18  C   UNL     1      35.555 -19.959 -20.323  0.00  0.00    +0.027 C 
BRANCH  18  21
ATOM     19  O   UNL     1      34.462 -14.551 -23.067  0.00  0.00    -0.226 OA
ATOM     20  N   UNL     1      33.827 -16.735 -22.574  0.00  0.00    -0.246 N 
ATOM     21  C   UNL     1      34.524 -18.973 -20.868  0.00  0.00    +0.008 C 
ATOM     22  C   UNL     1      34.906 -17.528 -20.510  0.00  0.00    +0.022 C 
ATOM     23  C   UNL     1      34.372 -19.127 -22.390  0.00  0.00    +0.022 C 
ATOM     24  C   UNL     1      33.930 -16.528 -21.127  0.00  0.00    +0.097 C 
ATOM     25  C   UNL     1      33.403 -18.089 -22.954  0.00  0.00    +0.097 C 
ATOM     26  C   UNL     1      34.118 -15.674 -23.438  0.00  0.00    +0.402 C 
BRANCH  26  27
ATOM     27  O   UNL     1      34.013 -15.932 -24.773  0.00  0.00    -0.466 OA
ATOM     28  H   UNL     1      33.186 -15.842 -25.203  0.00  0.00    +0.297 HD
ENDBRANCH  26  27
ENDBRANCH  18  21
ENDBRANCH   1  18
TORSDOF 6
ENDMDL
MODEL 7
REMARK VINA RESULT:     -10.2      4.160      5.791
REMARK  Name = 25243828
REMARK  6 active torsions:
REMARK  status: ('A' for Active; 'I' for Inactive)
REMARK    1  A    between atoms: C_1  and  C_18
REMARK    2  A    between atoms: C_4  and  O_7
REMARK    3  A    between atoms: O_7  and  C_9
REMARK    4  A    between atoms: C_11  and  C_17
REMARK    5  A    between atoms: C_18  and  C_21
REMARK    6  A    between atoms: C_26  and  O_27
REMARK                            x       y       z     vdW  Elec       q    Type
REMARK                         _______ _______ _______ _____ _____    ______ ____
ROOT
ATOM      1  C   UNL     1      35.402 -21.679 -16.936  0.00  0.00    -0.019 C 
ATOM      2  C   UNL     1      34.058 -22.039 -16.851  0.00  0.00    +0.033 C 
ATOM      3  C   UNL     1      35.881 -21.028 -18.073  0.00  0.00    -0.004 C 
ATOM      4  C   UNL     1      33.191 -21.749 -17.905  0.00  0.00    +0.147 C 
ATOM      5  C   UNL     1      35.014 -20.738 -19.127  0.00  0.00    +0.003 C 
ATOM      6  C   UNL     1      33.668 -21.098 -19.043  0.00  0.00    +0.038 C 
ENDROOT
BRANCH   4   7
ATOM      7  O   UNL     1      31.879 -22.102 -17.825  0.00  0.00    -0.436 OA
BRANCH   7   9
ATOM      8  N   UNL     1      30.136 -22.306 -16.288  0.00  0.00    -0.210 NA
ATOM      9  C   UNL     1      31.416 -22.592 -16.615  0.00  0.00    +0.230 C 
ATOM     10  C   UNL     1      32.272 -23.335 -15.820  0.00  0.00    +0.058 C 
ATOM     11  C   UNL     1      30.471 -23.545 -14.240  0.00  0.00    +0.091 C 
ATOM     12  C   UNL     1      31.783 -23.818 -14.611  0.00  0.00    +0.010 C 
ATOM     13  C   UNL     1      29.695 -22.792 -15.106  0.00  0.00    +0.106 C 
BRANCH  11  17
ATOM     14  F   UNL     1      30.663 -25.042 -12.383  0.00  0.00    -0.166 F 
ATOM     15  F   UNL     1      29.818 -23.084 -11.985  0.00  0.00    -0.166 F 
ATOM     16  F   UNL     1      28.661 -24.563 -13.081  0.00  0.00    -0.166 F 
ATOM     17  C   UNL     1      29.918 -24.046 -12.952  0.00  0.00    +0.420 C 
ENDBRANCH  11  17
ENDBRANCH   7   9
ENDBRANCH   4   7
BRANCH   1  18
ATOM     18  C   UNL     1      36.339 -21.992 -15.801  0.00  0.00    +0.027 C 
BRANCH  18  21
ATOM     19  O   UNL     1      37.158 -25.638 -10.901  0.00  0.00    -0.226 OA
ATOM     20  N   UNL     1      35.757 -24.431 -12.314  0.00  0.00    -0.246 N 
ATOM     21  C   UNL     1      35.748 -23.036 -14.856  0.00  0.00    +0.008 C 
ATOM     22  C   UNL     1      36.781 -24.127 -14.531  0.00  0.00    +0.022 C 
ATOM     23  C   UNL     1      35.239 -22.376 -13.563  0.00  0.00    +0.022 C 
ATOM     24  C   UNL     1      36.230 -25.126 -13.514  0.00  0.00    +0.097 C 
ATOM     25  C   UNL     1      34.722 -23.423 -12.578  0.00  0.00    +0.097 C 
ATOM     26  C   UNL     1      36.296 -24.775 -11.070  0.00  0.00    +0.402 C 
BRANCH  26  27
ATOM     27  O   UNL     1      35.821 -24.087  -9.993  0.00  0.00    -0.466 OA
ATOM     28  H   UNL     1      35.608 -24.543  -9.203  0.00  0.00    +0.297 HD
ENDBRANCH  26  27
ENDBRANCH  18  21
ENDBRANCH   1  18
TORSDOF 6
ENDMDL
MODEL 8
REMARK VINA RESULT:     -10.2      5.023      9.385
REMARK  Name = 25243828
REMARK  6 active torsions:
REMARK  status: ('A' for Active; 'I' for Inactive)
REMARK    1  A    between atoms: C_1  and  C_18
REMARK    2  A    between atoms: C_4  and  O_7
REMARK    3  A    between atoms: O_7  and  C_9
REMARK    4  A    between atoms: C_11  and  C_17
REMARK    5  A    between atoms: C_18  and  C_21
REMARK    6  A    between atoms: C_26  and  O_27
REMARK                            x       y       z     vdW  Elec       q    Type
REMARK                         _______ _______ _______ _____ _____    ______ ____
ROOT
ATOM      1  C   UNL     1      33.607 -20.663 -19.188  0.00  0.00    -0.019 C 
ATOM      2  C   UNL     1      32.932 -21.402 -18.217  0.00  0.00    +0.033 C 
ATOM      3  C   UNL     1      35.000 -20.579 -19.158  0.00  0.00    -0.004 C 
ATOM      4  C   UNL     1      33.649 -22.056 -17.214  0.00  0.00    +0.147 C 
ATOM      5  C   UNL     1      35.716 -21.233 -18.156  0.00  0.00    +0.003 C 
ATOM      6  C   UNL     1      35.041 -21.972 -17.184  0.00  0.00    +0.038 C 
ENDROOT
BRANCH   4   7
ATOM      7  O   UNL     1      32.990 -22.775 -16.265  0.00  0.00    -0.436 OA
BRANCH   7   9
ATOM      8  N   UNL     1      34.006 -24.582 -15.196  0.00  0.00    -0.210 NA
ATOM      9  C   UNL     1      33.728 -23.259 -15.197  0.00  0.00    +0.230 C 
ATOM     10  C   UNL     1      34.135 -22.380 -14.208  0.00  0.00    +0.058 C 
ATOM     11  C   UNL     1      35.183 -24.247 -13.111  0.00  0.00    +0.091 C 
ATOM     12  C   UNL     1      34.877 -22.891 -13.148  0.00  0.00    +0.010 C 
ATOM     13  C   UNL     1      34.728 -25.043 -14.150  0.00  0.00    +0.106 C 
BRANCH  11  17
ATOM     14  F   UNL     1      36.110 -26.183 -12.055  0.00  0.00    -0.166 F 
ATOM     15  F   UNL     1      37.251 -24.343 -11.913  0.00  0.00    -0.166 F 
ATOM     16  F   UNL     1      35.417 -24.574 -10.767  0.00  0.00    -0.166 F 
ATOM     17  C   UNL     1      35.973 -24.824 -11.990  0.00  0.00    +0.420 C 
ENDBRANCH  11  17
ENDBRANCH   7   9
ENDBRANCH   4   7
BRANCH   1  18
ATOM     18  C   UNL     1      32.836 -19.956 -20.268  0.00  0.00    +0.027 C 
BRANCH  18  21
ATOM     19  O   UNL     1      33.423 -15.798 -24.778  0.00  0.00    -0.226 OA
ATOM     20  N   UNL     1      34.319 -16.975 -22.982  0.00  0.00    -0.246 N 
ATOM     21  C   UNL     1      33.763 -19.220 -21.232  0.00  0.00    +0.008 C 
ATOM     22  C   UNL     1      33.120 -19.093 -22.623  0.00  0.00    +0.022 C 
ATOM     23  C   UNL     1      34.132 -17.831 -20.683  0.00  0.00    +0.022 C 
ATOM     24  C   UNL     1      34.001 -18.279 -23.569  0.00  0.00    +0.097 C 
ATOM     25  C   UNL     1      34.992 -17.056 -21.679  0.00  0.00    +0.097 C 
ATOM     26  C   UNL     1      33.981 -15.812 -23.681  0.00  0.00    +0.402 C 
BRANCH  26  27
ATOM     27  O   UNL     1      34.295 -14.629 -23.078  0.00  0.00    -0.466 OA
ATOM     28  H   UNL     1      33.701 -13.907 -23.128  0.00  0.00    +0.297 HD
ENDBRANCH  26  27
ENDBRANCH  18  21
ENDBRANCH   1  18
TORSDOF 6
ENDMDL
MODEL 9
REMARK VINA RESULT:     -10.2      3.450      5.222
REMARK  Name = 25243828
REMARK  6 active torsions:
REMARK  status: ('A' for Active; 'I' for Inactive)
REMARK    1  A    between atoms: C_1  and  C_18
REMARK    2  A    between atoms: C_4  and  O_7
REMARK    3  A    between atoms: O_7  and  C_9
REMARK    4  A    between atoms: C_11  and  C_17
REMARK    5  A    between atoms: C_18  and  C_21
REMARK    6  A    between atoms: C_26  and  O_27
REMARK                            x       y       z     vdW  Elec       q    Type
REMARK                         _______ _______ _______ _____ _____    ______ ____
ROOT
ATOM      1  C   UNL     1      33.708 -21.328 -18.848  0.00  0.00    -0.019 C 
ATOM      2  C   UNL     1      34.624 -20.492 -19.486  0.00  0.00    +0.033 C 
ATOM      3  C   UNL     1      32.338 -21.113 -19.006  0.00  0.00    -0.004 C 
ATOM      4  C   UNL     1      34.170 -19.439 -20.281  0.00  0.00    +0.147 C 
ATOM      5  C   UNL     1      31.885 -20.060 -19.800  0.00  0.00    +0.003 C 
ATOM      6  C   UNL     1      32.801 -19.223 -20.439  0.00  0.00    +0.038 C 
ENDROOT
BRANCH   4   7
ATOM      7  O   UNL     1      35.063 -18.620 -20.902  0.00  0.00    -0.436 OA
BRANCH   7   9
ATOM      8  N   UNL     1      34.308 -16.426 -20.662  0.00  0.00    -0.210 NA
ATOM      9  C   UNL     1      34.578 -17.463 -21.487  0.00  0.00    +0.230 C 
ATOM     10  C   UNL     1      34.398 -17.429 -22.860  0.00  0.00    +0.058 C 
ATOM     11  C   UNL     1      33.624 -15.166 -22.608  0.00  0.00    +0.091 C 
ATOM     12  C   UNL     1      33.912 -16.254 -23.424  0.00  0.00    +0.010 C 
ATOM     13  C   UNL     1      33.837 -15.301 -21.246  0.00  0.00    +0.106 C 
BRANCH  11  17
ATOM     14  F   UNL     1      31.863 -13.550 -22.715  0.00  0.00    -0.166 F 
ATOM     15  F   UNL     1      33.891 -12.810 -22.924  0.00  0.00    -0.166 F 
ATOM     16  F   UNL     1      32.976 -13.941 -24.541  0.00  0.00    -0.166 F 
ATOM     17  C   UNL     1      33.101 -13.896 -23.181  0.00  0.00    +0.420 C 
ENDBRANCH  11  17
ENDBRANCH   7   9
ENDBRANCH   4   7
BRANCH   1  18
ATOM     18  C   UNL     1      34.195 -22.463 -17.989  0.00  0.00    +0.027 C 
BRANCH  18  21
ATOM     19  O   UNL     1      35.100 -24.117 -12.123  0.00  0.00    -0.226 OA
ATOM     20  N   UNL     1      35.323 -22.570 -13.846  0.00  0.00    -0.246 N 
ATOM     21  C   UNL     1      34.405 -22.024 -16.542  0.00  0.00    +0.008 C 
ATOM     22  C   UNL     1      33.609 -22.917 -15.578  0.00  0.00    +0.022 C 
ATOM     23  C   UNL     1      35.899 -22.038 -16.178  0.00  0.00    +0.022 C 
ATOM     24  C   UNL     1      33.884 -22.543 -14.122  0.00  0.00    +0.097 C 
ATOM     25  C   UNL     1      36.111 -21.679 -14.709  0.00  0.00    +0.097 C 
ATOM     26  C   UNL     1      35.807 -23.394 -12.826  0.00  0.00    +0.402 C 
BRANCH  26  27
ATOM     27  O   UNL     1      37.156 -23.382 -12.625  0.00  0.00    -0.466 OA
ATOM     28  H   UNL     1      37.613 -24.184 -12.470  0.00  0.00    +0.297 HD
ENDBRANCH  26  27
ENDBRANCH  18  21
ENDBRANCH   1  18
TORSDOF 6
ENDMDL
