MODEL 1
REMARK VINA RESULT:     -11.5      0.000      0.000
REMARK  Name = 44814409
REMARK  5 active torsions:
REMARK  status: ('A' for Active; 'I' for Inactive)
REMARK    1  A    between atoms: N_2  and  C_22
REMARK    2  A    between atoms: C_3  and  C_7
REMARK    3  A    between atoms: C_9  and  C_14
REMARK    4  A    between atoms: C_21  and  C_26
REMARK    5  A    between atoms: C_29  and  N_33
REMARK                            x       y       z     vdW  Elec       q    Type
REMARK                         _______ _______ _______ _____ _____    ______ ____
ROOT
ATOM      1  O   UNL     1      31.733 -21.643 -18.850  0.00  0.00    -0.267 OA
ATOM      2  N   UNL     1      33.002 -21.952 -16.895  0.00  0.00    -0.278 N 
ATOM      3  C   UNL     1      32.774 -21.529 -18.211  0.00  0.00    +0.275 C 
ATOM      4  H   UNL     1      33.903 -21.778 -16.536  0.00  0.00    +0.155 HD
ENDROOT
BRANCH   3   7
ATOM      5  F   UNL     1      36.953 -18.911 -20.765  0.00  0.00    -0.202 F 
ATOM      6  N   UNL     1      33.600 -19.963 -19.839  0.00  0.00    -0.399 NA
ATOM      7  C   UNL     1      33.920 -20.850 -18.871  0.00  0.00    +0.167 C 
ATOM      8  C   UNL     1      35.219 -21.142 -18.484  0.00  0.00    +0.092 C 
ATOM      9  C   UNL     1      34.633 -19.338 -20.446  0.00  0.00    +0.162 C 
ATOM     10  C   UNL     1      36.255 -20.478 -19.133  0.00  0.00    +0.014 C 
ATOM     11  C   UNL     1      35.965 -19.557 -20.133  0.00  0.00    +0.166 C 
BRANCH   9  14
ATOM     12  F   UNL     1      34.460 -16.583 -19.948  0.00  0.00    -0.204 F 
ATOM     13  F   UNL     1      34.023 -20.156 -23.058  0.00  0.00    -0.204 F 
ATOM     14  C   UNL     1      34.253 -18.396 -21.473  0.00  0.00    +0.087 C 
ATOM     15  C   UNL     1      34.180 -17.035 -21.180  0.00  0.00    +0.145 C 
ATOM     16  C   UNL     1      33.959 -18.850 -22.760  0.00  0.00    +0.145 C 
ATOM     17  C   UNL     1      33.813 -16.126 -22.173  0.00  0.00    +0.030 C 
ATOM     18  C   UNL     1      33.592 -17.941 -23.753  0.00  0.00    +0.030 C 
ATOM     19  C   UNL     1      33.518 -16.580 -23.458  0.00  0.00    +0.005 C 
ENDBRANCH   9  14
ENDBRANCH   3   7
BRANCH   2  22
ATOM     20  N   UNL     1      29.815 -23.087 -15.463  0.00  0.00    -0.241 NA
ATOM     21  C   UNL     1      32.550 -23.321 -14.934  0.00  0.00    -0.006 C 
ATOM     22  C   UNL     1      32.111 -22.587 -16.030  0.00  0.00    +0.066 C 
ATOM     23  C   UNL     1      31.623 -23.938 -14.102  0.00  0.00    +0.018 C 
ATOM     24  C   UNL     1      30.746 -22.502 -16.249  0.00  0.00    +0.113 C 
ATOM     25  C   UNL     1      30.279 -23.793 -14.407  0.00  0.00    +0.099 C 
BRANCH  21  26
ATOM     26  C   UNL     1      34.007 -23.463 -14.629  0.00  0.00    +0.022 C 
ATOM     27  C   UNL     1      35.894 -25.135 -14.306  0.00  0.00    -0.002 C 
ATOM     28  C   UNL     1      34.415 -24.947 -14.675  0.00  0.00    +0.004 C 
ATOM     29  C   UNL     1      35.800 -23.034 -12.889  0.00  0.00    -0.065 C 
ATOM     30  C   UNL     1      34.321 -22.848 -13.253  0.00  0.00    -0.017 C 
ATOM     31  C   UNL     1      36.199 -24.513 -12.936  0.00  0.00    -0.022 C 
ATOM     32  C   UNL     1      36.266 -26.618 -14.320  0.00  0.00    -0.000 C 
BRANCH  29  33
ATOM     33  N   UNL     1      36.052 -22.494 -11.555  0.00  0.00    +0.382 N 
ATOM     34  H   UNL     1      37.009 -22.711 -11.275  0.00  0.00    -0.089 HD
ATOM     35  H   UNL     1      35.401 -22.912 -10.889  0.00  0.00    -0.089 HD
ATOM     36  H   UNL     1      35.923 -21.482 -11.567  0.00  0.00    -0.089 HD
ENDBRANCH  29  33
ENDBRANCH  21  26
ENDBRANCH   2  22
TORSDOF 5
ENDMDL
MODEL 2
REMARK VINA RESULT:     -11.5      0.029      1.464
REMARK  Name = 44814409
REMARK  5 active torsions:
REMARK  status: ('A' for Active; 'I' for Inactive)
REMARK    1  A    between atoms: N_2  and  C_22
REMARK    2  A    between atoms: C_3  and  C_7
REMARK    3  A    between atoms: C_9  and  C_14
REMARK    4  A    between atoms: C_21  and  C_26
REMARK    5  A    between atoms: C_29  and  N_33
REMARK                            x       y       z     vdW  Elec       q    Type
REMARK                         _______ _______ _______ _____ _____    ______ ____
ROOT
ATOM      1  O   UNL     1      31.750 -21.661 -18.859  0.00  0.00    -0.267 OA
ATOM      2  N   UNL     1      33.017 -21.953 -16.900  0.00  0.00    -0.278 N 
ATOM      3  C   UNL     1      32.789 -21.538 -18.219  0.00  0.00    +0.275 C 
ATOM      4  H   UNL     1      33.916 -21.772 -16.540  0.00  0.00    +0.155 HD
ENDROOT
BRANCH   3   7
ATOM      5  F   UNL     1      36.958 -18.909 -20.777  0.00  0.00    -0.202 F 
ATOM      6  N   UNL     1      33.609 -19.973 -19.850  0.00  0.00    -0.399 NA
ATOM      7  C   UNL     1      33.933 -20.856 -18.879  0.00  0.00    +0.167 C 
ATOM      8  C   UNL     1      35.233 -21.141 -18.491  0.00  0.00    +0.092 C 
ATOM      9  C   UNL     1      34.640 -19.344 -20.458  0.00  0.00    +0.162 C 
ATOM     10  C   UNL     1      36.266 -20.474 -19.141  0.00  0.00    +0.014 C 
ATOM     11  C   UNL     1      35.973 -19.557 -20.144  0.00  0.00    +0.166 C 
BRANCH   9  14
ATOM     12  F   UNL     1      34.024 -20.172 -23.065  0.00  0.00    -0.204 F 
ATOM     13  F   UNL     1      34.467 -16.588 -19.970  0.00  0.00    -0.204 F 
ATOM     14  C   UNL     1      34.256 -18.407 -21.488  0.00  0.00    +0.087 C 
ATOM     15  C   UNL     1      33.959 -18.865 -22.771  0.00  0.00    +0.145 C 
ATOM     16  C   UNL     1      34.183 -17.044 -21.199  0.00  0.00    +0.145 C 
ATOM     17  C   UNL     1      33.588 -17.960 -23.766  0.00  0.00    +0.030 C 
ATOM     18  C   UNL     1      33.813 -16.139 -22.193  0.00  0.00    +0.030 C 
ATOM     19  C   UNL     1      33.516 -16.597 -23.477  0.00  0.00    +0.005 C 
ENDBRANCH   9  14
ENDBRANCH   3   7
BRANCH   2  22
ATOM     20  N   UNL     1      29.832 -23.083 -15.457  0.00  0.00    -0.241 NA
ATOM     21  C   UNL     1      32.569 -23.330 -14.943  0.00  0.00    -0.006 C 
ATOM     22  C   UNL     1      32.128 -22.589 -16.033  0.00  0.00    +0.066 C 
ATOM     23  C   UNL     1      31.644 -23.947 -14.109  0.00  0.00    +0.018 C 
ATOM     24  C   UNL     1      30.762 -22.497 -16.246  0.00  0.00    +0.113 C 
ATOM     25  C   UNL     1      30.300 -23.795 -14.407  0.00  0.00    +0.099 C 
BRANCH  21  26
ATOM     26  C   UNL     1      34.027 -23.478 -14.646  0.00  0.00    +0.022 C 
ATOM     27  C   UNL     1      35.901 -25.161 -14.301  0.00  0.00    -0.002 C 
ATOM     28  C   UNL     1      34.421 -24.967 -14.663  0.00  0.00    +0.004 C 
ATOM     29  C   UNL     1      35.838 -23.028 -12.930  0.00  0.00    -0.065 C 
ATOM     30  C   UNL     1      34.358 -22.836 -13.287  0.00  0.00    -0.017 C 
ATOM     31  C   UNL     1      36.223 -24.512 -12.947  0.00  0.00    -0.022 C 
ATOM     32  C   UNL     1      36.260 -26.647 -14.285  0.00  0.00    -0.000 C 
BRANCH  29  33
ATOM     33  N   UNL     1      36.105 -22.461 -11.609  0.00  0.00    +0.382 N 
ATOM     34  H   UNL     1      36.745 -21.672 -11.701  0.00  0.00    -0.089 HD
ATOM     35  H   UNL     1      36.528 -23.173 -11.013  0.00  0.00    -0.089 HD
ATOM     36  H   UNL     1      35.231 -22.143 -11.191  0.00  0.00    -0.089 HD
ENDBRANCH  29  33
ENDBRANCH  21  26
ENDBRANCH   2  22
TORSDOF 5
ENDMDL
MODEL 3
REMARK VINA RESULT:     -11.4      8.666     13.996
REMARK  Name = 44814409
REMARK  5 active torsions:
REMARK  status: ('A' for Active; 'I' for Inactive)
REMARK    1  A    between atoms: N_2  and  C_22
REMARK    2  A    between atoms: C_3  and  C_7
REMARK    3  A    between atoms: C_9  and  C_14
REMARK    4  A    between atoms: C_21  and  C_26
REMARK    5  A    between atoms: C_29  and  N_33
REMARK                            x       y       z     vdW  Elec       q    Type
REMARK                         _______ _______ _______ _____ _____    ______ ____
ROOT
ATOM      1  O   UNL     1      34.940  -9.685 -24.410  0.00  0.00    -0.267 OA
ATOM      2  N   UNL     1      32.724  -8.906 -24.524  0.00  0.00    -0.278 N 
ATOM      3  C   UNL     1      33.732  -9.879 -24.496  0.00  0.00    +0.275 C 
ATOM      4  H   UNL     1      31.801  -9.243 -24.595  0.00  0.00    +0.155 HD
ENDROOT
BRANCH   3   7
ATOM      5  F   UNL     1      32.017 -15.161 -24.544  0.00  0.00    -0.202 F 
ATOM      6  N   UNL     1      33.464 -12.019 -23.431  0.00  0.00    -0.399 NA
ATOM      7  C   UNL     1      33.260 -11.288 -24.550  0.00  0.00    +0.167 C 
ATOM      8  C   UNL     1      32.654 -11.777 -25.696  0.00  0.00    +0.092 C 
ATOM      9  C   UNL     1      33.038 -13.301 -23.466  0.00  0.00    +0.162 C 
ATOM     10  C   UNL     1      32.230 -13.101 -25.693  0.00  0.00    +0.014 C 
ATOM     11  C   UNL     1      32.422 -13.885 -24.560  0.00  0.00    +0.166 C 
BRANCH   9  14
ATOM     12  F   UNL     1      31.948 -12.521 -21.002  0.00  0.00    -0.204 F 
ATOM     13  F   UNL     1      34.611 -15.623 -23.434  0.00  0.00    -0.204 F 
ATOM     14  C   UNL     1      33.273 -14.051 -22.253  0.00  0.00    +0.087 C 
ATOM     15  C   UNL     1      32.710 -13.625 -21.051  0.00  0.00    +0.145 C 
ATOM     16  C   UNL     1      34.062 -15.201 -22.286  0.00  0.00    +0.145 C 
ATOM     17  C   UNL     1      32.936 -14.349 -19.880  0.00  0.00    +0.030 C 
ATOM     18  C   UNL     1      34.289 -15.925 -21.116  0.00  0.00    +0.030 C 
ATOM     19  C   UNL     1      33.726 -15.498 -19.913  0.00  0.00    +0.005 C 
ENDBRANCH   9  14
ENDBRANCH   3   7
BRANCH   2  22
ATOM     20  N   UNL     1      33.219  -5.444 -25.650  0.00  0.00    -0.241 NA
ATOM     21  C   UNL     1      32.804  -6.829 -23.258  0.00  0.00    -0.006 C 
ATOM     22  C   UNL     1      32.866  -7.520 -24.462  0.00  0.00    +0.066 C 
ATOM     23  C   UNL     1      32.950  -5.446 -23.247  0.00  0.00    +0.018 C 
ATOM     24  C   UNL     1      33.073  -6.788 -25.620  0.00  0.00    +0.113 C 
ATOM     25  C   UNL     1      33.153  -4.807 -24.460  0.00  0.00    +0.099 C 
BRANCH  21  26
ATOM     26  C   UNL     1      32.582  -7.545 -21.964  0.00  0.00    +0.022 C 
ATOM     27  C   UNL     1      31.083  -9.204 -20.754  0.00  0.00    -0.002 C 
ATOM     28  C   UNL     1      31.378  -8.496 -22.085  0.00  0.00    +0.004 C 
ATOM     29  C   UNL     1      32.079  -7.238 -19.498  0.00  0.00    -0.065 C 
ATOM     30  C   UNL     1      32.369  -6.529 -20.827  0.00  0.00    -0.017 C 
ATOM     31  C   UNL     1      30.878  -8.183 -19.626  0.00  0.00    -0.022 C 
ATOM     32  C   UNL     1      29.861 -10.112 -20.888  0.00  0.00    -0.000 C 
BRANCH  29  33
ATOM     33  N   UNL     1      31.822  -6.248 -18.454  0.00  0.00    +0.382 N 
ATOM     34  H   UNL     1      31.341  -5.444 -18.858  0.00  0.00    -0.089 HD
ATOM     35  H   UNL     1      32.708  -5.944 -18.048  0.00  0.00    -0.089 HD
ATOM     36  H   UNL     1      31.239  -6.662 -17.727  0.00  0.00    -0.089 HD
ENDBRANCH  29  33
ENDBRANCH  21  26
ENDBRANCH   2  22
TORSDOF 5
ENDMDL
MODEL 4
REMARK VINA RESULT:     -10.8      9.348     15.111
REMARK  Name = 44814409
REMARK  5 active torsions:
REMARK  status: ('A' for Active; 'I' for Inactive)
REMARK    1  A    between atoms: N_2  and  C_22
REMARK    2  A    between atoms: C_3  and  C_7
REMARK    3  A    between atoms: C_9  and  C_14
REMARK    4  A    between atoms: C_21  and  C_26
REMARK    5  A    between atoms: C_29  and  N_33
REMARK                            x       y       z     vdW  Elec       q    Type
REMARK                         _______ _______ _______ _____ _____    ______ ____
ROOT
ATOM      1  O   UNL     1      34.821  -8.899 -23.387  0.00  0.00    -0.267 OA
ATOM      2  N   UNL     1      33.067  -8.192 -24.785  0.00  0.00    -0.278 N 
ATOM      3  C   UNL     1      33.826  -9.126 -24.067  0.00  0.00    +0.275 C 
ATOM      4  H   UNL     1      32.294  -8.551 -25.278  0.00  0.00    +0.155 HD
ENDROOT
BRANCH   3   7
ATOM      5  F   UNL     1      31.991 -14.367 -24.142  0.00  0.00    -0.202 F 
ATOM      6  N   UNL     1      33.128 -11.132 -22.939  0.00  0.00    -0.399 NA
ATOM      7  C   UNL     1      33.336 -10.528 -24.130  0.00  0.00    +0.167 C 
ATOM      8  C   UNL     1      33.121 -11.137 -25.357  0.00  0.00    +0.092 C 
ATOM      9  C   UNL     1      32.681 -12.407 -22.982  0.00  0.00    +0.162 C 
ATOM     10  C   UNL     1      32.661 -12.449 -25.359  0.00  0.00    +0.014 C 
ATOM     11  C   UNL     1      32.434 -13.104 -24.154  0.00  0.00    +0.166 C 
BRANCH   9  14
ATOM     12  F   UNL     1      30.591 -11.615 -21.287  0.00  0.00    -0.204 F 
ATOM     13  F   UNL     1      34.334 -14.457 -22.020  0.00  0.00    -0.204 F 
ATOM     14  C   UNL     1      32.469 -13.019 -21.691  0.00  0.00    +0.087 C 
ATOM     15  C   UNL     1      31.416 -12.592 -20.881  0.00  0.00    +0.145 C 
ATOM     16  C   UNL     1      33.317 -14.036 -21.254  0.00  0.00    +0.145 C 
ATOM     17  C   UNL     1      31.212 -13.184 -19.634  0.00  0.00    +0.030 C 
ATOM     18  C   UNL     1      33.113 -14.628 -20.007  0.00  0.00    +0.030 C 
ATOM     19  C   UNL     1      32.061 -14.200 -19.197  0.00  0.00    +0.005 C 
ENDBRANCH   9  14
ENDBRANCH   3   7
BRANCH   2  22
ATOM     20  N   UNL     1      34.299  -4.981 -26.080  0.00  0.00    -0.241 NA
ATOM     21  C   UNL     1      32.706  -5.922 -23.984  0.00  0.00    -0.006 C 
ATOM     22  C   UNL     1      33.271  -6.815 -24.886  0.00  0.00    +0.066 C 
ATOM     23  C   UNL     1      32.937  -4.558 -24.127  0.00  0.00    +0.018 C 
ATOM     24  C   UNL     1      34.052  -6.300 -25.907  0.00  0.00    +0.113 C 
ATOM     25  C   UNL     1      33.733  -4.143 -25.183  0.00  0.00    +0.099 C 
BRANCH  21  26
ATOM     26  C   UNL     1      31.850  -6.397 -22.854  0.00  0.00    +0.022 C 
ATOM     27  C   UNL     1      29.956  -5.751 -21.286  0.00  0.00    -0.002 C 
ATOM     28  C   UNL     1      30.814  -5.319 -22.485  0.00  0.00    +0.004 C 
ATOM     29  C   UNL     1      31.867  -7.193 -20.447  0.00  0.00    -0.065 C 
ATOM     30  C   UNL     1      32.726  -6.758 -21.642  0.00  0.00    -0.017 C 
ATOM     31  C   UNL     1      30.839  -6.114 -20.084  0.00  0.00    -0.022 C 
ATOM     32  C   UNL     1      28.963  -4.650 -20.913  0.00  0.00    -0.000 C 
BRANCH  29  33
ATOM     33  N   UNL     1      32.723  -7.470 -19.296  0.00  0.00    +0.382 N 
ATOM     34  H   UNL     1      32.776  -8.477 -19.145  0.00  0.00    -0.089 HD
ATOM     35  H   UNL     1      32.332  -7.023 -18.466  0.00  0.00    -0.089 HD
ATOM     36  H   UNL     1      33.658  -7.102 -19.471  0.00  0.00    -0.089 HD
ENDBRANCH  29  33
ENDBRANCH  21  26
ENDBRANCH   2  22
TORSDOF 5
ENDMDL
MODEL 5
REMARK VINA RESULT:     -10.4      9.041     15.095
REMARK  Name = 44814409
REMARK  5 active torsions:
REMARK  status: ('A' for Active; 'I' for Inactive)
REMARK    1  A    between atoms: N_2  and  C_22
REMARK    2  A    between atoms: C_3  and  C_7
REMARK    3  A    between atoms: C_9  and  C_14
REMARK    4  A    between atoms: C_21  and  C_26
REMARK    5  A    between atoms: C_29  and  N_33
REMARK                            x       y       z     vdW  Elec       q    Type
REMARK                         _______ _______ _______ _____ _____    ______ ____
ROOT
ATOM      1  O   UNL     1      34.163  -9.813 -24.296  0.00  0.00    -0.267 OA
ATOM      2  N   UNL     1      32.587  -8.283 -23.454  0.00  0.00    -0.278 N 
ATOM      3  C   UNL     1      33.203  -9.536 -23.584  0.00  0.00    +0.275 C 
ATOM      4  H   UNL     1      31.824  -8.240 -22.833  0.00  0.00    +0.155 HD
ENDROOT
BRANCH   3   7
ATOM      5  F   UNL     1      31.158 -13.685 -20.511  0.00  0.00    -0.202 F 
ATOM      6  N   UNL     1      33.066 -11.868 -23.014  0.00  0.00    -0.399 NA
ATOM      7  C   UNL     1      32.631 -10.618 -22.740  0.00  0.00    +0.167 C 
ATOM      8  C   UNL     1      31.712 -10.316 -21.747  0.00  0.00    +0.092 C 
ATOM      9  C   UNL     1      32.556 -12.861 -22.252  0.00  0.00    +0.162 C 
ATOM     10  C   UNL     1      31.210 -11.365 -20.986  0.00  0.00    +0.014 C 
ATOM     11  C   UNL     1      31.634 -12.665 -21.237  0.00  0.00    +0.166 C 
BRANCH   9  14
ATOM     12  F   UNL     1      34.001 -14.399 -20.406  0.00  0.00    -0.204 F 
ATOM     13  F   UNL     1      32.116 -14.041 -24.758  0.00  0.00    -0.204 F 
ATOM     14  C   UNL     1      33.044 -14.182 -22.573  0.00  0.00    +0.087 C 
ATOM     15  C   UNL     1      33.759 -14.911 -21.623  0.00  0.00    +0.145 C 
ATOM     16  C   UNL     1      32.801 -14.729 -23.833  0.00  0.00    +0.145 C 
ATOM     17  C   UNL     1      34.230 -16.187 -21.932  0.00  0.00    +0.030 C 
ATOM     18  C   UNL     1      33.272 -16.005 -24.143  0.00  0.00    +0.030 C 
ATOM     19  C   UNL     1      33.987 -16.733 -23.192  0.00  0.00    +0.005 C 
ENDBRANCH   9  14
ENDBRANCH   3   7
BRANCH   2  22
ATOM     20  N   UNL     1      34.187  -5.988 -25.836  0.00  0.00    -0.241 NA
ATOM     21  C   UNL     1      32.385  -5.870 -23.702  0.00  0.00    -0.006 C 
ATOM     22  C   UNL     1      32.922  -7.091 -24.095  0.00  0.00    +0.066 C 
ATOM     23  C   UNL     1      32.747  -4.708 -24.373  0.00  0.00    +0.018 C 
ATOM     24  C   UNL     1      33.810  -7.096 -25.158  0.00  0.00    +0.113 C 
ATOM     25  C   UNL     1      33.644  -4.820 -25.424  0.00  0.00    +0.099 C 
BRANCH  21  26
ATOM     26  C   UNL     1      31.418  -5.779 -22.564  0.00  0.00    +0.022 C 
ATOM     27  C   UNL     1      29.872  -4.214 -21.290  0.00  0.00    -0.002 C 
ATOM     28  C   UNL     1      30.825  -4.360 -22.487  0.00  0.00    +0.004 C 
ATOM     29  C   UNL     1      31.162  -6.014 -20.053  0.00  0.00    -0.065 C 
ATOM     30  C   UNL     1      32.116  -6.158 -21.246  0.00  0.00    -0.017 C 
ATOM     31  C   UNL     1      30.576  -4.599 -19.981  0.00  0.00    -0.022 C 
ATOM     32  C   UNL     1      29.327  -2.789 -21.210  0.00  0.00    -0.000 C 
BRANCH  29  33
ATOM     33  N   UNL     1      31.870  -6.322 -18.812  0.00  0.00    +0.382 N 
ATOM     34  H   UNL     1      32.477  -7.128 -18.957  0.00  0.00    -0.089 HD
ATOM     35  H   UNL     1      31.194  -6.533 -18.078  0.00  0.00    -0.089 HD
ATOM     36  H   UNL     1      32.433  -5.518 -18.534  0.00  0.00    -0.089 HD
ENDBRANCH  29  33
ENDBRANCH  21  26
ENDBRANCH   2  22
TORSDOF 5
ENDMDL
MODEL 6
REMARK VINA RESULT:     -10.4     10.420     15.717
REMARK  Name = 44814409
REMARK  5 active torsions:
REMARK  status: ('A' for Active; 'I' for Inactive)
REMARK    1  A    between atoms: N_2  and  C_22
REMARK    2  A    between atoms: C_3  and  C_7
REMARK    3  A    between atoms: C_9  and  C_14
REMARK    4  A    between atoms: C_21  and  C_26
REMARK    5  A    between atoms: C_29  and  N_33
REMARK                            x       y       z     vdW  Elec       q    Type
REMARK                         _______ _______ _______ _____ _____    ______ ____
ROOT
ATOM      1  O   UNL     1      30.719  -9.276 -21.527  0.00  0.00    -0.267 OA
ATOM      2  N   UNL     1      32.188  -7.450 -21.329  0.00  0.00    -0.278 N 
ATOM      3  C   UNL     1      31.741  -8.676 -21.841  0.00  0.00    +0.275 C 
ATOM      4  H   UNL     1      33.036  -7.112 -21.698  0.00  0.00    +0.155 HD
ENDROOT
BRANCH   3   7
ATOM      5  F   UNL     1      34.887 -11.067 -25.744  0.00  0.00    -0.202 F 
ATOM      6  N   UNL     1      32.449 -10.607 -23.088  0.00  0.00    -0.399 NA
ATOM      7  C   UNL     1      32.602  -9.278 -22.894  0.00  0.00    +0.167 C 
ATOM      8  C   UNL     1      33.491  -8.487 -23.604  0.00  0.00    +0.092 C 
ATOM      9  C   UNL     1      33.224 -11.167 -24.044  0.00  0.00    +0.162 C 
ATOM     10  C   UNL     1      34.271  -9.100 -24.578  0.00  0.00    +0.014 C 
ATOM     11  C   UNL     1      34.142 -10.465 -24.808  0.00  0.00    +0.166 C 
BRANCH   9  14
ATOM     12  F   UNL     1      32.036 -12.224 -26.353  0.00  0.00    -0.204 F 
ATOM     13  F   UNL     1      34.017 -13.032 -22.105  0.00  0.00    -0.204 F 
ATOM     14  C   UNL     1      33.032 -12.587 -24.224  0.00  0.00    +0.087 C 
ATOM     15  C   UNL     1      32.437 -13.067 -25.390  0.00  0.00    +0.145 C 
ATOM     16  C   UNL     1      33.444 -13.478 -23.232  0.00  0.00    +0.145 C 
ATOM     17  C   UNL     1      32.252 -14.439 -25.564  0.00  0.00    +0.030 C 
ATOM     18  C   UNL     1      33.259 -14.849 -23.406  0.00  0.00    +0.030 C 
ATOM     19  C   UNL     1      32.662 -15.330 -24.572  0.00  0.00    +0.005 C 
ENDBRANCH   9  14
ENDBRANCH   3   7
BRANCH   2  22
ATOM     20  N   UNL     1      31.168  -6.230 -18.016  0.00  0.00    -0.241 NA
ATOM     21  C   UNL     1      30.819  -5.537 -20.702  0.00  0.00    -0.006 C 
ATOM     22  C   UNL     1      31.579  -6.651 -20.362  0.00  0.00    +0.066 C 
ATOM     23  C   UNL     1      30.234  -4.770 -19.702  0.00  0.00    +0.018 C 
ATOM     24  C   UNL     1      31.722  -6.952 -19.017  0.00  0.00    +0.113 C 
ATOM     25  C   UNL     1      30.437  -5.155 -18.386  0.00  0.00    +0.099 C 
BRANCH  21  26
ATOM     26  C   UNL     1      30.618  -5.144 -22.131  0.00  0.00    +0.022 C 
ATOM     27  C   UNL     1      31.811  -4.523 -24.288  0.00  0.00    -0.002 C 
ATOM     28  C   UNL     1      31.979  -4.987 -22.833  0.00  0.00    +0.004 C 
ATOM     29  C   UNL     1      29.634  -3.381 -23.664  0.00  0.00    -0.065 C 
ATOM     30  C   UNL     1      29.804  -3.840 -22.210  0.00  0.00    -0.017 C 
ATOM     31  C   UNL     1      30.993  -3.225 -24.357  0.00  0.00    -0.022 C 
ATOM     32  C   UNL     1      33.175  -4.336 -24.952  0.00  0.00    -0.000 C 
BRANCH  29  33
ATOM     33  N   UNL     1      28.910  -2.112 -23.701  0.00  0.00    +0.382 N 
ATOM     34  H   UNL     1      29.565  -1.342 -23.561  0.00  0.00    -0.089 HD
ATOM     35  H   UNL     1      28.208  -2.099 -22.961  0.00  0.00    -0.089 HD
ATOM     36  H   UNL     1      28.452  -2.008 -24.606  0.00  0.00    -0.089 HD
ENDBRANCH  29  33
ENDBRANCH  21  26
ENDBRANCH   2  22
TORSDOF 5
ENDMDL
MODEL 7
REMARK VINA RESULT:      -9.8      9.276     15.145
REMARK  Name = 44814409
REMARK  5 active torsions:
REMARK  status: ('A' for Active; 'I' for Inactive)
REMARK    1  A    between atoms: N_2  and  C_22
REMARK    2  A    between atoms: C_3  and  C_7
REMARK    3  A    between atoms: C_9  and  C_14
REMARK    4  A    between atoms: C_21  and  C_26
REMARK    5  A    between atoms: C_29  and  N_33
REMARK                            x       y       z     vdW  Elec       q    Type
REMARK                         _______ _______ _______ _____ _____    ______ ____
ROOT
ATOM      1  O   UNL     1      33.825  -9.283 -24.291  0.00  0.00    -0.267 OA
ATOM      2  N   UNL     1      32.197  -7.757 -23.548  0.00  0.00    -0.278 N 
ATOM      3  C   UNL     1      32.852  -8.995 -23.602  0.00  0.00    +0.275 C 
ATOM      4  H   UNL     1      31.428  -7.702 -22.935  0.00  0.00    +0.155 HD
ENDROOT
BRANCH   3   7
ATOM      5  F   UNL     1      30.909 -13.022 -20.308  0.00  0.00    -0.202 F 
ATOM      6  N   UNL     1      32.784 -11.293 -22.897  0.00  0.00    -0.399 NA
ATOM      7  C   UNL     1      32.306 -10.044 -22.701  0.00  0.00    +0.167 C 
ATOM      8  C   UNL     1      31.368  -9.715 -21.735  0.00  0.00    +0.092 C 
ATOM      9  C   UNL     1      32.298 -12.256 -22.083  0.00  0.00    +0.162 C 
ATOM     10  C   UNL     1      30.891 -10.734 -20.918  0.00  0.00    +0.014 C 
ATOM     11  C   UNL     1      31.360 -12.032 -21.088  0.00  0.00    +0.166 C 
BRANCH   9  14
ATOM     12  F   UNL     1      31.908 -13.602 -24.512  0.00  0.00    -0.204 F 
ATOM     13  F   UNL     1      33.787 -13.629 -20.143  0.00  0.00    -0.204 F 
ATOM     14  C   UNL     1      32.833 -13.577 -22.321  0.00  0.00    +0.087 C 
ATOM     15  C   UNL     1      32.613 -14.208 -23.545  0.00  0.00    +0.145 C 
ATOM     16  C   UNL     1      33.568 -14.221 -21.326  0.00  0.00    +0.145 C 
ATOM     17  C   UNL     1      33.130 -15.484 -23.774  0.00  0.00    +0.030 C 
ATOM     18  C   UNL     1      34.084 -15.497 -21.554  0.00  0.00    +0.030 C 
ATOM     19  C   UNL     1      33.864 -16.128 -22.779  0.00  0.00    +0.005 C 
ENDBRANCH   9  14
ENDBRANCH   3   7
BRANCH   2  22
ATOM     20  N   UNL     1      33.182  -5.587 -26.344  0.00  0.00    -0.241 NA
ATOM     21  C   UNL     1      32.438  -5.337 -23.661  0.00  0.00    -0.006 C 
ATOM     22  C   UNL     1      32.500  -6.593 -24.254  0.00  0.00    +0.066 C 
ATOM     23  C   UNL     1      32.748  -4.206 -24.407  0.00  0.00    +0.018 C 
ATOM     24  C   UNL     1      32.874  -6.663 -25.586  0.00  0.00    +0.113 C 
ATOM     25  C   UNL     1      33.111  -4.383 -25.733  0.00  0.00    +0.099 C 
BRANCH  21  26
ATOM     26  C   UNL     1      32.043  -5.176 -22.228  0.00  0.00    +0.022 C 
ATOM     27  C   UNL     1      31.865  -6.367 -19.990  0.00  0.00    -0.002 C 
ATOM     28  C   UNL     1      32.317  -6.478 -21.453  0.00  0.00    +0.004 C 
ATOM     29  C   UNL     1      30.110  -4.666 -20.668  0.00  0.00    -0.065 C 
ATOM     30  C   UNL     1      30.558  -4.779 -22.131  0.00  0.00    -0.017 C 
ATOM     31  C   UNL     1      30.385  -5.965 -19.903  0.00  0.00    -0.022 C 
ATOM     32  C   UNL     1      32.111  -7.682 -19.251  0.00  0.00    -0.000 C 
BRANCH  29  33
ATOM     33  N   UNL     1      28.685  -4.348 -20.610  0.00  0.00    +0.382 N 
ATOM     34  H   UNL     1      28.144  -5.212 -20.596  0.00  0.00    -0.089 HD
ATOM     35  H   UNL     1      28.425  -3.798 -21.430  0.00  0.00    -0.089 HD
ATOM     36  H   UNL     1      28.490  -3.811 -19.766  0.00  0.00    -0.089 HD
ENDBRANCH  29  33
ENDBRANCH  21  26
ENDBRANCH   2  22
TORSDOF 5
ENDMDL
MODEL 8
REMARK VINA RESULT:      -9.7     10.441     15.676
REMARK  Name = 44814409
REMARK  5 active torsions:
REMARK  status: ('A' for Active; 'I' for Inactive)
REMARK    1  A    between atoms: N_2  and  C_22
REMARK    2  A    between atoms: C_3  and  C_7
REMARK    3  A    between atoms: C_9  and  C_14
REMARK    4  A    between atoms: C_21  and  C_26
REMARK    5  A    between atoms: C_29  and  N_33
REMARK                            x       y       z     vdW  Elec       q    Type
REMARK                         _______ _______ _______ _____ _____    ______ ____
ROOT
ATOM      1  O   UNL     1      30.639  -9.246 -21.537  0.00  0.00    -0.267 OA
ATOM      2  N   UNL     1      32.152  -7.470 -21.240  0.00  0.00    -0.278 N 
ATOM      3  C   UNL     1      31.685  -8.665 -21.805  0.00  0.00    +0.275 C 
ATOM      4  H   UNL     1      33.017  -7.143 -21.577  0.00  0.00    +0.155 HD
ENDROOT
BRANCH   3   7
ATOM      5  F   UNL     1      34.865 -11.011 -25.707  0.00  0.00    -0.202 F 
ATOM      6  N   UNL     1      32.410 -10.583 -23.062  0.00  0.00    -0.399 NA
ATOM      7  C   UNL     1      32.554  -9.254 -22.857  0.00  0.00    +0.167 C 
ATOM      8  C   UNL     1      33.443  -8.454 -23.557  0.00  0.00    +0.092 C 
ATOM      9  C   UNL     1      33.193 -11.131 -24.017  0.00  0.00    +0.162 C 
ATOM     10  C   UNL     1      34.232  -9.056 -24.531  0.00  0.00    +0.014 C 
ATOM     11  C   UNL     1      34.111 -10.419 -24.772  0.00  0.00    +0.166 C 
BRANCH   9  14
ATOM     12  F   UNL     1      32.012 -12.177 -26.336  0.00  0.00    -0.204 F 
ATOM     13  F   UNL     1      33.997 -13.007 -22.094  0.00  0.00    -0.204 F 
ATOM     14  C   UNL     1      33.010 -12.552 -24.209  0.00  0.00    +0.087 C 
ATOM     15  C   UNL     1      32.417 -13.026 -25.379  0.00  0.00    +0.145 C 
ATOM     16  C   UNL     1      33.426 -13.448 -23.224  0.00  0.00    +0.145 C 
ATOM     17  C   UNL     1      32.241 -14.398 -25.564  0.00  0.00    +0.030 C 
ATOM     18  C   UNL     1      33.250 -14.819 -23.409  0.00  0.00    +0.030 C 
ATOM     19  C   UNL     1      32.656 -15.293 -24.579  0.00  0.00    +0.005 C 
ENDBRANCH   9  14
ENDBRANCH   3   7
BRANCH   2  22
ATOM     20  N   UNL     1      30.947  -6.417 -17.932  0.00  0.00    -0.241 NA
ATOM     21  C   UNL     1      30.946  -5.467 -20.562  0.00  0.00    -0.006 C 
ATOM     22  C   UNL     1      31.541  -6.687 -20.260  0.00  0.00    +0.066 C 
ATOM     23  C   UNL     1      30.352  -4.722 -19.550  0.00  0.00    +0.018 C 
ATOM     24  C   UNL     1      31.515  -7.114 -18.943  0.00  0.00    +0.113 C 
ATOM     25  C   UNL     1      30.379  -5.236 -18.264  0.00  0.00    +0.099 C 
BRANCH  21  26
ATOM     26  C   UNL     1      30.933  -4.936 -21.959  0.00  0.00    +0.022 C 
ATOM     27  C   UNL     1      30.054  -3.073 -23.449  0.00  0.00    -0.002 C 
ATOM     28  C   UNL     1      30.140  -3.616 -22.015  0.00  0.00    +0.004 C 
ATOM     29  C   UNL     1      30.250  -5.437 -24.349  0.00  0.00    -0.065 C 
ATOM     30  C   UNL     1      30.331  -5.981 -22.916  0.00  0.00    -0.017 C 
ATOM     31  C   UNL     1      29.459  -4.124 -24.398  0.00  0.00    -0.022 C 
ATOM     32  C   UNL     1      29.231  -1.786 -23.487  0.00  0.00    -0.000 C 
BRANCH  29  33
ATOM     33  N   UNL     1      29.620  -6.428 -25.219  0.00  0.00    +0.382 N 
ATOM     34  H   UNL     1      29.671  -7.347 -24.781  0.00  0.00    -0.089 HD
ATOM     35  H   UNL     1      30.108  -6.452 -26.116  0.00  0.00    -0.089 HD
ATOM     36  H   UNL     1      28.644  -6.176 -25.371  0.00  0.00    -0.089 HD
ENDBRANCH  29  33
ENDBRANCH  21  26
ENDBRANCH   2  22
TORSDOF 5
ENDMDL
MODEL 9
REMARK VINA RESULT:      -9.7     10.365     15.269
REMARK  Name = 44814409
REMARK  5 active torsions:
REMARK  status: ('A' for Active; 'I' for Inactive)
REMARK    1  A    between atoms: N_2  and  C_22
REMARK    2  A    between atoms: C_3  and  C_7
REMARK    3  A    between atoms: C_9  and  C_14
REMARK    4  A    between atoms: C_21  and  C_26
REMARK    5  A    between atoms: C_29  and  N_33
REMARK                            x       y       z     vdW  Elec       q    Type
REMARK                         _______ _______ _______ _____ _____    ______ ____
ROOT
ATOM      1  O   UNL     1      30.678  -9.331 -21.642  0.00  0.00    -0.267 OA
ATOM      2  N   UNL     1      32.251  -7.607 -21.345  0.00  0.00    -0.278 N 
ATOM      3  C   UNL     1      31.743  -8.785 -21.911  0.00  0.00    +0.275 C 
ATOM      4  H   UNL     1      33.126  -7.309 -21.683  0.00  0.00    +0.155 HD
ENDROOT
BRANCH   3   7
ATOM      5  F   UNL     1      34.837 -11.229 -25.822  0.00  0.00    -0.202 F 
ATOM      6  N   UNL     1      32.424 -10.730 -23.151  0.00  0.00    -0.399 NA
ATOM      7  C   UNL     1      32.590  -9.401 -22.967  0.00  0.00    +0.167 C 
ATOM      8  C   UNL     1      33.479  -8.622 -23.690  0.00  0.00    +0.092 C 
ATOM      9  C   UNL     1      33.187 -11.302 -24.108  0.00  0.00    +0.162 C 
ATOM     10  C   UNL     1      34.247  -9.249 -24.666  0.00  0.00    +0.014 C 
ATOM     11  C   UNL     1      34.104 -10.614 -24.885  0.00  0.00    +0.166 C 
BRANCH   9  14
ATOM     12  F   UNL     1      34.040 -13.165 -22.193  0.00  0.00    -0.204 F 
ATOM     13  F   UNL     1      31.914 -12.361 -26.372  0.00  0.00    -0.204 F 
ATOM     14  C   UNL     1      32.982 -12.723 -24.277  0.00  0.00    +0.087 C 
ATOM     15  C   UNL     1      33.423 -13.612 -23.298  0.00  0.00    +0.145 C 
ATOM     16  C   UNL     1      32.343 -13.203 -25.420  0.00  0.00    +0.145 C 
ATOM     17  C   UNL     1      33.225 -14.983 -23.462  0.00  0.00    +0.030 C 
ATOM     18  C   UNL     1      32.145 -14.574 -25.584  0.00  0.00    +0.030 C 
ATOM     19  C   UNL     1      32.587 -15.464 -24.605  0.00  0.00    +0.005 C 
ENDBRANCH   9  14
ENDBRANCH   3   7
BRANCH   2  22
ATOM     20  N   UNL     1      30.953  -6.583 -18.064  0.00  0.00    -0.241 NA
ATOM     21  C   UNL     1      31.242  -5.511 -20.630  0.00  0.00    -0.006 C 
ATOM     22  C   UNL     1      31.669  -6.806 -20.362  0.00  0.00    +0.066 C 
ATOM     23  C   UNL     1      30.669  -4.751 -19.616  0.00  0.00    +0.018 C 
ATOM     24  C   UNL     1      31.505  -7.291 -19.075  0.00  0.00    +0.113 C 
ATOM     25  C   UNL     1      30.549  -5.327 -18.362  0.00  0.00    +0.099 C 
BRANCH  21  26
ATOM     26  C   UNL     1      31.385  -4.914 -21.993  0.00  0.00    +0.022 C 
ATOM     27  C   UNL     1      30.354  -4.797 -24.314  0.00  0.00    -0.002 C 
ATOM     28  C   UNL     1      30.206  -5.344 -22.886  0.00  0.00    +0.004 C 
ATOM     29  C   UNL     1      32.875  -4.782 -24.040  0.00  0.00    -0.065 C 
ATOM     30  C   UNL     1      32.729  -5.333 -22.615  0.00  0.00    -0.017 C 
ATOM     31  C   UNL     1      31.700  -5.215 -24.923  0.00  0.00    -0.022 C 
ATOM     32  C   UNL     1      29.195  -5.268 -25.191  0.00  0.00    -0.000 C 
BRANCH  29  33
ATOM     33  N   UNL     1      34.132  -5.246 -24.623  0.00  0.00    +0.382 N 
ATOM     34  H   UNL     1      34.252  -6.240 -24.428  0.00  0.00    -0.089 HD
ATOM     35  H   UNL     1      34.909  -4.724 -24.217  0.00  0.00    -0.089 HD
ATOM     36  H   UNL     1      34.114  -5.097 -25.632  0.00  0.00    -0.089 HD
ENDBRANCH  29  33
ENDBRANCH  21  26
ENDBRANCH   2  22
TORSDOF 5
ENDMDL
