MODEL 1
REMARK VINA RESULT:     -12.0      0.000      0.000
REMARK  Name = 5326869
REMARK  6 active torsions:
REMARK  status: ('A' for Active; 'I' for Inactive)
REMARK    1  A    between atoms: N_2  and  C_11
REMARK    2  A    between atoms: C_3  and  C_25
REMARK    3  A    between atoms: N_5  and  C_14
REMARK    4  A    between atoms: C_14  and  C_15
REMARK    5  A    between atoms: C_15  and  C_17
REMARK    6  A    between atoms: C_23  and  N_30
REMARK                            x       y       z     vdW  Elec       q    Type
REMARK                         _______ _______ _______ _____ _____    ______ ____
ROOT
ATOM      1  O   UNL     1      30.846 -13.452 -20.091  0.00  0.00    -0.270 OA
ATOM      2  N   UNL     1      32.307 -12.613 -21.732  0.00  0.00    -0.280 N 
ATOM      3  C   UNL     1      31.437 -12.526 -20.636  0.00  0.00    +0.250 C 
ATOM      4  H   UNL     1      32.696 -11.764 -22.042  0.00  0.00    +0.155 HD
ENDROOT
BRANCH   2  11
ATOM      5  N   UNL     1      34.229 -17.127 -22.095  0.00  0.00    -0.286 N 
ATOM      6  C   UNL     1      33.641 -15.949 -22.496  0.00  0.00    +0.053 C 
ATOM      7  C   UNL     1      33.441 -16.038 -23.875  0.00  0.00    +0.015 C 
ATOM      8  C   UNL     1      34.407 -17.956 -23.171  0.00  0.00    +0.065 C 
ATOM      9  C   UNL     1      33.276 -14.822 -21.750  0.00  0.00    +0.029 C 
ATOM     10  C   UNL     1      33.928 -17.310 -24.287  0.00  0.00    +0.017 C 
ATOM     11  C   UNL     1      32.688 -13.755 -22.437  0.00  0.00    +0.052 C 
ATOM     12  C   UNL     1      32.846 -14.950 -24.545  0.00  0.00    +0.003 C 
ATOM     13  C   UNL     1      32.475 -13.817 -23.813  0.00  0.00    +0.015 C 
BRANCH   5  14
ATOM     14  C   UNL     1      34.610 -17.459 -20.739  0.00  0.00    +0.100 C 
BRANCH  14  15
ATOM     15  C   UNL     1      35.140 -18.887 -20.585  0.00  0.00    +0.048 C 
BRANCH  15  17
ATOM     16  N   UNL     1      32.334 -21.555 -18.748  0.00  0.00    -0.242 NA
ATOM     17  C   UNL     1      34.153 -19.827 -19.939  0.00  0.00    -0.017 C 
ATOM     18  C   UNL     1      34.614 -20.855 -19.139  0.00  0.00    +0.016 C 
ATOM     19  C   UNL     1      32.799 -19.646 -20.155  0.00  0.00    +0.016 C 
ATOM     20  C   UNL     1      33.667 -21.690 -18.569  0.00  0.00    +0.099 C 
ATOM     21  C   UNL     1      31.934 -20.534 -19.539  0.00  0.00    +0.099 C 
ENDBRANCH  15  17
ENDBRANCH  14  15
ENDBRANCH   5  14
ENDBRANCH   2  11
BRANCH   3  25
ATOM     22  F   UNL     1      30.836  -9.469 -16.938  0.00  0.00    -0.204 F 
ATOM     23  C   UNL     1      30.861  -8.826 -20.519  0.00  0.00    +0.050 C 
ATOM     24  C   UNL     1      31.077 -10.114 -21.009  0.00  0.00    +0.019 C 
ATOM     25  C   UNL     1      31.205 -11.155 -20.114  0.00  0.00    +0.057 C 
ATOM     26  C   UNL     1      30.779  -8.609 -19.144  0.00  0.00    +0.044 C 
ATOM     27  C   UNL     1      31.129 -10.966 -18.749  0.00  0.00    +0.034 C 
ATOM     28  C   UNL     1      30.913  -9.678 -18.258  0.00  0.00    +0.142 C 
BRANCH  23  30
ATOM     29  O   UNL     1      30.731  -5.575 -23.182  0.00  0.00    -0.350 OA
ATOM     30  N   UNL     1      30.726  -7.754 -21.406  0.00  0.00    -0.303 N 
ATOM     31  C   UNL     1      30.691  -6.379 -20.894  0.00  0.00    +0.123 C 
ATOM     32  C   UNL     1      31.273  -7.902 -22.762  0.00  0.00    +0.123 C 
ATOM     33  C   UNL     1      30.056  -5.459 -21.930  0.00  0.00    +0.164 C 
ATOM     34  C   UNL     1      30.607  -6.901 -23.699  0.00  0.00    +0.164 C 
ENDBRANCH  23  30
ENDBRANCH   3  25
TORSDOF 6
ENDMDL
MODEL 2
REMARK VINA RESULT:     -11.7      4.402     11.213
REMARK  Name = 5326869
REMARK  6 active torsions:
REMARK  status: ('A' for Active; 'I' for Inactive)
REMARK    1  A    between atoms: N_2  and  C_11
REMARK    2  A    between atoms: C_3  and  C_25
REMARK    3  A    between atoms: N_5  and  C_14
REMARK    4  A    between atoms: C_14  and  C_15
REMARK    5  A    between atoms: C_15  and  C_17
REMARK    6  A    between atoms: C_23  and  N_30
REMARK                            x       y       z     vdW  Elec       q    Type
REMARK                         _______ _______ _______ _____ _____    ______ ____
ROOT
ATOM      1  O   UNL     1      31.636 -20.600 -19.861  0.00  0.00    -0.270 OA
ATOM      2  N   UNL     1      33.841 -19.785 -19.798  0.00  0.00    -0.280 N 
ATOM      3  C   UNL     1      32.752 -20.548 -19.355  0.00  0.00    +0.250 C 
ATOM      4  H   UNL     1      34.667 -19.864 -19.268  0.00  0.00    +0.155 HD
ENDROOT
BRANCH   2  11
ATOM      5  N   UNL     1      33.936 -15.348 -21.920  0.00  0.00    -0.286 N 
ATOM      6  C   UNL     1      33.939 -16.721 -21.821  0.00  0.00    +0.053 C 
ATOM      7  C   UNL     1      34.017 -17.227 -23.119  0.00  0.00    +0.015 C 
ATOM      8  C   UNL     1      34.010 -14.970 -23.235  0.00  0.00    +0.065 C 
ATOM      9  C   UNL     1      33.877 -17.544 -20.691  0.00  0.00    +0.029 C 
ATOM     10  C   UNL     1      34.062 -16.111 -24.001  0.00  0.00    +0.017 C 
ATOM     11  C   UNL     1      33.898 -18.927 -20.897  0.00  0.00    +0.052 C 
ATOM     12  C   UNL     1      34.037 -18.624 -23.302  0.00  0.00    +0.003 C 
ATOM     13  C   UNL     1      33.977 -19.460 -22.182  0.00  0.00    +0.015 C 
BRANCH   5  14
ATOM     14  C   UNL     1      33.867 -14.424 -20.809  0.00  0.00    +0.100 C 
BRANCH  14  15
ATOM     15  C   UNL     1      32.449 -14.229 -20.263  0.00  0.00    +0.048 C 
BRANCH  15  17
ATOM     16  N   UNL     1      30.889 -10.296 -20.944  0.00  0.00    -0.242 NA
ATOM     17  C   UNL     1      31.899 -12.845 -20.503  0.00  0.00    -0.017 C 
ATOM     18  C   UNL     1      31.151 -12.229 -19.518  0.00  0.00    +0.016 C 
ATOM     19  C   UNL     1      32.152 -12.211 -21.705  0.00  0.00    +0.016 C 
ATOM     20  C   UNL     1      30.670 -10.958 -19.786  0.00  0.00    +0.099 C 
ATOM     21  C   UNL     1      31.626 -10.941 -21.876  0.00  0.00    +0.099 C 
ENDBRANCH  15  17
ENDBRANCH  14  15
ENDBRANCH   5  14
ENDBRANCH   2  11
BRANCH   3  25
ATOM     22  F   UNL     1      35.773 -22.558 -16.159  0.00  0.00    -0.204 F 
ATOM     23  C   UNL     1      32.137 -22.589 -16.274  0.00  0.00    +0.050 C 
ATOM     24  C   UNL     1      31.910 -21.839 -17.428  0.00  0.00    +0.019 C 
ATOM     25  C   UNL     1      32.993 -21.349 -18.127  0.00  0.00    +0.057 C 
ATOM     26  C   UNL     1      33.441 -22.832 -15.846  0.00  0.00    +0.044 C 
ATOM     27  C   UNL     1      34.293 -21.575 -17.725  0.00  0.00    +0.034 C 
ATOM     28  C   UNL     1      34.520 -22.326 -16.571  0.00  0.00    +0.142 C 
BRANCH  23  30
ATOM     29  O   UNL     1      28.868 -23.872 -13.961  0.00  0.00    -0.350 OA
ATOM     30  N   UNL     1      31.056 -23.097 -15.547  0.00  0.00    -0.303 N 
ATOM     31  C   UNL     1      31.272 -23.653 -14.206  0.00  0.00    +0.123 C 
ATOM     32  C   UNL     1      29.729 -22.509 -15.774  0.00  0.00    +0.123 C 
ATOM     33  C   UNL     1      30.108 -24.566 -13.833  0.00  0.00    +0.164 C 
ATOM     34  C   UNL     1      28.648 -23.482 -15.317  0.00  0.00    +0.164 C 
ENDBRANCH  23  30
ENDBRANCH   3  25
TORSDOF 6
ENDMDL
MODEL 3
REMARK VINA RESULT:     -11.5      4.752      9.001
REMARK  Name = 5326869
REMARK  6 active torsions:
REMARK  status: ('A' for Active; 'I' for Inactive)
REMARK    1  A    between atoms: N_2  and  C_11
REMARK    2  A    between atoms: C_3  and  C_25
REMARK    3  A    between atoms: N_5  and  C_14
REMARK    4  A    between atoms: C_14  and  C_15
REMARK    5  A    between atoms: C_15  and  C_17
REMARK    6  A    between atoms: C_23  and  N_30
REMARK                            x       y       z     vdW  Elec       q    Type
REMARK                         _______ _______ _______ _____ _____    ______ ____
ROOT
ATOM      1  O   UNL     1      36.181 -18.699 -19.503  0.00  0.00    -0.270 OA
ATOM      2  N   UNL     1      34.569 -20.406 -19.395  0.00  0.00    -0.280 N 
ATOM      3  C   UNL     1      35.226 -19.310 -19.969  0.00  0.00    +0.250 C 
ATOM      4  H   UNL     1      33.816 -20.776 -19.911  0.00  0.00    +0.155 HD
ENDROOT
BRANCH   2  11
ATOM      5  N   UNL     1      33.382 -23.115 -15.464  0.00  0.00    -0.286 N 
ATOM      6  C   UNL     1      34.161 -22.364 -16.314  0.00  0.00    +0.053 C 
ATOM      7  C   UNL     1      35.437 -22.297 -15.751  0.00  0.00    +0.015 C 
ATOM      8  C   UNL     1      34.119 -23.523 -14.385  0.00  0.00    +0.065 C 
ATOM      9  C   UNL     1      33.837 -21.745 -17.527  0.00  0.00    +0.029 C 
ATOM     10  C   UNL     1      35.396 -23.033 -14.534  0.00  0.00    +0.017 C 
ATOM     11  C   UNL     1      34.849 -21.037 -18.182  0.00  0.00    +0.052 C 
ATOM     12  C   UNL     1      36.441 -21.577 -16.430  0.00  0.00    +0.003 C 
ATOM     13  C   UNL     1      36.131 -20.954 -17.644  0.00  0.00    +0.015 C 
BRANCH   5  14
ATOM     14  C   UNL     1      31.985 -23.437 -15.665  0.00  0.00    +0.100 C 
BRANCH  14  15
ATOM     15  C   UNL     1      31.041 -22.674 -14.730  0.00  0.00    +0.048 C 
BRANCH  15  17
ATOM     16  N   UNL     1      26.926 -23.770 -15.207  0.00  0.00    -0.242 NA
ATOM     17  C   UNL     1      29.593 -23.059 -14.897  0.00  0.00    -0.017 C 
ATOM     18  C   UNL     1      28.768 -22.281 -15.686  0.00  0.00    +0.016 C 
ATOM     19  C   UNL     1      29.110 -24.188 -14.260  0.00  0.00    +0.016 C 
ATOM     20  C   UNL     1      27.446 -22.677 -15.809  0.00  0.00    +0.099 C 
ATOM     21  C   UNL     1      27.773 -24.498 -14.446  0.00  0.00    +0.099 C 
ENDBRANCH  15  17
ENDBRANCH  14  15
ENDBRANCH   5  14
ENDBRANCH   2  11
BRANCH   3  25
ATOM     22  F   UNL     1      33.774 -20.201 -24.494  0.00  0.00    -0.204 F 
ATOM     23  C   UNL     1      33.843 -17.073 -22.638  0.00  0.00    +0.050 C 
ATOM     24  C   UNL     1      34.364 -17.509 -21.419  0.00  0.00    +0.019 C 
ATOM     25  C   UNL     1      34.674 -18.844 -21.267  0.00  0.00    +0.057 C 
ATOM     26  C   UNL     1      33.644 -17.982 -23.676  0.00  0.00    +0.044 C 
ATOM     27  C   UNL     1      34.486 -19.764 -22.279  0.00  0.00    +0.034 C 
ATOM     28  C   UNL     1      33.966 -19.328 -23.498  0.00  0.00    +0.142 C 
BRANCH  23  30
ATOM     29  O   UNL     1      33.133 -12.976 -23.266  0.00  0.00    -0.350 OA
ATOM     30  N   UNL     1      33.521 -15.724 -22.817  0.00  0.00    -0.303 N 
ATOM     31  C   UNL     1      33.836 -14.750 -21.767  0.00  0.00    +0.123 C 
ATOM     32  C   UNL     1      33.515 -15.189 -24.186  0.00  0.00    +0.123 C 
ATOM     33  C   UNL     1      32.979 -13.501 -21.948  0.00  0.00    +0.164 C 
ATOM     34  C   UNL     1      32.676 -13.917 -24.238  0.00  0.00    +0.164 C 
ENDBRANCH  23  30
ENDBRANCH   3  25
TORSDOF 6
ENDMDL
MODEL 4
REMARK VINA RESULT:     -11.2      4.472     11.428
REMARK  Name = 5326869
REMARK  6 active torsions:
REMARK  status: ('A' for Active; 'I' for Inactive)
REMARK    1  A    between atoms: N_2  and  C_11
REMARK    2  A    between atoms: C_3  and  C_25
REMARK    3  A    between atoms: N_5  and  C_14
REMARK    4  A    between atoms: C_14  and  C_15
REMARK    5  A    between atoms: C_15  and  C_17
REMARK    6  A    between atoms: C_23  and  N_30
REMARK                            x       y       z     vdW  Elec       q    Type
REMARK                         _______ _______ _______ _____ _____    ______ ____
ROOT
ATOM      1  O   UNL     1      32.596 -20.958 -19.672  0.00  0.00    -0.270 OA
ATOM      2  N   UNL     1      34.539 -19.634 -19.702  0.00  0.00    -0.280 N 
ATOM      3  C   UNL     1      33.676 -20.619 -19.202  0.00  0.00    +0.250 C 
ATOM      4  H   UNL     1      35.371 -19.492 -19.195  0.00  0.00    +0.155 HD
ENDROOT
BRANCH   2  11
ATOM      5  N   UNL     1      33.862 -15.326 -21.978  0.00  0.00    -0.286 N 
ATOM      6  C   UNL     1      34.037 -16.683 -21.830  0.00  0.00    +0.053 C 
ATOM      7  C   UNL     1      34.018 -17.242 -23.110  0.00  0.00    +0.015 C 
ATOM      8  C   UNL     1      33.734 -15.008 -23.304  0.00  0.00    +0.065 C 
ATOM      9  C   UNL     1      34.207 -17.451 -20.672  0.00  0.00    +0.029 C 
ATOM     10  C   UNL     1      33.826 -16.173 -24.030  0.00  0.00    +0.017 C 
ATOM     11  C   UNL     1      34.364 -18.832 -20.830  0.00  0.00    +0.052 C 
ATOM     12  C   UNL     1      34.178 -18.636 -23.243  0.00  0.00    +0.003 C 
ATOM     13  C   UNL     1      34.350 -19.416 -22.095  0.00  0.00    +0.015 C 
BRANCH   5  14
ATOM     14  C   UNL     1      33.819 -14.361 -20.901  0.00  0.00    +0.100 C 
BRANCH  14  15
ATOM     15  C   UNL     1      32.418 -14.162 -20.314  0.00  0.00    +0.048 C 
BRANCH  15  17
ATOM     16  N   UNL     1      30.880 -10.202 -20.875  0.00  0.00    -0.242 NA
ATOM     17  C   UNL     1      31.878 -12.768 -20.511  0.00  0.00    -0.017 C 
ATOM     18  C   UNL     1      32.073 -12.127 -21.719  0.00  0.00    +0.016 C 
ATOM     19  C   UNL     1      31.192 -12.152 -19.481  0.00  0.00    +0.016 C 
ATOM     20  C   UNL     1      31.556 -10.848 -21.851  0.00  0.00    +0.099 C 
ATOM     21  C   UNL     1      30.715 -10.872 -19.712  0.00  0.00    +0.099 C 
ENDBRANCH  15  17
ENDBRANCH  14  15
ENDBRANCH   5  14
ENDBRANCH   2  11
BRANCH   3  25
ATOM     22  F   UNL     1      37.208 -21.970 -16.188  0.00  0.00    -0.204 F 
ATOM     23  C   UNL     1      33.615 -22.497 -15.961  0.00  0.00    +0.050 C 
ATOM     24  C   UNL     1      33.189 -21.869 -17.131  0.00  0.00    +0.019 C 
ATOM     25  C   UNL     1      34.130 -21.290 -17.956  0.00  0.00    +0.057 C 
ATOM     26  C   UNL     1      34.972 -22.532 -15.643  0.00  0.00    +0.044 C 
ATOM     27  C   UNL     1      35.478 -21.310 -17.664  0.00  0.00    +0.034 C 
ATOM     28  C   UNL     1      35.904 -21.938 -16.494  0.00  0.00    +0.142 C 
BRANCH  23  30
ATOM     29  O   UNL     1      30.859 -24.528 -13.519  0.00  0.00    -0.350 OA
ATOM     30  N   UNL     1      32.681 -23.093 -15.107  0.00  0.00    -0.303 N 
ATOM     31  C   UNL     1      31.296 -23.281 -15.553  0.00  0.00    +0.123 C 
ATOM     32  C   UNL     1      33.163 -24.080 -14.132  0.00  0.00    +0.123 C 
ATOM     33  C   UNL     1      30.385 -23.464 -14.344  0.00  0.00    +0.164 C 
ATOM     34  C   UNL     1      32.153 -24.221 -12.999  0.00  0.00    +0.164 C 
ENDBRANCH  23  30
ENDBRANCH   3  25
TORSDOF 6
ENDMDL
MODEL 5
REMARK VINA RESULT:     -11.0      4.532     11.568
REMARK  Name = 5326869
REMARK  6 active torsions:
REMARK  status: ('A' for Active; 'I' for Inactive)
REMARK    1  A    between atoms: N_2  and  C_11
REMARK    2  A    between atoms: C_3  and  C_25
REMARK    3  A    between atoms: N_5  and  C_14
REMARK    4  A    between atoms: C_14  and  C_15
REMARK    5  A    between atoms: C_15  and  C_17
REMARK    6  A    between atoms: C_23  and  N_30
REMARK                            x       y       z     vdW  Elec       q    Type
REMARK                         _______ _______ _______ _____ _____    ______ ____
ROOT
ATOM      1  O   UNL     1      35.734 -20.725 -19.554  0.00  0.00    -0.270 OA
ATOM      2  N   UNL     1      33.614 -19.735 -19.778  0.00  0.00    -0.280 N 
ATOM      3  C   UNL     1      34.570 -20.580 -19.199  0.00  0.00    +0.250 C 
ATOM      4  H   UNL     1      32.722 -19.744 -19.362  0.00  0.00    +0.155 HD
ENDROOT
BRANCH   2  11
ATOM      5  N   UNL     1      33.980 -15.307 -21.890  0.00  0.00    -0.286 N 
ATOM      6  C   UNL     1      33.938 -16.679 -21.790  0.00  0.00    +0.053 C 
ATOM      7  C   UNL     1      34.092 -17.190 -23.080  0.00  0.00    +0.015 C 
ATOM      8  C   UNL     1      34.156 -14.934 -23.196  0.00  0.00    +0.065 C 
ATOM      9  C   UNL     1      33.775 -17.498 -20.667  0.00  0.00    +0.029 C 
ATOM     10  C   UNL     1      34.229 -16.078 -23.957  0.00  0.00    +0.017 C 
ATOM     11  C   UNL     1      33.772 -18.881 -20.871  0.00  0.00    +0.052 C 
ATOM     12  C   UNL     1      34.086 -18.588 -23.261  0.00  0.00    +0.003 C 
ATOM     13  C   UNL     1      33.924 -19.419 -22.147  0.00  0.00    +0.015 C 
BRANCH   5  14
ATOM     14  C   UNL     1      33.860 -14.378 -20.786  0.00  0.00    +0.100 C 
BRANCH  14  15
ATOM     15  C   UNL     1      32.420 -14.193 -20.298  0.00  0.00    +0.048 C 
BRANCH  15  17
ATOM     16  N   UNL     1      30.919 -10.224 -20.898  0.00  0.00    -0.242 NA
ATOM     17  C   UNL     1      31.890 -12.797 -20.509  0.00  0.00    -0.017 C 
ATOM     18  C   UNL     1      31.188 -12.174 -19.495  0.00  0.00    +0.016 C 
ATOM     19  C   UNL     1      32.117 -12.158 -21.715  0.00  0.00    +0.016 C 
ATOM     20  C   UNL     1      30.724 -10.891 -19.739  0.00  0.00    +0.099 C 
ATOM     21  C   UNL     1      31.612 -10.876 -21.858  0.00  0.00    +0.099 C 
ENDBRANCH  15  17
ENDBRANCH  14  15
ENDBRANCH   5  14
ENDBRANCH   2  11
BRANCH   3  25
ATOM     22  F   UNL     1      31.018 -22.879 -16.857  0.00  0.00    -0.204 F 
ATOM     23  C   UNL     1      34.538 -22.535 -16.003  0.00  0.00    +0.050 C 
ATOM     24  C   UNL     1      34.990 -21.769 -17.078  0.00  0.00    +0.019 C 
ATOM     25  C   UNL     1      34.089 -21.395 -18.053  0.00  0.00    +0.057 C 
ATOM     26  C   UNL     1      33.197 -22.909 -15.928  0.00  0.00    +0.044 C 
ATOM     27  C   UNL     1      32.758 -21.752 -18.003  0.00  0.00    +0.034 C 
ATOM     28  C   UNL     1      32.306 -22.518 -16.928  0.00  0.00    +0.142 C 
BRANCH  23  30
ATOM     29  O   UNL     1      37.216 -23.454 -12.894  0.00  0.00    -0.350 OA
ATOM     30  N   UNL     1      35.431 -22.927 -15.000  0.00  0.00    -0.303 N 
ATOM     31  C   UNL     1      36.872 -22.718 -15.180  0.00  0.00    +0.123 C 
ATOM     32  C   UNL     1      34.964 -22.902 -13.607  0.00  0.00    +0.123 C 
ATOM     33  C   UNL     1      37.647 -23.637 -14.242  0.00  0.00    +0.164 C 
ATOM     34  C   UNL     1      35.840 -23.811 -12.753  0.00  0.00    +0.164 C 
ENDBRANCH  23  30
ENDBRANCH   3  25
TORSDOF 6
ENDMDL
MODEL 6
REMARK VINA RESULT:     -10.8      2.273      2.900
REMARK  Name = 5326869
REMARK  6 active torsions:
REMARK  status: ('A' for Active; 'I' for Inactive)
REMARK    1  A    between atoms: N_2  and  C_11
REMARK    2  A    between atoms: C_3  and  C_25
REMARK    3  A    between atoms: N_5  and  C_14
REMARK    4  A    between atoms: C_14  and  C_15
REMARK    5  A    between atoms: C_15  and  C_17
REMARK    6  A    between atoms: C_23  and  N_30
REMARK                            x       y       z     vdW  Elec       q    Type
REMARK                         _______ _______ _______ _____ _____    ______ ____
ROOT
ATOM      1  O   UNL     1      31.727 -12.401 -21.871  0.00  0.00    -0.270 OA
ATOM      2  N   UNL     1      33.164 -12.860 -23.675  0.00  0.00    -0.280 N 
ATOM      3  C   UNL     1      32.518 -12.043 -22.737  0.00  0.00    +0.250 C 
ATOM      4  H   UNL     1      33.770 -12.402 -24.301  0.00  0.00    +0.155 HD
ENDROOT
BRANCH   2  11
ATOM      5  N   UNL     1      33.924 -17.522 -22.301  0.00  0.00    -0.286 N 
ATOM      6  C   UNL     1      33.479 -16.468 -23.067  0.00  0.00    +0.053 C 
ATOM      7  C   UNL     1      32.812 -17.012 -24.166  0.00  0.00    +0.015 C 
ATOM      8  C   UNL     1      33.562 -18.710 -22.877  0.00  0.00    +0.065 C 
ATOM      9  C   UNL     1      33.616 -15.089 -22.872  0.00  0.00    +0.029 C 
ATOM     10  C   UNL     1      32.872 -18.428 -24.033  0.00  0.00    +0.017 C 
ATOM     11  C   UNL     1      33.052 -14.242 -23.831  0.00  0.00    +0.052 C 
ATOM     12  C   UNL     1      32.252 -16.138 -25.120  0.00  0.00    +0.003 C 
ATOM     13  C   UNL     1      32.381 -14.757 -24.938  0.00  0.00    +0.015 C 
BRANCH   5  14
ATOM     14  C   UNL     1      34.665 -17.409 -21.064  0.00  0.00    +0.100 C 
BRANCH  14  15
ATOM     15  C   UNL     1      35.521 -18.640 -20.749  0.00  0.00    +0.048 C 
BRANCH  15  17
ATOM     16  N   UNL     1      33.484 -21.567 -18.374  0.00  0.00    -0.242 NA
ATOM     17  C   UNL     1      34.805 -19.671 -19.914  0.00  0.00    -0.017 C 
ATOM     18  C   UNL     1      35.537 -20.534 -19.122  0.00  0.00    +0.016 C 
ATOM     19  C   UNL     1      33.424 -19.737 -19.952  0.00  0.00    +0.016 C 
ATOM     20  C   UNL     1      34.831 -21.462 -18.373  0.00  0.00    +0.099 C 
ATOM     21  C   UNL     1      32.814 -20.701 -19.166  0.00  0.00    +0.099 C 
ENDBRANCH  15  17
ENDBRANCH  14  15
ENDBRANCH   5  14
ENDBRANCH   2  11
BRANCH   3  25
ATOM     22  F   UNL     1      34.956  -8.379 -24.739  0.00  0.00    -0.204 F 
ATOM     23  C   UNL     1      32.437  -8.350 -22.114  0.00  0.00    +0.050 C 
ATOM     24  C   UNL     1      32.153  -9.712 -22.016  0.00  0.00    +0.019 C 
ATOM     25  C   UNL     1      32.822 -10.593 -22.839  0.00  0.00    +0.057 C 
ATOM     26  C   UNL     1      33.384  -7.900 -23.033  0.00  0.00    +0.044 C 
ATOM     27  C   UNL     1      33.762 -10.173 -23.757  0.00  0.00    +0.034 C 
ATOM     28  C   UNL     1      34.047  -8.811 -23.855  0.00  0.00    +0.142 C 
BRANCH  23  30
ATOM     29  O   UNL     1      30.309  -5.816 -19.519  0.00  0.00    -0.350 OA
ATOM     30  N   UNL     1      31.773  -7.436 -21.290  0.00  0.00    -0.303 N 
ATOM     31  C   UNL     1      30.436  -6.955 -21.658  0.00  0.00    +0.123 C 
ATOM     32  C   UNL     1      32.048  -7.474 -19.847  0.00  0.00    +0.123 C 
ATOM     33  C   UNL     1      30.138  -5.651 -20.927  0.00  0.00    +0.164 C 
ATOM     34  C   UNL     1      31.665  -6.143 -19.213  0.00  0.00    +0.164 C 
ENDBRANCH  23  30
ENDBRANCH   3  25
TORSDOF 6
ENDMDL
MODEL 7
REMARK VINA RESULT:     -10.8      4.464     11.475
REMARK  Name = 5326869
REMARK  6 active torsions:
REMARK  status: ('A' for Active; 'I' for Inactive)
REMARK    1  A    between atoms: N_2  and  C_11
REMARK    2  A    between atoms: C_3  and  C_25
REMARK    3  A    between atoms: N_5  and  C_14
REMARK    4  A    between atoms: C_14  and  C_15
REMARK    5  A    between atoms: C_15  and  C_17
REMARK    6  A    between atoms: C_23  and  N_30
REMARK                            x       y       z     vdW  Elec       q    Type
REMARK                         _______ _______ _______ _____ _____    ______ ____
ROOT
ATOM      1  O   UNL     1      32.444 -21.076 -19.761  0.00  0.00    -0.270 OA
ATOM      2  N   UNL     1      34.398 -19.769 -19.716  0.00  0.00    -0.280 N 
ATOM      3  C   UNL     1      33.504 -20.741 -19.245  0.00  0.00    +0.250 C 
ATOM      4  H   UNL     1      35.206 -19.627 -19.172  0.00  0.00    +0.155 HD
ENDROOT
BRANCH   2  11
ATOM      5  N   UNL     1      33.840 -15.485 -22.069  0.00  0.00    -0.286 N 
ATOM      6  C   UNL     1      34.007 -16.841 -21.898  0.00  0.00    +0.053 C 
ATOM      7  C   UNL     1      34.055 -17.413 -23.171  0.00  0.00    +0.015 C 
ATOM      8  C   UNL     1      33.782 -15.182 -23.403  0.00  0.00    +0.065 C 
ATOM      9  C   UNL     1      34.117 -17.596 -20.725  0.00  0.00    +0.029 C 
ATOM     10  C   UNL     1      33.912 -16.354 -24.110  0.00  0.00    +0.017 C 
ATOM     11  C   UNL     1      34.282 -18.978 -20.859  0.00  0.00    +0.052 C 
ATOM     12  C   UNL     1      34.223 -18.808 -23.281  0.00  0.00    +0.003 C 
ATOM     13  C   UNL     1      34.334 -19.576 -22.117  0.00  0.00    +0.015 C 
BRANCH   5  14
ATOM     14  C   UNL     1      33.741 -14.509 -21.006  0.00  0.00    +0.100 C 
BRANCH  14  15
ATOM     15  C   UNL     1      32.358 -13.858 -20.900  0.00  0.00    +0.048 C 
BRANCH  15  17
ATOM     16  N   UNL     1      32.192  -9.930 -22.605  0.00  0.00    -0.242 NA
ATOM     17  C   UNL     1      32.299 -12.476 -21.501  0.00  0.00    -0.017 C 
ATOM     18  C   UNL     1      31.448 -11.533 -20.956  0.00  0.00    +0.016 C 
ATOM     19  C   UNL     1      33.097 -12.171 -22.587  0.00  0.00    +0.016 C 
ATOM     20  C   UNL     1      31.431 -10.278 -21.543  0.00  0.00    +0.099 C 
ATOM     21  C   UNL     1      33.006 -10.888 -23.101  0.00  0.00    +0.099 C 
ENDBRANCH  15  17
ENDBRANCH  14  15
ENDBRANCH   5  14
ENDBRANCH   2  11
BRANCH   3  25
ATOM     22  F   UNL     1      36.878 -22.063 -16.043  0.00  0.00    -0.204 F 
ATOM     23  C   UNL     1      33.279 -22.591 -15.995  0.00  0.00    +0.050 C 
ATOM     24  C   UNL     1      32.912 -21.974 -17.191  0.00  0.00    +0.019 C 
ATOM     25  C   UNL     1      33.894 -21.401 -17.972  0.00  0.00    +0.057 C 
ATOM     26  C   UNL     1      34.617 -22.622 -15.608  0.00  0.00    +0.044 C 
ATOM     27  C   UNL     1      35.225 -21.417 -17.611  0.00  0.00    +0.034 C 
ATOM     28  C   UNL     1      35.592 -22.035 -16.415  0.00  0.00    +0.142 C 
BRANCH  23  30
ATOM     29  O   UNL     1      30.286 -24.109 -13.460  0.00  0.00    -0.350 OA
ATOM     30  N   UNL     1      32.302 -23.180 -15.185  0.00  0.00    -0.303 N 
ATOM     31  C   UNL     1      32.619 -23.534 -13.796  0.00  0.00    +0.123 C 
ATOM     32  C   UNL     1      30.895 -22.844 -15.439  0.00  0.00    +0.123 C 
ATOM     33  C   UNL     1      31.624 -24.573 -13.290  0.00  0.00    +0.164 C 
ATOM     34  C   UNL     1      29.992 -23.919 -14.845  0.00  0.00    +0.164 C 
ENDBRANCH  23  30
ENDBRANCH   3  25
TORSDOF 6
ENDMDL
MODEL 8
REMARK VINA RESULT:     -10.6      3.134      9.722
REMARK  Name = 5326869
REMARK  6 active torsions:
REMARK  status: ('A' for Active; 'I' for Inactive)
REMARK    1  A    between atoms: N_2  and  C_11
REMARK    2  A    between atoms: C_3  and  C_25
REMARK    3  A    between atoms: N_5  and  C_14
REMARK    4  A    between atoms: C_14  and  C_15
REMARK    5  A    between atoms: C_15  and  C_17
REMARK    6  A    between atoms: C_23  and  N_30
REMARK                            x       y       z     vdW  Elec       q    Type
REMARK                         _______ _______ _______ _____ _____    ______ ____
ROOT
ATOM      1  O   UNL     1      33.429 -12.046 -21.973  0.00  0.00    -0.270 OA
ATOM      2  N   UNL     1      33.168 -11.264 -24.175  0.00  0.00    -0.280 N 
ATOM      3  C   UNL     1      33.221 -12.235 -23.166  0.00  0.00    +0.250 C 
ATOM      4  H   UNL     1      32.989 -11.595 -25.084  0.00  0.00    +0.155 HD
ENDROOT
BRANCH   2  11
ATOM      5  N   UNL     1      31.802  -6.776 -22.692  0.00  0.00    -0.286 N 
ATOM      6  C   UNL     1      32.577  -7.751 -23.280  0.00  0.00    +0.053 C 
ATOM      7  C   UNL     1      33.704  -7.118 -23.805  0.00  0.00    +0.015 C 
ATOM      8  C   UNL     1      32.401  -5.552 -22.828  0.00  0.00    +0.065 C 
ATOM      9  C   UNL     1      32.365  -9.131 -23.385  0.00  0.00    +0.029 C 
ATOM     10  C   UNL     1      33.581  -5.731 -23.512  0.00  0.00    +0.017 C 
ATOM     11  C   UNL     1      33.338  -9.884 -24.048  0.00  0.00    +0.052 C 
ATOM     12  C   UNL     1      34.672  -7.899 -24.469  0.00  0.00    +0.003 C 
ATOM     13  C   UNL     1      34.474  -9.280 -24.582  0.00  0.00    +0.015 C 
BRANCH   5  14
ATOM     14  C   UNL     1      30.538  -6.995 -22.022  0.00  0.00    +0.100 C 
BRANCH  14  15
ATOM     15  C   UNL     1      30.667  -7.127 -20.502  0.00  0.00    +0.048 C 
BRANCH  15  17
ATOM     16  N   UNL     1      30.825 -11.192 -19.154  0.00  0.00    -0.242 NA
ATOM     17  C   UNL     1      30.722  -8.558 -20.027  0.00  0.00    -0.017 C 
ATOM     18  C   UNL     1      30.371  -9.577 -20.893  0.00  0.00    +0.016 C 
ATOM     19  C   UNL     1      31.124  -8.831 -18.733  0.00  0.00    +0.016 C 
ATOM     20  C   UNL     1      30.439 -10.873 -20.409  0.00  0.00    +0.099 C 
ATOM     21  C   UNL     1      31.158 -10.161 -18.346  0.00  0.00    +0.099 C 
ENDBRANCH  15  17
ENDBRANCH  14  15
ENDBRANCH   5  14
ENDBRANCH   2  11
BRANCH   3  25
ATOM     22  F   UNL     1      31.441 -15.431 -26.329  0.00  0.00    -0.204 F 
ATOM     23  C   UNL     1      33.383 -15.976 -23.301  0.00  0.00    +0.050 C 
ATOM     24  C   UNL     1      33.565 -14.661 -22.873  0.00  0.00    +0.019 C 
ATOM     25  C   UNL     1      33.025 -13.636 -23.621  0.00  0.00    +0.057 C 
ATOM     26  C   UNL     1      32.666 -16.236 -24.468  0.00  0.00    +0.044 C 
ATOM     27  C   UNL     1      32.312 -13.867 -24.779  0.00  0.00    +0.034 C 
ATOM     28  C   UNL     1      32.129 -15.181 -25.207  0.00  0.00    +0.142 C 
BRANCH  23  30
ATOM     29  O   UNL     1      34.748 -19.193 -20.963  0.00  0.00    -0.350 OA
ATOM     30  N   UNL     1      33.920 -17.033 -22.560  0.00  0.00    -0.303 N 
ATOM     31  C   UNL     1      34.377 -16.806 -21.184  0.00  0.00    +0.123 C 
ATOM     32  C   UNL     1      33.441 -18.393 -22.843  0.00  0.00    +0.123 C 
ATOM     33  C   UNL     1      35.344 -17.911 -20.773  0.00  0.00    +0.164 C 
ATOM     34  C   UNL     1      34.458 -19.413 -22.344  0.00  0.00    +0.164 C 
ENDBRANCH  23  30
ENDBRANCH   3  25
TORSDOF 6
ENDMDL
MODEL 9
REMARK VINA RESULT:     -10.6      3.117     11.096
REMARK  Name = 5326869
REMARK  6 active torsions:
REMARK  status: ('A' for Active; 'I' for Inactive)
REMARK    1  A    between atoms: N_2  and  C_11
REMARK    2  A    between atoms: C_3  and  C_25
REMARK    3  A    between atoms: N_5  and  C_14
REMARK    4  A    between atoms: C_14  and  C_15
REMARK    5  A    between atoms: C_15  and  C_17
REMARK    6  A    between atoms: C_23  and  N_30
REMARK                            x       y       z     vdW  Elec       q    Type
REMARK                         _______ _______ _______ _____ _____    ______ ____
ROOT
ATOM      1  O   UNL     1      33.417 -11.231 -22.903  0.00  0.00    -0.270 OA
ATOM      2  N   UNL     1      31.716 -12.034 -21.493  0.00  0.00    -0.280 N 
ATOM      3  C   UNL     1      32.669 -12.122 -22.517  0.00  0.00    +0.250 C 
ATOM      4  H   UNL     1      31.198 -12.852 -21.314  0.00  0.00    +0.155 HD
ENDROOT
BRANCH   2  11
ATOM      5  N   UNL     1      31.057  -7.223 -20.702  0.00  0.00    -0.286 N 
ATOM      6  C   UNL     1      31.116  -8.571 -20.426  0.00  0.00    +0.053 C 
ATOM      7  C   UNL     1      30.791  -8.729 -19.078  0.00  0.00    +0.015 C 
ATOM      8  C   UNL     1      30.706  -6.527 -19.576  0.00  0.00    +0.065 C 
ATOM      9  C   UNL     1      31.431  -9.650 -21.260  0.00  0.00    +0.029 C 
ATOM     10  C   UNL     1      30.534  -7.432 -18.554  0.00  0.00    +0.017 C 
ATOM     11  C   UNL     1      31.410 -10.930 -20.696  0.00  0.00    +0.052 C 
ATOM     12  C   UNL     1      30.777 -10.029 -18.532  0.00  0.00    +0.003 C 
ATOM     13  C   UNL     1      31.089 -11.118 -19.354  0.00  0.00    +0.015 C 
BRANCH   5  14
ATOM     14  C   UNL     1      31.323  -6.615 -21.987  0.00  0.00    +0.100 C 
BRANCH  14  15
ATOM     15  C   UNL     1      32.805  -6.308 -22.224  0.00  0.00    +0.048 C 
BRANCH  15  17
ATOM     16  N   UNL     1      33.513  -3.902 -25.699  0.00  0.00    -0.242 NA
ATOM     17  C   UNL     1      33.053  -5.462 -23.447  0.00  0.00    -0.017 C 
ATOM     18  C   UNL     1      32.133  -4.495 -23.805  0.00  0.00    +0.016 C 
ATOM     19  C   UNL     1      34.200  -5.664 -24.193  0.00  0.00    +0.016 C 
ATOM     20  C   UNL     1      32.408  -3.743 -24.937  0.00  0.00    +0.099 C 
ATOM     21  C   UNL     1      34.382  -4.861 -25.307  0.00  0.00    +0.099 C 
ENDBRANCH  15  17
ENDBRANCH  14  15
ENDBRANCH   5  14
ENDBRANCH   2  11
BRANCH   3  25
ATOM     22  F   UNL     1      31.895 -14.889 -26.406  0.00  0.00    -0.204 F 
ATOM     23  C   UNL     1      33.351 -15.745 -23.184  0.00  0.00    +0.050 C 
ATOM     24  C   UNL     1      33.280 -14.513 -22.534  0.00  0.00    +0.019 C 
ATOM     25  C   UNL     1      32.743 -13.436 -23.207  0.00  0.00    +0.057 C 
ATOM     26  C   UNL     1      32.883 -15.872 -24.491  0.00  0.00    +0.044 C 
ATOM     27  C   UNL     1      32.273 -13.535 -24.500  0.00  0.00    +0.034 C 
ATOM     28  C   UNL     1      32.343 -14.767 -25.150  0.00  0.00    +0.142 C 
BRANCH  23  30
ATOM     29  O   UNL     1      34.724 -19.128 -21.096  0.00  0.00    -0.350 OA
ATOM     30  N   UNL     1      33.891 -16.853 -22.523  0.00  0.00    -0.303 N 
ATOM     31  C   UNL     1      34.319 -16.736 -21.124  0.00  0.00    +0.123 C 
ATOM     32  C   UNL     1      33.439 -18.191 -22.929  0.00  0.00    +0.123 C 
ATOM     33  C   UNL     1      35.296 -17.857 -20.788  0.00  0.00    +0.164 C 
ATOM     34  C   UNL     1      34.463 -19.234 -22.496  0.00  0.00    +0.164 C 
ENDBRANCH  23  30
ENDBRANCH   3  25
TORSDOF 6
ENDMDL
