MODEL 1
REMARK VINA RESULT:     -13.0      0.000      0.000
REMARK  Name = 1712
REMARK  5 active torsions:
REMARK  status: ('A' for Active; 'I' for Inactive)
REMARK    1  A    between atoms: C_1  and  N_18
REMARK    2  A    between atoms: C_2  and  S_7
REMARK    3  A    between atoms: S_7  and  N_10
REMARK    4  A    between atoms: N_18  and  C_20
REMARK    5  A    between atoms: C_20  and  C_26
REMARK                            x       y       z     vdW  Elec       q    Type
REMARK                         _______ _______ _______ _____ _____    ______ ____
ROOT
ATOM      1  C   UNL     1      34.394 -19.767 -20.006  0.00  0.00    +0.045 C 
ATOM      2  C   UNL     1      33.400 -21.723 -18.243  0.00  0.00    +0.125 C 
ATOM      3  C   UNL     1      33.011 -19.995 -19.887  0.00  0.00    +0.016 C 
ATOM      4  C   UNL     1      35.268 -20.542 -19.222  0.00  0.00    +0.016 C 
ATOM      5  C   UNL     1      32.518 -20.965 -19.013  0.00  0.00    +0.021 C 
ATOM      6  C   UNL     1      34.775 -21.511 -18.348  0.00  0.00    +0.021 C 
ENDROOT
BRANCH   2   7
ATOM      7  S   UNL     1      32.784 -22.937 -17.151  0.00  0.00    +0.075 S 
ATOM      8  O   UNL     1      33.694 -23.015 -16.013  0.00  0.00    -0.150 OA
ATOM      9  O   UNL     1      32.504 -24.149 -17.910  0.00  0.00    -0.150 OA
BRANCH   7  10
ATOM     10  N   UNL     1      31.304 -22.243 -16.605  0.00  0.00    -0.199 N 
ATOM     11  H   UNL     1      30.863 -21.526 -17.114  0.00  0.00    +0.175 HD
ATOM     12  N   UNL     1      31.427 -22.480 -14.261  0.00  0.00    -0.228 NA
ATOM     13  C   UNL     1      30.732 -22.745 -15.384  0.00  0.00    +0.147 C 
ATOM     14  C   UNL     1      29.542 -23.445 -15.429  0.00  0.00    +0.036 C 
ATOM     15  C   UNL     1      29.026 -23.911 -14.225  0.00  0.00    +0.005 C 
ATOM     16  C   UNL     1      30.895 -22.949 -13.111  0.00  0.00    +0.100 C 
ATOM     17  C   UNL     1      29.709 -23.662 -13.039  0.00  0.00    +0.021 C 
ENDBRANCH   7  10
ENDBRANCH   2   7
BRANCH   1  18
ATOM     18  N   UNL     1      34.883 -18.803 -20.873  0.00  0.00    -0.328 N 
ATOM     19  H   UNL     1      35.516 -19.086 -21.573  0.00  0.00    +0.147 HD
BRANCH  18  20
ATOM     20  C   UNL     1      34.522 -17.408 -20.809  0.00  0.00    +0.127 C 
BRANCH  20  26
ATOM     21  S   UNL     1      33.324 -14.025 -20.439  0.00  0.00    -0.104 S 
ATOM     22  O   UNL     1      34.599 -19.005 -23.277  0.00  0.00    -0.210 OA
ATOM     23  N   UNL     1      33.679 -17.211 -24.443  0.00  0.00    -0.333 NA
ATOM     24  N   UNL     1      32.337 -12.386 -22.190  0.00  0.00    -0.262 NA
ATOM     25  C   UNL     1      33.544 -15.817 -22.598  0.00  0.00    +0.033 C 
ATOM     26  C   UNL     1      34.068 -16.953 -22.145  0.00  0.00    +0.092 C 
ATOM     27  C   UNL     1      33.323 -16.038 -24.036  0.00  0.00    +0.142 C 
ATOM     28  C   UNL     1      33.194 -14.576 -22.043  0.00  0.00    +0.114 C 
ATOM     29  C   UNL     1      34.160 -17.865 -23.327  0.00  0.00    +0.202 C 
ATOM     30  C   UNL     1      32.649 -13.565 -22.818  0.00  0.00    +0.069 C 
ATOM     31  C   UNL     1      32.736 -14.927 -24.833  0.00  0.00    +0.034 C 
ATOM     32  C   UNL     1      32.428 -13.767 -24.218  0.00  0.00    +0.018 C 
ATOM     33  C   UNL     1      32.653 -12.514 -20.919  0.00  0.00    +0.183 C 
ENDBRANCH  20  26
ENDBRANCH  18  20
ENDBRANCH   1  18
TORSDOF 5
ENDMDL
MODEL 2
REMARK VINA RESULT:     -12.4      2.443     10.278
REMARK  Name = 1712
REMARK  5 active torsions:
REMARK  status: ('A' for Active; 'I' for Inactive)
REMARK    1  A    between atoms: C_1  and  N_18
REMARK    2  A    between atoms: C_2  and  S_7
REMARK    3  A    between atoms: S_7  and  N_10
REMARK    4  A    between atoms: N_18  and  C_20
REMARK    5  A    between atoms: C_20  and  C_26
REMARK                            x       y       z     vdW  Elec       q    Type
REMARK                         _______ _______ _______ _____ _____    ______ ____
ROOT
ATOM      1  C   UNL     1      34.458 -18.917 -20.434  0.00  0.00    +0.045 C 
ATOM      2  C   UNL     1      33.725 -17.380 -22.674  0.00  0.00    +0.125 C 
ATOM      3  C   UNL     1      33.987 -19.533 -21.608  0.00  0.00    +0.016 C 
ATOM      4  C   UNL     1      34.552 -17.514 -20.407  0.00  0.00    +0.016 C 
ATOM      5  C   UNL     1      33.624 -18.771 -22.718  0.00  0.00    +0.021 C 
ATOM      6  C   UNL     1      34.189 -16.752 -21.518  0.00  0.00    +0.021 C 
ENDROOT
BRANCH   2   7
ATOM      7  S   UNL     1      33.270 -16.426 -24.063  0.00  0.00    +0.075 S 
ATOM      8  O   UNL     1      32.319 -17.207 -24.847  0.00  0.00    -0.150 OA
ATOM      9  O   UNL     1      34.481 -15.938 -24.711  0.00  0.00    -0.150 OA
BRANCH   7  10
ATOM     10  N   UNL     1      32.420 -15.104 -23.356  0.00  0.00    -0.199 N 
ATOM     11  H   UNL     1      31.794 -15.245 -22.611  0.00  0.00    +0.175 HD
ATOM     12  N   UNL     1      32.213 -13.578 -25.143  0.00  0.00    -0.228 NA
ATOM     13  C   UNL     1      32.655 -13.788 -23.888  0.00  0.00    +0.147 C 
ATOM     14  C   UNL     1      33.298 -12.845 -23.110  0.00  0.00    +0.036 C 
ATOM     15  C   UNL     1      33.503 -11.586 -23.664  0.00  0.00    +0.005 C 
ATOM     16  C   UNL     1      32.430 -12.343 -25.649  0.00  0.00    +0.100 C 
ATOM     17  C   UNL     1      33.063 -11.323 -24.957  0.00  0.00    +0.021 C 
ENDBRANCH   7  10
ENDBRANCH   2   7
BRANCH   1  18
ATOM     18  N   UNL     1      34.820 -19.675 -19.330  0.00  0.00    -0.328 N 
ATOM     19  H   UNL     1      35.126 -19.201 -18.522  0.00  0.00    +0.147 HD
BRANCH  18  20
ATOM     20  C   UNL     1      34.777 -21.116 -19.297  0.00  0.00    +0.127 C 
BRANCH  20  26
ATOM     21  S   UNL     1      36.489 -22.025 -16.254  0.00  0.00    -0.104 S 
ATOM     22  O   UNL     1      31.883 -21.217 -19.805  0.00  0.00    -0.210 OA
ATOM     23  N   UNL     1      31.551 -22.010 -17.640  0.00  0.00    -0.333 NA
ATOM     24  N   UNL     1      35.561 -22.908 -13.998  0.00  0.00    -0.262 NA
ATOM     25  C   UNL     1      33.796 -21.994 -17.071  0.00  0.00    +0.033 C 
ATOM     26  C   UNL     1      33.746 -21.557 -18.327  0.00  0.00    +0.092 C 
ATOM     27  C   UNL     1      32.398 -22.260 -16.698  0.00  0.00    +0.142 C 
ATOM     28  C   UNL     1      34.805 -22.231 -16.124  0.00  0.00    +0.114 C 
ATOM     29  C   UNL     1      32.301 -21.562 -18.709  0.00  0.00    +0.202 C 
ATOM     30  C   UNL     1      34.511 -22.706 -14.856  0.00  0.00    +0.069 C 
ATOM     31  C   UNL     1      32.124 -22.769 -15.327  0.00  0.00    +0.034 C 
ATOM     32  C   UNL     1      33.155 -22.968 -14.481  0.00  0.00    +0.018 C 
ATOM     33  C   UNL     1      36.666 -22.579 -14.633  0.00  0.00    +0.183 C 
ENDBRANCH  20  26
ENDBRANCH  18  20
ENDBRANCH   1  18
TORSDOF 5
ENDMDL
MODEL 3
REMARK VINA RESULT:     -12.1      3.901      6.863
REMARK  Name = 1712
REMARK  5 active torsions:
REMARK  status: ('A' for Active; 'I' for Inactive)
REMARK    1  A    between atoms: C_1  and  N_18
REMARK    2  A    between atoms: C_2  and  S_7
REMARK    3  A    between atoms: S_7  and  N_10
REMARK    4  A    between atoms: N_18  and  C_20
REMARK    5  A    between atoms: C_20  and  C_26
REMARK                            x       y       z     vdW  Elec       q    Type
REMARK                         _______ _______ _______ _____ _____    ______ ____
ROOT
ATOM      1  C   UNL     1      33.309 -14.088 -23.512  0.00  0.00    +0.045 C 
ATOM      2  C   UNL     1      34.080 -16.643 -22.623  0.00  0.00    +0.125 C 
ATOM      3  C   UNL     1      33.658 -14.308 -22.168  0.00  0.00    +0.016 C 
ATOM      4  C   UNL     1      33.353 -15.177 -24.401  0.00  0.00    +0.016 C 
ATOM      5  C   UNL     1      34.041 -15.575 -21.727  0.00  0.00    +0.021 C 
ATOM      6  C   UNL     1      33.736 -16.444 -23.960  0.00  0.00    +0.021 C 
ENDROOT
BRANCH   2   7
ATOM      7  S   UNL     1      34.557 -18.229 -22.071  0.00  0.00    +0.075 S 
ATOM      8  O   UNL     1      36.010 -18.237 -21.945  0.00  0.00    -0.150 OA
ATOM      9  O   UNL     1      33.920 -19.229 -22.919  0.00  0.00    -0.150 OA
BRANCH   7  10
ATOM     10  N   UNL     1      33.883 -18.301 -20.487  0.00  0.00    -0.199 N 
ATOM     11  H   UNL     1      33.550 -17.490 -20.041  0.00  0.00    +0.175 HD
ATOM     12  N   UNL     1      35.006 -20.127 -19.504  0.00  0.00    -0.228 NA
ATOM     13  C   UNL     1      33.820 -19.583 -19.837  0.00  0.00    +0.147 C 
ATOM     14  C   UNL     1      32.590 -20.164 -19.598  0.00  0.00    +0.036 C 
ATOM     15  C   UNL     1      32.577 -21.403 -18.966  0.00  0.00    +0.005 C 
ATOM     16  C   UNL     1      34.954 -21.332 -18.892  0.00  0.00    +0.100 C 
ATOM     17  C   UNL     1      33.778 -22.004 -18.603  0.00  0.00    +0.021 C 
ENDBRANCH   7  10
ENDBRANCH   2   7
BRANCH   1  18
ATOM     18  N   UNL     1      32.929 -12.828 -23.951  0.00  0.00    -0.328 N 
ATOM     19  H   UNL     1      33.086 -12.599 -24.896  0.00  0.00    +0.147 HD
BRANCH  18  20
ATOM     20  C   UNL     1      32.321 -11.833 -23.103  0.00  0.00    +0.127 C 
BRANCH  20  26
ATOM     21  S   UNL     1      31.039  -9.532 -20.638  0.00  0.00    -0.104 S 
ATOM     22  O   UNL     1      34.224 -11.242 -25.264  0.00  0.00    -0.210 OA
ATOM     23  N   UNL     1      34.320  -9.028 -24.548  0.00  0.00    -0.333 NA
ATOM     24  N   UNL     1      31.515  -7.007 -20.281  0.00  0.00    -0.262 NA
ATOM     25  C   UNL     1      32.832  -9.316 -22.796  0.00  0.00    +0.033 C 
ATOM     26  C   UNL     1      32.934 -10.511 -23.374  0.00  0.00    +0.092 C 
ATOM     27  C   UNL     1      33.718  -8.434 -23.571  0.00  0.00    +0.142 C 
ATOM     28  C   UNL     1      32.125  -8.779 -21.709  0.00  0.00    +0.114 C 
ATOM     29  C   UNL     1      33.893 -10.339 -24.508  0.00  0.00    +0.202 C 
ATOM     30  C   UNL     1      32.244  -7.444 -21.357  0.00  0.00    +0.069 C 
ATOM     31  C   UNL     1      33.819  -7.007 -23.160  0.00  0.00    +0.034 C 
ATOM     32  C   UNL     1      33.103  -6.575 -22.103  0.00  0.00    +0.018 C 
ATOM     33  C   UNL     1      30.833  -8.032 -19.817  0.00  0.00    +0.183 C 
ENDBRANCH  20  26
ENDBRANCH  18  20
ENDBRANCH   1  18
TORSDOF 5
ENDMDL
MODEL 4
REMARK VINA RESULT:     -12.0      2.291     10.357
REMARK  Name = 1712
REMARK  5 active torsions:
REMARK  status: ('A' for Active; 'I' for Inactive)
REMARK    1  A    between atoms: C_1  and  N_18
REMARK    2  A    between atoms: C_2  and  S_7
REMARK    3  A    between atoms: S_7  and  N_10
REMARK    4  A    between atoms: N_18  and  C_20
REMARK    5  A    between atoms: C_20  and  C_26
REMARK                            x       y       z     vdW  Elec       q    Type
REMARK                         _______ _______ _______ _____ _____    ______ ____
ROOT
ATOM      1  C   UNL     1      33.342 -21.367 -18.792  0.00  0.00    +0.045 C 
ATOM      2  C   UNL     1      34.645 -19.368 -20.283  0.00  0.00    +0.125 C 
ATOM      3  C   UNL     1      32.606 -20.437 -19.548  0.00  0.00    +0.016 C 
ATOM      4  C   UNL     1      34.746 -21.272 -18.799  0.00  0.00    +0.016 C 
ATOM      5  C   UNL     1      33.252 -19.446 -20.288  0.00  0.00    +0.021 C 
ATOM      6  C   UNL     1      35.392 -20.282 -19.539  0.00  0.00    +0.021 C 
ENDROOT
BRANCH   2   7
ATOM      7  S   UNL     1      35.453 -18.127 -21.207  0.00  0.00    +0.075 S 
ATOM      8  O   UNL     1      36.890 -18.325 -21.057  0.00  0.00    -0.150 OA
ATOM      9  O   UNL     1      34.881 -16.834 -20.853  0.00  0.00    -0.150 OA
BRANCH   7  10
ATOM     10  N   UNL     1      35.027 -18.521 -22.830  0.00  0.00    -0.199 N 
ATOM     11  H   UNL     1      35.436 -19.289 -23.289  0.00  0.00    +0.175 HD
ATOM     12  N   UNL     1      34.445 -16.432 -23.758  0.00  0.00    -0.228 NA
ATOM     13  C   UNL     1      34.055 -17.693 -23.493  0.00  0.00    +0.147 C 
ATOM     14  C   UNL     1      32.818 -18.220 -23.811  0.00  0.00    +0.036 C 
ATOM     15  C   UNL     1      31.910 -17.384 -24.452  0.00  0.00    +0.005 C 
ATOM     16  C   UNL     1      33.536 -15.649 -24.381  0.00  0.00    +0.100 C 
ATOM     17  C   UNL     1      32.268 -16.073 -24.746  0.00  0.00    +0.021 C 
ENDBRANCH   7  10
ENDBRANCH   2   7
BRANCH   1  18
ATOM     18  N   UNL     1      32.700 -22.353 -18.058  0.00  0.00    -0.328 N 
ATOM     19  H   UNL     1      32.991 -23.286 -18.180  0.00  0.00    +0.147 HD
BRANCH  18  20
ATOM     20  C   UNL     1      31.630 -22.092 -17.128  0.00  0.00    +0.127 C 
BRANCH  20  26
ATOM     21  S   UNL     1      28.443 -23.256 -15.902  0.00  0.00    -0.104 S 
ATOM     22  O   UNL     1      34.264 -22.492 -15.885  0.00  0.00    -0.210 OA
ATOM     23  N   UNL     1      33.247 -23.676 -14.157  0.00  0.00    -0.333 NA
ATOM     24  N   UNL     1      27.851 -24.622 -13.778  0.00  0.00    -0.262 NA
ATOM     25  C   UNL     1      31.099 -23.454 -14.995  0.00  0.00    +0.033 C 
ATOM     26  C   UNL     1      31.885 -22.823 -15.863  0.00  0.00    +0.092 C 
ATOM     27  C   UNL     1      32.004 -23.965 -13.953  0.00  0.00    +0.142 C 
ATOM     28  C   UNL     1      29.724 -23.708 -14.878  0.00  0.00    +0.114 C 
ATOM     29  C   UNL     1      33.277 -22.958 -15.335  0.00  0.00    +0.202 C 
ATOM     30  C   UNL     1      29.207 -24.424 -13.809  0.00  0.00    +0.069 C 
ATOM     31  C   UNL     1      31.411 -24.729 -12.823  0.00  0.00    +0.034 C 
ATOM     32  C   UNL     1      30.078 -24.926 -12.789  0.00  0.00    +0.018 C 
ATOM     33  C   UNL     1      27.337 -24.044 -14.843  0.00  0.00    +0.183 C 
ENDBRANCH  20  26
ENDBRANCH  18  20
ENDBRANCH   1  18
TORSDOF 5
ENDMDL
MODEL 5
REMARK VINA RESULT:     -11.9      1.840      2.193
REMARK  Name = 1712
REMARK  5 active torsions:
REMARK  status: ('A' for Active; 'I' for Inactive)
REMARK    1  A    between atoms: C_1  and  N_18
REMARK    2  A    between atoms: C_2  and  S_7
REMARK    3  A    between atoms: S_7  and  N_10
REMARK    4  A    between atoms: N_18  and  C_20
REMARK    5  A    between atoms: C_20  and  C_26
REMARK                            x       y       z     vdW  Elec       q    Type
REMARK                         _______ _______ _______ _____ _____    ______ ____
ROOT
ATOM      1  C   UNL     1      34.072 -20.023 -19.947  0.00  0.00    +0.045 C 
ATOM      2  C   UNL     1      32.948 -21.716 -18.001  0.00  0.00    +0.125 C 
ATOM      3  C   UNL     1      32.677 -20.118 -19.792  0.00  0.00    +0.016 C 
ATOM      4  C   UNL     1      34.891 -20.797 -19.105  0.00  0.00    +0.016 C 
ATOM      5  C   UNL     1      32.120 -20.957 -18.827  0.00  0.00    +0.021 C 
ATOM      6  C   UNL     1      34.334 -21.636 -18.140  0.00  0.00    +0.021 C 
ENDROOT
BRANCH   2   7
ATOM      7  S   UNL     1      32.251 -22.767 -16.794  0.00  0.00    +0.075 S 
ATOM      8  O   UNL     1      32.754 -24.115 -17.034  0.00  0.00    -0.150 OA
ATOM      9  O   UNL     1      30.810 -22.550 -16.762  0.00  0.00    -0.150 OA
BRANCH   7  10
ATOM     10  N   UNL     1      32.954 -22.188 -15.331  0.00  0.00    -0.199 N 
ATOM     11  H   UNL     1      32.803 -21.264 -15.028  0.00  0.00    +0.175 HD
ATOM     12  N   UNL     1      34.931 -23.460 -15.139  0.00  0.00    -0.228 NA
ATOM     13  C   UNL     1      33.768 -23.094 -14.566  0.00  0.00    +0.147 C 
ATOM     14  C   UNL     1      33.328 -23.524 -13.330  0.00  0.00    +0.036 C 
ATOM     15  C   UNL     1      34.148 -24.399 -12.625  0.00  0.00    +0.005 C 
ATOM     16  C   UNL     1      35.701 -24.312 -14.425  0.00  0.00    +0.100 C 
ATOM     17  C   UNL     1      35.358 -24.805 -13.177  0.00  0.00    +0.021 C 
ENDBRANCH   7  10
ENDBRANCH   2   7
BRANCH   1  18
ATOM     18  N   UNL     1      34.626 -19.188 -20.906  0.00  0.00    -0.328 N 
ATOM     19  H   UNL     1      35.109 -19.601 -21.658  0.00  0.00    +0.147 HD
BRANCH  18  20
ATOM     20  C   UNL     1      34.536 -17.750 -20.865  0.00  0.00    +0.127 C 
BRANCH  20  26
ATOM     21  S   UNL     1      33.505 -14.326 -20.385  0.00  0.00    -0.104 S 
ATOM     22  O   UNL     1      34.454 -19.295 -23.365  0.00  0.00    -0.210 OA
ATOM     23  N   UNL     1      33.575 -17.438 -24.461  0.00  0.00    -0.333 NA
ATOM     24  N   UNL     1      32.532 -12.608 -22.067  0.00  0.00    -0.262 NA
ATOM     25  C   UNL     1      33.568 -16.079 -22.585  0.00  0.00    +0.033 C 
ATOM     26  C   UNL     1      34.056 -17.247 -22.174  0.00  0.00    +0.092 C 
ATOM     27  C   UNL     1      33.287 -16.259 -24.018  0.00  0.00    +0.142 C 
ATOM     28  C   UNL     1      33.294 -14.836 -21.994  0.00  0.00    +0.114 C 
ATOM     29  C   UNL     1      34.066 -18.136 -23.376  0.00  0.00    +0.202 C 
ATOM     30  C   UNL     1      32.768 -13.785 -22.728  0.00  0.00    +0.069 C 
ATOM     31  C   UNL     1      32.723 -15.107 -24.771  0.00  0.00    +0.034 C 
ATOM     32  C   UNL     1      32.490 -13.948 -24.123  0.00  0.00    +0.018 C 
ATOM     33  C   UNL     1      32.886 -12.777 -20.810  0.00  0.00    +0.183 C 
ENDBRANCH  20  26
ENDBRANCH  18  20
ENDBRANCH   1  18
TORSDOF 5
ENDMDL
MODEL 6
REMARK VINA RESULT:     -11.4      3.919      7.091
REMARK  Name = 1712
REMARK  5 active torsions:
REMARK  status: ('A' for Active; 'I' for Inactive)
REMARK    1  A    between atoms: C_1  and  N_18
REMARK    2  A    between atoms: C_2  and  S_7
REMARK    3  A    between atoms: S_7  and  N_10
REMARK    4  A    between atoms: N_18  and  C_20
REMARK    5  A    between atoms: C_20  and  C_26
REMARK                            x       y       z     vdW  Elec       q    Type
REMARK                         _______ _______ _______ _____ _____    ______ ____
ROOT
ATOM      1  C   UNL     1      33.148 -13.890 -23.203  0.00  0.00    +0.045 C 
ATOM      2  C   UNL     1      33.951 -16.487 -22.479  0.00  0.00    +0.125 C 
ATOM      3  C   UNL     1      33.130 -14.937 -24.142  0.00  0.00    +0.016 C 
ATOM      4  C   UNL     1      33.578 -14.173 -21.894  0.00  0.00    +0.016 C 
ATOM      5  C   UNL     1      33.528 -16.225 -23.783  0.00  0.00    +0.021 C 
ATOM      6  C   UNL     1      33.976 -15.460 -21.535  0.00  0.00    +0.021 C 
ENDROOT
BRANCH   2   7
ATOM      7  S   UNL     1      34.450 -18.098 -22.030  0.00  0.00    +0.075 S 
ATOM      8  O   UNL     1      35.907 -18.109 -21.956  0.00  0.00    -0.150 OA
ATOM      9  O   UNL     1      33.784 -19.054 -22.907  0.00  0.00    -0.150 OA
BRANCH   7  10
ATOM     10  N   UNL     1      33.833 -18.257 -20.429  0.00  0.00    -0.199 N 
ATOM     11  H   UNL     1      33.489 -17.476 -19.939  0.00  0.00    +0.175 HD
ATOM     12  N   UNL     1      35.048 -20.082 -19.559  0.00  0.00    -0.228 NA
ATOM     13  C   UNL     1      33.834 -19.565 -19.831  0.00  0.00    +0.147 C 
ATOM     14  C   UNL     1      32.633 -20.197 -19.575  0.00  0.00    +0.036 C 
ATOM     15  C   UNL     1      32.682 -21.460 -18.995  0.00  0.00    +0.005 C 
ATOM     16  C   UNL     1      35.056 -21.312 -18.997  0.00  0.00    +0.100 C 
ATOM     17  C   UNL     1      33.913 -22.034 -18.698  0.00  0.00    +0.021 C 
ENDBRANCH   7  10
ENDBRANCH   2   7
BRANCH   1  18
ATOM     18  N   UNL     1      32.751 -12.609 -23.560  0.00  0.00    -0.328 N 
ATOM     19  H   UNL     1      31.977 -12.514 -24.161  0.00  0.00    +0.147 HD
BRANCH  18  20
ATOM     20  C   UNL     1      33.408 -11.410 -23.103  0.00  0.00    +0.127 C 
BRANCH  20  26
ATOM     21  S   UNL     1      33.840  -8.174 -24.640  0.00  0.00    -0.104 S 
ATOM     22  O   UNL     1      31.453 -12.146 -21.034  0.00  0.00    -0.210 OA
ATOM     23  N   UNL     1      30.640  -9.964 -21.054  0.00  0.00    -0.333 NA
ATOM     24  N   UNL     1      32.573  -5.944 -24.256  0.00  0.00    -0.262 NA
ATOM     25  C   UNL     1      32.111  -9.213 -22.678  0.00  0.00    +0.033 C 
ATOM     26  C   UNL     1      32.407 -10.498 -22.499  0.00  0.00    +0.092 C 
ATOM     27  C   UNL     1      31.002  -8.938 -21.750  0.00  0.00    +0.142 C 
ATOM     28  C   UNL     1      32.589  -8.171 -23.487  0.00  0.00    +0.114 C 
ATOM     29  C   UNL     1      31.464 -10.997 -21.451  0.00  0.00    +0.202 C 
ATOM     30  C   UNL     1      32.041  -6.899 -23.429  0.00  0.00    +0.069 C 
ATOM     31  C   UNL     1      30.442  -7.560 -21.718  0.00  0.00    +0.034 C 
ATOM     32  C   UNL     1      30.963  -6.619 -22.530  0.00  0.00    +0.018 C 
ATOM     33  C   UNL     1      33.540  -6.507 -24.949  0.00  0.00    +0.183 C 
ENDBRANCH  20  26
ENDBRANCH  18  20
ENDBRANCH   1  18
TORSDOF 5
ENDMDL
MODEL 7
REMARK VINA RESULT:     -11.2      2.293     10.533
REMARK  Name = 1712
REMARK  5 active torsions:
REMARK  status: ('A' for Active; 'I' for Inactive)
REMARK    1  A    between atoms: C_1  and  N_18
REMARK    2  A    between atoms: C_2  and  S_7
REMARK    3  A    between atoms: S_7  and  N_10
REMARK    4  A    between atoms: N_18  and  C_20
REMARK    5  A    between atoms: C_20  and  C_26
REMARK                            x       y       z     vdW  Elec       q    Type
REMARK                         _______ _______ _______ _____ _____    ______ ____
ROOT
ATOM      1  C   UNL     1      32.798 -21.332 -18.682  0.00  0.00    +0.045 C 
ATOM      2  C   UNL     1      34.344 -19.547 -20.211  0.00  0.00    +0.125 C 
ATOM      3  C   UNL     1      34.202 -21.339 -18.597  0.00  0.00    +0.016 C 
ATOM      4  C   UNL     1      32.186 -20.411 -19.552  0.00  0.00    +0.016 C 
ATOM      5  C   UNL     1      34.969 -20.453 -19.355  0.00  0.00    +0.021 C 
ATOM      6  C   UNL     1      32.953 -19.526 -20.310  0.00  0.00    +0.021 C 
ENDROOT
BRANCH   2   7
ATOM      7  S   UNL     1      35.304 -18.440 -21.161  0.00  0.00    +0.075 S 
ATOM      8  O   UNL     1      35.310 -18.923 -22.537  0.00  0.00    -0.150 OA
ATOM      9  O   UNL     1      36.578 -18.229 -20.485  0.00  0.00    -0.150 OA
BRANCH   7  10
ATOM     10  N   UNL     1      34.376 -16.988 -21.108  0.00  0.00    -0.199 N 
ATOM     11  H   UNL     1      34.170 -16.551 -20.251  0.00  0.00    +0.175 HD
ATOM     12  N   UNL     1      32.987 -17.165 -23.006  0.00  0.00    -0.228 NA
ATOM     13  C   UNL     1      33.913 -16.436 -22.353  0.00  0.00    +0.147 C 
ATOM     14  C   UNL     1      34.424 -15.232 -22.794  0.00  0.00    +0.036 C 
ATOM     15  C   UNL     1      33.947 -14.735 -24.002  0.00  0.00    +0.005 C 
ATOM     16  C   UNL     1      32.548 -16.651 -24.177  0.00  0.00    +0.100 C 
ATOM     17  C   UNL     1      32.991 -15.453 -24.713  0.00  0.00    +0.021 C 
ENDBRANCH   7  10
ENDBRANCH   2   7
BRANCH   1  18
ATOM     18  N   UNL     1      32.035 -22.211 -17.928  0.00  0.00    -0.328 N 
ATOM     19  H   UNL     1      31.055 -22.144 -17.988  0.00  0.00    +0.147 HD
BRANCH  18  20
ATOM     20  C   UNL     1      32.595 -23.217 -17.059  0.00  0.00    +0.127 C 
BRANCH  20  26
ATOM     21  S   UNL     1      35.073 -24.270 -14.658  0.00  0.00    -0.104 S 
ATOM     22  O   UNL     1      29.856 -22.304 -16.501  0.00  0.00    -0.210 OA
ATOM     23  N   UNL     1      30.239 -22.611 -14.225  0.00  0.00    -0.333 NA
ATOM     24  N   UNL     1      34.953 -24.427 -12.071  0.00  0.00    -0.262 NA
ATOM     25  C   UNL     1      32.418 -23.354 -14.483  0.00  0.00    +0.033 C 
ATOM     26  C   UNL     1      31.980 -23.106 -15.715  0.00  0.00    +0.092 C 
ATOM     27  C   UNL     1      31.289 -23.027 -13.597  0.00  0.00    +0.142 C 
ATOM     28  C   UNL     1      33.614 -23.816 -13.911  0.00  0.00    +0.114 C 
ATOM     29  C   UNL     1      30.573 -22.625 -15.564  0.00  0.00    +0.202 C 
ATOM     30  C   UNL     1      33.749 -23.969 -12.540  0.00  0.00    +0.069 C 
ATOM     31  C   UNL     1      31.475 -23.204 -12.132  0.00  0.00    +0.034 C 
ATOM     32  C   UNL     1      32.658 -23.654 -11.668  0.00  0.00    +0.018 C 
ATOM     33  C   UNL     1      35.738 -24.623 -13.109  0.00  0.00    +0.183 C 
ENDBRANCH  20  26
ENDBRANCH  18  20
ENDBRANCH   1  18
TORSDOF 5
ENDMDL
MODEL 8
REMARK VINA RESULT:     -10.9      6.668     11.187
REMARK  Name = 1712
REMARK  5 active torsions:
REMARK  status: ('A' for Active; 'I' for Inactive)
REMARK    1  A    between atoms: C_1  and  N_18
REMARK    2  A    between atoms: C_2  and  S_7
REMARK    3  A    between atoms: S_7  and  N_10
REMARK    4  A    between atoms: N_18  and  C_20
REMARK    5  A    between atoms: C_20  and  C_26
REMARK                            x       y       z     vdW  Elec       q    Type
REMARK                         _______ _______ _______ _____ _____    ______ ____
ROOT
ATOM      1  C   UNL     1      33.672  -8.949 -23.829  0.00  0.00    +0.045 C 
ATOM      2  C   UNL     1      32.923 -11.627 -23.399  0.00  0.00    +0.125 C 
ATOM      3  C   UNL     1      32.770  -9.290 -22.805  0.00  0.00    +0.016 C 
ATOM      4  C   UNL     1      34.189  -9.981 -24.634  0.00  0.00    +0.016 C 
ATOM      5  C   UNL     1      32.399 -10.617 -22.591  0.00  0.00    +0.021 C 
ATOM      6  C   UNL     1      33.818 -11.308 -24.420  0.00  0.00    +0.021 C 
ENDROOT
BRANCH   2   7
ATOM      7  S   UNL     1      32.457 -13.288 -23.132  0.00  0.00    +0.075 S 
ATOM      8  O   UNL     1      31.889 -13.796 -24.376  0.00  0.00    -0.150 OA
ATOM      9  O   UNL     1      31.659 -13.359 -21.915  0.00  0.00    -0.150 OA
BRANCH   7  10
ATOM     10  N   UNL     1      33.970 -14.072 -22.876  0.00  0.00    -0.199 N 
ATOM     11  H   UNL     1      34.802 -13.552 -22.790  0.00  0.00    +0.175 HD
ATOM     12  N   UNL     1      33.681 -16.163 -23.929  0.00  0.00    -0.228 NA
ATOM     13  C   UNL     1      33.982 -15.508 -22.791  0.00  0.00    +0.147 C 
ATOM     14  C   UNL     1      34.290 -16.115 -21.589  0.00  0.00    +0.036 C 
ATOM     15  C   UNL     1      34.290 -17.505 -21.553  0.00  0.00    +0.005 C 
ATOM     16  C   UNL     1      33.690 -17.513 -23.856  0.00  0.00    +0.100 C 
ATOM     17  C   UNL     1      33.985 -18.224 -22.704  0.00  0.00    +0.021 C 
ENDBRANCH   7  10
ENDBRANCH   2   7
BRANCH   1  18
ATOM     18  N   UNL     1      34.042  -7.630 -24.041  0.00  0.00    -0.328 N 
ATOM     19  H   UNL     1      34.229  -7.342 -24.965  0.00  0.00    +0.147 HD
BRANCH  18  20
ATOM     20  C   UNL     1      34.172  -6.654 -22.988  0.00  0.00    +0.127 C 
BRANCH  20  26
ATOM     21  S   UNL     1      32.202  -6.871 -19.973  0.00  0.00    -0.104 S 
ATOM     22  O   UNL     1      33.732  -4.853 -25.270  0.00  0.00    -0.210 OA
ATOM     23  N   UNL     1      31.879  -3.958 -24.181  0.00  0.00    -0.333 NA
ATOM     24  N   UNL     1      30.099  -5.545 -19.235  0.00  0.00    -0.262 NA
ATOM     25  C   UNL     1      32.076  -5.301 -22.304  0.00  0.00    +0.033 C 
ATOM     26  C   UNL     1      33.081  -5.656 -23.102  0.00  0.00    +0.092 C 
ATOM     27  C   UNL     1      31.362  -4.239 -23.031  0.00  0.00    +0.142 C 
ATOM     28  C   UNL     1      31.604  -5.691 -21.042  0.00  0.00    +0.114 C 
ATOM     29  C   UNL     1      32.966  -4.796 -24.319  0.00  0.00    +0.202 C 
ATOM     30  C   UNL     1      30.488  -5.099 -20.472  0.00  0.00    +0.069 C 
ATOM     31  C   UNL     1      30.169  -3.629 -22.385  0.00  0.00    +0.034 C 
ATOM     32  C   UNL     1      29.785  -4.065 -21.169  0.00  0.00    +0.018 C 
ATOM     33  C   UNL     1      30.938  -6.490 -18.868  0.00  0.00    +0.183 C 
ENDBRANCH  20  26
ENDBRANCH  18  20
ENDBRANCH   1  18
TORSDOF 5
ENDMDL
MODEL 9
REMARK VINA RESULT:     -10.7      3.315     11.022
REMARK  Name = 1712
REMARK  5 active torsions:
REMARK  status: ('A' for Active; 'I' for Inactive)
REMARK    1  A    between atoms: C_1  and  N_18
REMARK    2  A    between atoms: C_2  and  S_7
REMARK    3  A    between atoms: S_7  and  N_10
REMARK    4  A    between atoms: N_18  and  C_20
REMARK    5  A    between atoms: C_20  and  C_26
REMARK                            x       y       z     vdW  Elec       q    Type
REMARK                         _______ _______ _______ _____ _____    ______ ____
ROOT
ATOM      1  C   UNL     1      33.455 -21.943 -17.458  0.00  0.00    +0.045 C 
ATOM      2  C   UNL     1      34.456 -20.274 -19.490  0.00  0.00    +0.125 C 
ATOM      3  C   UNL     1      32.588 -21.334 -18.384  0.00  0.00    +0.016 C 
ATOM      4  C   UNL     1      34.835 -21.695 -17.573  0.00  0.00    +0.016 C 
ATOM      5  C   UNL     1      33.084 -20.507 -19.392  0.00  0.00    +0.021 C 
ATOM      6  C   UNL     1      35.331 -20.868 -18.581  0.00  0.00    +0.021 C 
ENDROOT
BRANCH   2   7
ATOM      7  S   UNL     1      35.077 -19.238 -20.750  0.00  0.00    +0.075 S 
ATOM      8  O   UNL     1      34.967 -19.958 -22.014  0.00  0.00    -0.150 OA
ATOM      9  O   UNL     1      36.382 -18.735 -20.340  0.00  0.00    -0.150 OA
BRANCH   7  10
ATOM     10  N   UNL     1      33.942 -17.941 -20.773  0.00  0.00    -0.199 N 
ATOM     11  H   UNL     1      33.357 -17.767 -20.001  0.00  0.00    +0.175 HD
ATOM     12  N   UNL     1      33.408 -17.730 -23.061  0.00  0.00    -0.228 NA
ATOM     13  C   UNL     1      33.874 -17.122 -21.953  0.00  0.00    +0.147 C 
ATOM     14  C   UNL     1      34.278 -15.802 -21.888  0.00  0.00    +0.036 C 
ATOM     15  C   UNL     1      34.195 -15.047 -23.053  0.00  0.00    +0.005 C 
ATOM     16  C   UNL     1      33.342 -16.965 -24.174  0.00  0.00    +0.100 C 
ATOM     17  C   UNL     1      33.719 -15.633 -24.222  0.00  0.00    +0.021 C 
ENDBRANCH   7  10
ENDBRANCH   2   7
BRANCH   1  18
ATOM     18  N   UNL     1      32.962 -22.766 -16.457  0.00  0.00    -0.328 N 
ATOM     19  H   UNL     1      32.041 -22.615 -16.143  0.00  0.00    +0.147 HD
BRANCH  18  20
ATOM     20  C   UNL     1      33.721 -23.830 -15.847  0.00  0.00    +0.127 C 
BRANCH  20  26
ATOM     21  S   UNL     1      36.871 -24.572 -14.253  0.00  0.00    -0.104 S 
ATOM     22  O   UNL     1      31.142 -23.316 -14.532  0.00  0.00    -0.210 OA
ATOM     23  N   UNL     1      32.164 -23.607 -12.459  0.00  0.00    -0.333 NA
ATOM     24  N   UNL     1      37.478 -24.789 -11.740  0.00  0.00    -0.262 NA
ATOM     25  C   UNL     1      34.268 -24.036 -13.328  0.00  0.00    +0.033 C 
ATOM     26  C   UNL     1      33.484 -23.829 -14.384  0.00  0.00    +0.092 C 
ATOM     27  C   UNL     1      33.389 -23.884 -12.158  0.00  0.00    +0.142 C 
ATOM     28  C   UNL     1      35.623 -24.337 -13.121  0.00  0.00    +0.114 C 
ATOM     29  C   UNL     1      32.121 -23.551 -13.837  0.00  0.00    +0.202 C 
ATOM     30  C   UNL     1      36.143 -24.494 -11.846  0.00  0.00    +0.069 C 
ATOM     31  C   UNL     1      33.986 -24.060 -10.806  0.00  0.00    +0.034 C 
ATOM     32  C   UNL     1      35.298 -24.350 -10.700  0.00  0.00    +0.018 C 
ATOM     33  C   UNL     1      37.971 -24.856 -12.959  0.00  0.00    +0.183 C 
ENDBRANCH  20  26
ENDBRANCH  18  20
ENDBRANCH   1  18
TORSDOF 5
ENDMDL
