MODEL 1
REMARK VINA RESULT:     -11.1      0.000      0.000
REMARK  Name = 10401956
REMARK  3 active torsions:
REMARK  status: ('A' for Active; 'I' for Inactive)
REMARK    1  A    between atoms: N_1  and  C_13
REMARK    2  A    between atoms: C_8  and  N_20
REMARK    3  A    between atoms: C_21  and  C_23
REMARK                            x       y       z     vdW  Elec       q    Type
REMARK                         _______ _______ _______ _____ _____    ______ ____
ROOT
ATOM      1  N   UNL     1      32.495 -22.275 -17.185  0.00  0.00    -0.301 N 
ATOM      2  N   UNL     1      33.164 -24.293 -13.634  0.00  0.00    -0.248 NA
ATOM      3  N   UNL     1      33.951 -23.428 -15.741  0.00  0.00    -0.233 NA
ATOM      4  C   UNL     1      31.646 -23.124 -15.077  0.00  0.00    +0.117 C 
ATOM      5  C   UNL     1      31.933 -23.817 -13.890  0.00  0.00    +0.067 C 
ATOM      6  C   UNL     1      32.707 -22.963 -15.965  0.00  0.00    +0.115 C 
ATOM      7  C   UNL     1      30.355 -22.630 -15.333  0.00  0.00    +0.001 C 
ATOM      8  C   UNL     1      29.339 -22.825 -14.404  0.00  0.00    +0.047 C 
ATOM      9  C   UNL     1      30.896 -23.997 -12.976  0.00  0.00    +0.016 C 
ATOM     10  C   UNL     1      29.610 -23.508 -13.224  0.00  0.00    +0.016 C 
ATOM     11  C   UNL     1      34.106 -24.072 -14.574  0.00  0.00    +0.251 C 
ATOM     12  H   UNL     1      31.564 -22.249 -17.508  0.00  0.00    +0.153 HD
ENDROOT
BRANCH   1  13
ATOM     13  C   UNL     1      33.428 -21.634 -17.979  0.00  0.00    +0.049 C 
ATOM     14  C   UNL     1      34.801 -21.685 -17.669  0.00  0.00    +0.015 C 
ATOM     15  C   UNL     1      33.032 -20.909 -19.121  0.00  0.00    +0.015 C 
ATOM     16  C   UNL     1      35.742 -21.037 -18.470  0.00  0.00    +0.001 C 
ATOM     17  C   UNL     1      33.974 -20.261 -19.920  0.00  0.00    +0.001 C 
ATOM     18  C   UNL     1      35.328 -20.325 -19.595  0.00  0.00    +0.000 C 
ENDBRANCH   1  13
BRANCH   8  20
ATOM     19  O   UNL     1      27.229 -23.786 -16.312  0.00  0.00    -0.270 OA
ATOM     20  N   UNL     1      28.056 -22.336 -14.652  0.00  0.00    -0.281 N 
ATOM     21  C   UNL     1      27.106 -22.827 -15.560  0.00  0.00    +0.250 C 
ATOM     22  H   UNL     1      27.784 -21.550 -14.126  0.00  0.00    +0.155 HD
BRANCH  21  23
ATOM     23  C   UNL     1      25.850 -22.023 -15.529  0.00  0.00    +0.058 C 
ATOM     24  C   UNL     1      25.569 -21.162 -16.512  0.00  0.00    +0.005 C 
ENDBRANCH  21  23
ENDBRANCH   8  20
TORSDOF 3
ENDMDL
MODEL 2
REMARK VINA RESULT:     -10.8      1.060      1.574
REMARK  Name = 10401956
REMARK  3 active torsions:
REMARK  status: ('A' for Active; 'I' for Inactive)
REMARK    1  A    between atoms: N_1  and  C_13
REMARK    2  A    between atoms: C_8  and  N_20
REMARK    3  A    between atoms: C_21  and  C_23
REMARK                            x       y       z     vdW  Elec       q    Type
REMARK                         _______ _______ _______ _____ _____    ______ ____
ROOT
ATOM      1  N   UNL     1      32.870 -22.190 -17.402  0.00  0.00    -0.301 N 
ATOM      2  N   UNL     1      34.471 -23.435 -13.794  0.00  0.00    -0.248 NA
ATOM      3  N   UNL     1      34.743 -22.627 -16.048  0.00  0.00    -0.233 NA
ATOM      4  C   UNL     1      32.534 -23.003 -15.141  0.00  0.00    +0.117 C 
ATOM      5  C   UNL     1      33.135 -23.417 -13.941  0.00  0.00    +0.067 C 
ATOM      6  C   UNL     1      33.401 -22.619 -16.160  0.00  0.00    +0.115 C 
ATOM      7  C   UNL     1      31.136 -22.987 -15.283  0.00  0.00    +0.001 C 
ATOM      8  C   UNL     1      30.325 -23.384 -14.225  0.00  0.00    +0.047 C 
ATOM      9  C   UNL     1      32.299 -23.808 -12.898  0.00  0.00    +0.016 C 
ATOM     10  C   UNL     1      30.907 -23.795 -13.031  0.00  0.00    +0.016 C 
ATOM     11  C   UNL     1      35.202 -23.039 -14.856  0.00  0.00    +0.251 C 
ATOM     12  H   UNL     1      31.960 -22.506 -17.612  0.00  0.00    +0.153 HD
ENDROOT
BRANCH   1  13
ATOM     13  C   UNL     1      33.465 -21.384 -18.355  0.00  0.00    +0.049 C 
ATOM     14  C   UNL     1      32.688 -20.601 -19.230  0.00  0.00    +0.015 C 
ATOM     15  C   UNL     1      34.867 -21.324 -18.479  0.00  0.00    +0.015 C 
ATOM     16  C   UNL     1      33.288 -19.789 -20.192  0.00  0.00    +0.001 C 
ATOM     17  C   UNL     1      35.467 -20.512 -19.442  0.00  0.00    +0.001 C 
ATOM     18  C   UNL     1      34.678 -19.745 -20.298  0.00  0.00    +0.000 C 
ENDBRANCH   1  13
BRANCH   8  20
ATOM     19  O   UNL     1      28.579 -21.967 -16.215  0.00  0.00    -0.270 OA
ATOM     20  N   UNL     1      28.937 -23.370 -14.359  0.00  0.00    -0.281 N 
ATOM     21  C   UNL     1      28.168 -22.687 -15.313  0.00  0.00    +0.250 C 
ATOM     22  H   UNL     1      28.434 -23.906 -13.704  0.00  0.00    +0.155 HD
BRANCH  21  23
ATOM     23  C   UNL     1      26.709 -22.929 -15.119  0.00  0.00    +0.058 C 
ATOM     24  C   UNL     1      25.849 -21.905 -15.088  0.00  0.00    +0.005 C 
ENDBRANCH  21  23
ENDBRANCH   8  20
TORSDOF 3
ENDMDL
MODEL 3
REMARK VINA RESULT:     -10.6      3.029      7.334
REMARK  Name = 10401956
REMARK  3 active torsions:
REMARK  status: ('A' for Active; 'I' for Inactive)
REMARK    1  A    between atoms: N_1  and  C_13
REMARK    2  A    between atoms: C_8  and  N_20
REMARK    3  A    between atoms: C_21  and  C_23
REMARK                            x       y       z     vdW  Elec       q    Type
REMARK                         _______ _______ _______ _____ _____    ______ ____
ROOT
ATOM      1  N   UNL     1      31.621 -23.490 -15.411  0.00  0.00    -0.301 N 
ATOM      2  N   UNL     1      33.878 -21.442 -18.211  0.00  0.00    -0.248 NA
ATOM      3  N   UNL     1      31.782 -22.377 -17.477  0.00  0.00    -0.233 NA
ATOM      4  C   UNL     1      33.758 -22.570 -16.097  0.00  0.00    +0.117 C 
ATOM      5  C   UNL     1      34.473 -21.871 -17.083  0.00  0.00    +0.067 C 
ATOM      6  C   UNL     1      32.408 -22.791 -16.359  0.00  0.00    +0.115 C 
ATOM      7  C   UNL     1      34.389 -23.013 -14.922  0.00  0.00    +0.001 C 
ATOM      8  C   UNL     1      35.743 -22.760 -14.722  0.00  0.00    +0.047 C 
ATOM      9  C   UNL     1      35.826 -21.631 -16.857  0.00  0.00    +0.016 C 
ATOM     10  C   UNL     1      36.462 -22.067 -15.690  0.00  0.00    +0.016 C 
ATOM     11  C   UNL     1      32.565 -21.719 -18.346  0.00  0.00    +0.251 C 
ATOM     12  H   UNL     1      32.113 -24.081 -14.795  0.00  0.00    +0.153 HD
ENDROOT
BRANCH   1  13
ATOM     13  C   UNL     1      30.249 -23.449 -15.241  0.00  0.00    +0.049 C 
ATOM     14  C   UNL     1      29.570 -24.483 -14.567  0.00  0.00    +0.015 C 
ATOM     15  C   UNL     1      29.490 -22.370 -15.737  0.00  0.00    +0.015 C 
ATOM     16  C   UNL     1      28.187 -24.441 -14.396  0.00  0.00    +0.001 C 
ATOM     17  C   UNL     1      28.106 -22.330 -15.566  0.00  0.00    +0.001 C 
ATOM     18  C   UNL     1      27.455 -23.365 -14.895  0.00  0.00    +0.000 C 
ENDBRANCH   1  13
BRANCH   8  20
ATOM     19  O   UNL     1      36.982 -25.414 -14.061  0.00  0.00    -0.270 OA
ATOM     20  N   UNL     1      36.374 -23.196 -13.558  0.00  0.00    -0.281 N 
ATOM     21  C   UNL     1      36.939 -24.454 -13.301  0.00  0.00    +0.250 C 
ATOM     22  H   UNL     1      36.431 -22.540 -12.826  0.00  0.00    +0.155 HD
BRANCH  21  23
ATOM     23  C   UNL     1      37.521 -24.526 -11.929  0.00  0.00    +0.058 C 
ATOM     24  C   UNL     1      37.173 -23.633 -10.996  0.00  0.00    +0.005 C 
ENDBRANCH  21  23
ENDBRANCH   8  20
TORSDOF 3
ENDMDL
MODEL 4
REMARK VINA RESULT:     -10.4      2.593      3.612
REMARK  Name = 10401956
REMARK  3 active torsions:
REMARK  status: ('A' for Active; 'I' for Inactive)
REMARK    1  A    between atoms: N_1  and  C_13
REMARK    2  A    between atoms: C_8  and  N_20
REMARK    3  A    between atoms: C_21  and  C_23
REMARK                            x       y       z     vdW  Elec       q    Type
REMARK                         _______ _______ _______ _____ _____    ______ ____
ROOT
ATOM      1  N   UNL     1      33.790 -22.045 -17.536  0.00  0.00    -0.301 N 
ATOM      2  N   UNL     1      36.584 -22.205 -14.487  0.00  0.00    -0.248 NA
ATOM      3  N   UNL     1      35.945 -21.569 -16.722  0.00  0.00    -0.233 NA
ATOM      4  C   UNL     1      34.376 -22.710 -15.279  0.00  0.00    +0.117 C 
ATOM      5  C   UNL     1      35.365 -22.735 -14.282  0.00  0.00    +0.067 C 
ATOM      6  C   UNL     1      34.734 -22.108 -16.482  0.00  0.00    +0.115 C 
ATOM      7  C   UNL     1      33.105 -23.266 -15.052  0.00  0.00    +0.001 C 
ATOM      8  C   UNL     1      32.811 -23.853 -13.826  0.00  0.00    +0.047 C 
ATOM      9  C   UNL     1      35.043 -23.329 -13.063  0.00  0.00    +0.016 C 
ATOM     10  C   UNL     1      33.781 -23.884 -12.830  0.00  0.00    +0.016 C 
ATOM     11  C   UNL     1      36.807 -21.652 -15.696  0.00  0.00    +0.251 C 
ATOM     12  H   UNL     1      33.068 -22.714 -17.508  0.00  0.00    +0.153 HD
ENDROOT
BRANCH   1  13
ATOM     13  C   UNL     1      33.753 -21.161 -18.600  0.00  0.00    +0.049 C 
ATOM     14  C   UNL     1      32.526 -20.727 -19.139  0.00  0.00    +0.015 C 
ATOM     15  C   UNL     1      34.941 -20.669 -19.175  0.00  0.00    +0.015 C 
ATOM     16  C   UNL     1      32.489 -19.837 -20.212  0.00  0.00    +0.001 C 
ATOM     17  C   UNL     1      34.903 -19.779 -20.248  0.00  0.00    +0.001 C 
ATOM     18  C   UNL     1      33.676 -19.362 -20.766  0.00  0.00    +0.000 C 
ENDBRANCH   1  13
BRANCH   8  20
ATOM     19  O   UNL     1      30.579 -22.928 -12.043  0.00  0.00    -0.270 OA
ATOM     20  N   UNL     1      31.552 -24.406 -13.595  0.00  0.00    -0.281 N 
ATOM     21  C   UNL     1      30.541 -23.930 -12.747  0.00  0.00    +0.250 C 
ATOM     22  H   UNL     1      31.347 -25.233 -14.089  0.00  0.00    +0.155 HD
BRANCH  21  23
ATOM     23  C   UNL     1      29.337 -24.810 -12.779  0.00  0.00    +0.058 C 
ATOM     24  C   UNL     1      28.770 -25.143 -13.943  0.00  0.00    +0.005 C 
ENDBRANCH  21  23
ENDBRANCH   8  20
TORSDOF 3
ENDMDL
MODEL 5
REMARK VINA RESULT:     -10.1      1.820      2.967
REMARK  Name = 10401956
REMARK  3 active torsions:
REMARK  status: ('A' for Active; 'I' for Inactive)
REMARK    1  A    between atoms: N_1  and  C_13
REMARK    2  A    between atoms: C_8  and  N_20
REMARK    3  A    between atoms: C_21  and  C_23
REMARK                            x       y       z     vdW  Elec       q    Type
REMARK                         _______ _______ _______ _____ _____    ______ ____
ROOT
ATOM      1  N   UNL     1      33.704 -21.007 -19.042  0.00  0.00    -0.301 N 
ATOM      2  N   UNL     1      35.405 -22.494 -15.574  0.00  0.00    -0.248 NA
ATOM      3  N   UNL     1      35.608 -21.429 -17.726  0.00  0.00    -0.233 NA
ATOM      4  C   UNL     1      33.438 -22.083 -16.885  0.00  0.00    +0.117 C 
ATOM      5  C   UNL     1      34.071 -22.571 -15.730  0.00  0.00    +0.067 C 
ATOM      6  C   UNL     1      34.270 -21.521 -17.849  0.00  0.00    +0.115 C 
ATOM      7  C   UNL     1      32.043 -22.168 -17.037  0.00  0.00    +0.001 C 
ATOM      8  C   UNL     1      31.268 -22.742 -16.034  0.00  0.00    +0.047 C 
ATOM      9  C   UNL     1      33.271 -23.140 -14.742  0.00  0.00    +0.016 C 
ATOM     10  C   UNL     1      31.883 -23.229 -14.885  0.00  0.00    +0.016 C 
ATOM     11  C   UNL     1      36.100 -21.927 -16.581  0.00  0.00    +0.251 C 
ATOM     12  H   UNL     1      32.825 -21.373 -19.294  0.00  0.00    +0.153 HD
ENDROOT
BRANCH   1  13
ATOM     13  C   UNL     1      34.230 -20.057 -19.899  0.00  0.00    +0.049 C 
ATOM     14  C   UNL     1      33.453 -19.506 -20.936  0.00  0.00    +0.015 C 
ATOM     15  C   UNL     1      35.560 -19.613 -19.759  0.00  0.00    +0.015 C 
ATOM     16  C   UNL     1      33.984 -18.549 -21.800  0.00  0.00    +0.001 C 
ATOM     17  C   UNL     1      36.091 -18.656 -20.624  0.00  0.00    +0.001 C 
ATOM     18  C   UNL     1      35.302 -18.124 -21.645  0.00  0.00    +0.000 C 
ENDBRANCH   1  13
BRANCH   8  20
ATOM     19  O   UNL     1      29.074 -22.337 -14.024  0.00  0.00    -0.270 OA
ATOM     20  N   UNL     1      29.884 -22.829 -16.179  0.00  0.00    -0.281 N 
ATOM     21  C   UNL     1      28.899 -22.629 -15.201  0.00  0.00    +0.250 C 
ATOM     22  H   UNL     1      29.558 -23.060 -17.079  0.00  0.00    +0.155 HD
BRANCH  21  23
ATOM     23  C   UNL     1      27.527 -22.816 -15.756  0.00  0.00    +0.058 C 
ATOM     24  C   UNL     1      26.473 -22.236 -15.173  0.00  0.00    +0.005 C 
ENDBRANCH  21  23
ENDBRANCH   8  20
TORSDOF 3
ENDMDL
MODEL 6
REMARK VINA RESULT:      -9.9      2.494      6.718
REMARK  Name = 10401956
REMARK  3 active torsions:
REMARK  status: ('A' for Active; 'I' for Inactive)
REMARK    1  A    between atoms: N_1  and  C_13
REMARK    2  A    between atoms: C_8  and  N_20
REMARK    3  A    between atoms: C_21  and  C_23
REMARK                            x       y       z     vdW  Elec       q    Type
REMARK                         _______ _______ _______ _____ _____    ______ ____
ROOT
ATOM      1  N   UNL     1      31.887 -22.861 -14.515  0.00  0.00    -0.301 N 
ATOM      2  N   UNL     1      35.418 -23.990 -12.674  0.00  0.00    -0.248 NA
ATOM      3  N   UNL     1      33.010 -23.946 -12.755  0.00  0.00    -0.233 NA
ATOM      4  C   UNL     1      34.312 -22.873 -14.486  0.00  0.00    +0.117 C 
ATOM      5  C   UNL     1      35.477 -23.283 -13.817  0.00  0.00    +0.067 C 
ATOM      6  C   UNL     1      33.105 -23.239 -13.898  0.00  0.00    +0.115 C 
ATOM      7  C   UNL     1      34.386 -22.135 -15.680  0.00  0.00    +0.001 C 
ATOM      8  C   UNL     1      35.626 -21.800 -16.216  0.00  0.00    +0.047 C 
ATOM      9  C   UNL     1      36.704 -22.935 -14.376  0.00  0.00    +0.016 C 
ATOM     10  C   UNL     1      36.786 -22.201 -15.563  0.00  0.00    +0.016 C 
ATOM     11  C   UNL     1      34.187 -24.283 -12.206  0.00  0.00    +0.251 C 
ATOM     12  H   UNL     1      31.933 -22.082 -15.116  0.00  0.00    +0.153 HD
ENDROOT
BRANCH   1  13
ATOM     13  C   UNL     1      30.642 -23.447 -14.381  0.00  0.00    +0.049 C 
ATOM     14  C   UNL     1      29.545 -23.003 -15.145  0.00  0.00    +0.015 C 
ATOM     15  C   UNL     1      30.434 -24.506 -13.474  0.00  0.00    +0.015 C 
ATOM     16  C   UNL     1      28.289 -23.594 -15.008  0.00  0.00    +0.001 C 
ATOM     17  C   UNL     1      29.176 -25.096 -13.339  0.00  0.00    +0.001 C 
ATOM     18  C   UNL     1      28.104 -24.640 -14.106  0.00  0.00    +0.000 C 
ENDBRANCH   1  13
BRANCH   8  20
ATOM     19  O   UNL     1      34.248 -22.213 -18.852  0.00  0.00    -0.270 OA
ATOM     20  N   UNL     1      35.705 -21.068 -17.400  0.00  0.00    -0.281 N 
ATOM     21  C   UNL     1      35.035 -21.307 -18.609  0.00  0.00    +0.250 C 
ATOM     22  H   UNL     1      36.305 -20.288 -17.386  0.00  0.00    +0.155 HD
BRANCH  21  23
ATOM     23  C   UNL     1      35.391 -20.292 -19.644  0.00  0.00    +0.058 C 
ATOM     24  C   UNL     1      34.437 -19.592 -20.265  0.00  0.00    +0.005 C 
ENDBRANCH  21  23
ENDBRANCH   8  20
TORSDOF 3
ENDMDL
MODEL 7
REMARK VINA RESULT:      -9.7      7.310     10.551
REMARK  Name = 10401956
REMARK  3 active torsions:
REMARK  status: ('A' for Active; 'I' for Inactive)
REMARK    1  A    between atoms: N_1  and  C_13
REMARK    2  A    between atoms: C_8  and  N_20
REMARK    3  A    between atoms: C_21  and  C_23
REMARK                            x       y       z     vdW  Elec       q    Type
REMARK                         _______ _______ _______ _____ _____    ______ ____
ROOT
ATOM      1  N   UNL     1      34.392 -16.830 -20.833  0.00  0.00    -0.301 N 
ATOM      2  N   UNL     1      33.395 -15.547 -24.639  0.00  0.00    -0.248 NA
ATOM      3  N   UNL     1      34.340 -17.194 -23.156  0.00  0.00    -0.233 NA
ATOM      4  C   UNL     1      33.428 -15.136 -22.276  0.00  0.00    +0.117 C 
ATOM      5  C   UNL     1      33.113 -14.754 -23.590  0.00  0.00    +0.067 C 
ATOM      6  C   UNL     1      34.044 -16.376 -22.129  0.00  0.00    +0.115 C 
ATOM      7  C   UNL     1      33.128 -14.299 -21.187  0.00  0.00    +0.001 C 
ATOM      8  C   UNL     1      32.511 -13.071 -21.403  0.00  0.00    +0.047 C 
ATOM      9  C   UNL     1      32.495 -13.519 -23.777  0.00  0.00    +0.016 C 
ATOM     10  C   UNL     1      32.194 -12.681 -22.699  0.00  0.00    +0.016 C 
ATOM     11  C   UNL     1      33.993 -16.724 -24.364  0.00  0.00    +0.251 C 
ATOM     12  H   UNL     1      34.506 -16.132 -20.148  0.00  0.00    +0.153 HD
ENDROOT
BRANCH   1  13
ATOM     13  C   UNL     1      34.590 -18.131 -20.407  0.00  0.00    +0.049 C 
ATOM     14  C   UNL     1      33.510 -19.028 -20.285  0.00  0.00    +0.015 C 
ATOM     15  C   UNL     1      35.879 -18.598 -20.080  0.00  0.00    +0.015 C 
ATOM     16  C   UNL     1      33.710 -20.339 -19.855  0.00  0.00    +0.001 C 
ATOM     17  C   UNL     1      36.078 -19.910 -19.649  0.00  0.00    +0.001 C 
ATOM     18  C   UNL     1      34.994 -20.780 -19.537  0.00  0.00    +0.000 C 
ENDBRANCH   1  13
BRANCH   8  20
ATOM     19  O   UNL     1      29.982 -11.599 -20.730  0.00  0.00    -0.270 OA
ATOM     20  N   UNL     1      32.211 -12.237 -20.326  0.00  0.00    -0.281 N 
ATOM     21  C   UNL     1      31.006 -11.571 -20.059  0.00  0.00    +0.250 C 
ATOM     22  H   UNL     1      32.934 -12.098 -19.673  0.00  0.00    +0.155 HD
BRANCH  21  23
ATOM     23  C   UNL     1      31.087 -10.770 -18.803  0.00  0.00    +0.058 C 
ATOM     24  C   UNL     1      30.306  -9.699 -18.628  0.00  0.00    +0.005 C 
ENDBRANCH  21  23
ENDBRANCH   8  20
TORSDOF 3
ENDMDL
MODEL 8
REMARK VINA RESULT:      -9.5      2.590      5.726
REMARK  Name = 10401956
REMARK  3 active torsions:
REMARK  status: ('A' for Active; 'I' for Inactive)
REMARK    1  A    between atoms: N_1  and  C_13
REMARK    2  A    between atoms: C_8  and  N_20
REMARK    3  A    between atoms: C_21  and  C_23
REMARK                            x       y       z     vdW  Elec       q    Type
REMARK                         _______ _______ _______ _____ _____    ______ ____
ROOT
ATOM      1  N   UNL     1      33.810 -24.063 -13.719  0.00  0.00    -0.301 N 
ATOM      2  N   UNL     1      29.730 -24.223 -13.038  0.00  0.00    -0.248 NA
ATOM      3  N   UNL     1      31.993 -24.733 -12.384  0.00  0.00    -0.233 NA
ATOM      4  C   UNL     1      31.555 -23.521 -14.429  0.00  0.00    +0.117 C 
ATOM      5  C   UNL     1      30.182 -23.607 -14.145  0.00  0.00    +0.067 C 
ATOM      6  C   UNL     1      32.410 -24.108 -13.501  0.00  0.00    +0.115 C 
ATOM      7  C   UNL     1      32.015 -22.874 -15.588  0.00  0.00    +0.001 C 
ATOM      8  C   UNL     1      31.106 -22.307 -16.476  0.00  0.00    +0.047 C 
ATOM      9  C   UNL     1      29.294 -23.030 -15.051  0.00  0.00    +0.016 C 
ATOM     10  C   UNL     1      29.744 -22.384 -16.207  0.00  0.00    +0.016 C 
ATOM     11  C   UNL     1      30.661 -24.753 -12.218  0.00  0.00    +0.251 C 
ATOM     12  H   UNL     1      34.096 -23.938 -14.653  0.00  0.00    +0.153 HD
ENDROOT
BRANCH   1  13
ATOM     13  C   UNL     1      34.825 -24.170 -12.786  0.00  0.00    +0.049 C 
ATOM     14  C   UNL     1      35.679 -25.290 -12.769  0.00  0.00    +0.015 C 
ATOM     15  C   UNL     1      35.033 -23.162 -11.823  0.00  0.00    +0.015 C 
ATOM     16  C   UNL     1      36.702 -25.398 -11.827  0.00  0.00    +0.001 C 
ATOM     17  C   UNL     1      36.056 -23.272 -10.881  0.00  0.00    +0.001 C 
ATOM     18  C   UNL     1      36.891 -24.390 -10.883  0.00  0.00    +0.000 C 
ENDBRANCH   1  13
BRANCH   8  20
ATOM     19  O   UNL     1      33.792 -22.376 -17.816  0.00  0.00    -0.270 OA
ATOM     20  N   UNL     1      31.557 -21.663 -17.628  0.00  0.00    -0.281 N 
ATOM     21  C   UNL     1      32.830 -21.731 -18.214  0.00  0.00    +0.250 C 
ATOM     22  H   UNL     1      30.901 -21.090 -18.087  0.00  0.00    +0.155 HD
BRANCH  21  23
ATOM     23  C   UNL     1      32.914 -20.892 -19.445  0.00  0.00    +0.058 C 
ATOM     24  C   UNL     1      31.884 -20.124 -19.815  0.00  0.00    +0.005 C 
ENDBRANCH  21  23
ENDBRANCH   8  20
TORSDOF 3
ENDMDL
MODEL 9
REMARK VINA RESULT:      -9.5      2.499      5.362
REMARK  Name = 10401956
REMARK  3 active torsions:
REMARK  status: ('A' for Active; 'I' for Inactive)
REMARK    1  A    between atoms: N_1  and  C_13
REMARK    2  A    between atoms: C_8  and  N_20
REMARK    3  A    between atoms: C_21  and  C_23
REMARK                            x       y       z     vdW  Elec       q    Type
REMARK                         _______ _______ _______ _____ _____    ______ ____
ROOT
ATOM      1  N   UNL     1      34.687 -23.180 -13.846  0.00  0.00    -0.301 N 
ATOM      2  N   UNL     1      35.693 -21.453 -17.470  0.00  0.00    -0.248 NA
ATOM      3  N   UNL     1      36.310 -22.281 -15.293  0.00  0.00    -0.233 NA
ATOM      4  C   UNL     1      34.007 -22.361 -16.025  0.00  0.00    +0.117 C 
ATOM      5  C   UNL     1      34.408 -21.772 -17.236  0.00  0.00    +0.067 C 
ATOM      6  C   UNL     1      35.014 -22.589 -15.092  0.00  0.00    +0.115 C 
ATOM      7  C   UNL     1      32.661 -22.692 -15.792  0.00  0.00    +0.001 C 
ATOM      8  C   UNL     1      31.703 -22.436 -16.768  0.00  0.00    +0.047 C 
ATOM      9  C   UNL     1      33.428 -21.529 -18.195  0.00  0.00    +0.016 C 
ATOM     10  C   UNL     1      32.087 -21.855 -17.971  0.00  0.00    +0.016 C 
ATOM     11  C   UNL     1      36.574 -21.725 -16.485  0.00  0.00    +0.251 C 
ATOM     12  H   UNL     1      33.751 -23.083 -13.557  0.00  0.00    +0.153 HD
ENDROOT
BRANCH   1  13
ATOM     13  C   UNL     1      35.516 -23.876 -12.985  0.00  0.00    +0.049 C 
ATOM     14  C   UNL     1      35.778 -25.247 -13.181  0.00  0.00    +0.015 C 
ATOM     15  C   UNL     1      36.122 -23.235 -11.886  0.00  0.00    +0.015 C 
ATOM     16  C   UNL     1      36.613 -25.949 -12.312  0.00  0.00    +0.001 C 
ATOM     17  C   UNL     1      36.956 -23.939 -11.017  0.00  0.00    +0.001 C 
ATOM     18  C   UNL     1      37.202 -25.296 -11.231  0.00  0.00    +0.000 C 
ENDBRANCH   1  13
BRANCH   8  20
ATOM     19  O   UNL     1      30.095 -22.400 -14.232  0.00  0.00    -0.270 OA
ATOM     20  N   UNL     1      30.366 -22.763 -16.542  0.00  0.00    -0.281 N 
ATOM     21  C   UNL     1      29.661 -22.727 -15.330  0.00  0.00    +0.250 C 
ATOM     22  H   UNL     1      29.854 -23.054 -17.331  0.00  0.00    +0.155 HD
BRANCH  21  23
ATOM     23  C   UNL     1      28.242 -23.153 -15.507  0.00  0.00    +0.058 C 
ATOM     24  C   UNL     1      27.241 -22.369 -15.094  0.00  0.00    +0.005 C 
ENDBRANCH  21  23
ENDBRANCH   8  20
TORSDOF 3
ENDMDL
