MODEL 1
REMARK VINA RESULT:     -11.9      0.000      0.000
REMARK  Name = 24978486
REMARK  5 active torsions:
REMARK  status: ('A' for Active; 'I' for Inactive)
REMARK    1  A    between atoms: O_1  and  C_6
REMARK    2  A    between atoms: O_1  and  C_18
REMARK    3  A    between atoms: C_18  and  C_20
REMARK    4  A    between atoms: N_19  and  C_26
REMARK    5  A    between atoms: C_26  and  C_29
REMARK                            x       y       z     vdW  Elec       q    Type
REMARK                         _______ _______ _______ _____ _____    ______ ____
ROOT
ATOM      1  O   UNL     1      33.913 -22.385 -16.649  0.00  0.00    -0.479 OA
ENDROOT
BRANCH   1   6
ATOM      2  N   UNL     1      35.061 -23.752 -12.144  0.00  0.00    -0.332 NA
ATOM      3  N   UNL     1      36.836 -23.050 -13.614  0.00  0.00    -0.317 NA
ATOM      4  N   UNL     1      36.406 -22.370 -15.802  0.00  0.00    -0.335 N 
ATOM      5  N   UNL     1      37.291 -23.728 -11.418  0.00  0.00    -0.283 N 
ATOM      6  C   UNL     1      33.594 -22.841 -15.394  0.00  0.00    +0.130 C 
ATOM      7  C   UNL     1      34.545 -23.066 -14.383  0.00  0.00    +0.177 C 
ATOM      8  C   UNL     1      32.247 -23.083 -15.146  0.00  0.00    +0.033 C 
ATOM      9  C   UNL     1      34.159 -23.534 -13.117  0.00  0.00    +0.137 C 
ATOM     10  C   UNL     1      35.907 -22.842 -14.565  0.00  0.00    +0.181 C 
ATOM     11  C   UNL     1      31.851 -23.548 -13.897  0.00  0.00    +0.005 C 
ATOM     12  C   UNL     1      32.804 -23.769 -12.897  0.00  0.00    +0.030 C 
ATOM     13  C   UNL     1      36.350 -23.498 -12.445  0.00  0.00    +0.197 C 
ATOM     14  H   UNL     1      37.370 -22.216 -15.918  0.00  0.00    +0.144 HD
ATOM     15  H   UNL     1      35.786 -22.195 -16.547  0.00  0.00    +0.144 HD
ATOM     16  H   UNL     1      36.991 -24.057 -10.540  0.00  0.00    +0.156 HD
ATOM     17  H   UNL     1      38.248 -23.559 -11.579  0.00  0.00    +0.156 HD
ENDBRANCH   1   6
BRANCH   1  18
ATOM     18  C   UNL     1      32.842 -22.197 -17.556  0.00  0.00    +0.205 C 
BRANCH  18  20
ATOM     19  N   UNL     1      34.316 -19.133 -20.218  0.00  0.00    +0.390 N 
ATOM     20  C   UNL     1      33.385 -21.534 -18.818  0.00  0.00    +0.040 C 
ATOM     21  C   UNL     1      34.766 -20.920 -18.568  0.00  0.00    -0.019 C 
ATOM     22  C   UNL     1      32.425 -20.456 -19.331  0.00  0.00    -0.019 C 
ATOM     23  C   UNL     1      35.272 -20.167 -19.800  0.00  0.00    -0.077 C 
ATOM     24  C   UNL     1      33.008 -19.719 -20.538  0.00  0.00    -0.077 C 
ATOM     25  H   UNL     1      34.191 -18.486 -19.439  0.00  0.00    -0.079 HD
BRANCH  19  26
ATOM     26  C   UNL     1      34.837 -18.388 -21.365  0.00  0.00    -0.049 C 
BRANCH  26  29
ATOM     27 CL   UNL     1      34.043 -17.289 -24.093  0.00  0.00    -0.082 Cl
ATOM     28 CL   UNL     1      32.895 -14.288 -24.066  0.00  0.00    -0.081 Cl
ATOM     29  C   UNL     1      34.293 -16.986 -21.418  0.00  0.00    -0.032 C 
ATOM     30  C   UNL     1      33.900 -16.390 -22.617  0.00  0.00    +0.062 C 
ATOM     31  C   UNL     1      34.186 -16.279 -20.220  0.00  0.00    -0.005 C 
ATOM     32  C   UNL     1      33.401 -15.087 -22.617  0.00  0.00    +0.068 C 
ATOM     33  C   UNL     1      33.686 -14.977 -20.221  0.00  0.00    +0.001 C 
ATOM     34  C   UNL     1      33.293 -14.381 -21.419  0.00  0.00    +0.012 C 
ENDBRANCH  26  29
ENDBRANCH  19  26
ENDBRANCH  18  20
ENDBRANCH   1  18
TORSDOF 5
ENDMDL
MODEL 2
REMARK VINA RESULT:     -11.8      2.190      3.150
REMARK  Name = 24978486
REMARK  5 active torsions:
REMARK  status: ('A' for Active; 'I' for Inactive)
REMARK    1  A    between atoms: O_1  and  C_6
REMARK    2  A    between atoms: O_1  and  C_18
REMARK    3  A    between atoms: C_18  and  C_20
REMARK    4  A    between atoms: N_19  and  C_26
REMARK    5  A    between atoms: C_26  and  C_29
REMARK                            x       y       z     vdW  Elec       q    Type
REMARK                         _______ _______ _______ _____ _____    ______ ____
ROOT
ATOM      1  O   UNL     1      34.232 -21.944 -17.572  0.00  0.00    -0.479 OA
ENDROOT
BRANCH   1   6
ATOM      2  N   UNL     1      31.640 -23.431 -13.758  0.00  0.00    -0.332 NA
ATOM      3  N   UNL     1      30.467 -22.842 -15.780  0.00  0.00    -0.317 NA
ATOM      4  N   UNL     1      31.607 -22.114 -17.678  0.00  0.00    -0.335 N 
ATOM      5  N   UNL     1      29.302 -23.572 -13.883  0.00  0.00    -0.283 N 
ATOM      6  C   UNL     1      34.110 -22.391 -16.280  0.00  0.00    +0.130 C 
ATOM      7  C   UNL     1      32.877 -22.689 -15.675  0.00  0.00    +0.177 C 
ATOM      8  C   UNL     1      35.291 -22.541 -15.562  0.00  0.00    +0.033 C 
ATOM      9  C   UNL     1      32.814 -23.142 -14.347  0.00  0.00    +0.137 C 
ATOM     10  C   UNL     1      31.659 -22.562 -16.338  0.00  0.00    +0.181 C 
ATOM     11  C   UNL     1      35.243 -22.987 -14.246  0.00  0.00    +0.005 C 
ATOM     12  C   UNL     1      34.012 -23.283 -13.651  0.00  0.00    +0.030 C 
ATOM     13  C   UNL     1      30.530 -23.266 -14.506  0.00  0.00    +0.197 C 
ATOM     14  H   UNL     1      30.740 -22.028 -18.136  0.00  0.00    +0.144 HD
ATOM     15  H   UNL     1      32.440 -21.890 -18.154  0.00  0.00    +0.144 HD
ATOM     16  H   UNL     1      29.289 -23.887 -12.950  0.00  0.00    +0.156 HD
ATOM     17  H   UNL     1      28.457 -23.472 -14.380  0.00  0.00    +0.156 HD
ENDBRANCH   1   6
BRANCH   1  18
ATOM     18  C   UNL     1      35.464 -21.345 -17.932  0.00  0.00    +0.205 C 
BRANCH  18  20
ATOM     19  N   UNL     1      34.578 -18.279 -20.843  0.00  0.00    +0.390 N 
ATOM     20  C   UNL     1      35.293 -20.656 -19.283  0.00  0.00    +0.040 C 
ATOM     21  C   UNL     1      36.221 -19.443 -19.404  0.00  0.00    -0.019 C 
ATOM     22  C   UNL     1      33.840 -20.221 -19.500  0.00  0.00    -0.019 C 
ATOM     23  C   UNL     1      35.983 -18.689 -20.715  0.00  0.00    -0.077 C 
ATOM     24  C   UNL     1      33.681 -19.442 -20.807  0.00  0.00    -0.077 C 
ATOM     25  H   UNL     1      34.350 -17.681 -20.048  0.00  0.00    -0.079 HD
BRANCH  19  26
ATOM     26  C   UNL     1      34.378 -17.517 -22.075  0.00  0.00    -0.049 C 
BRANCH  26  29
ATOM     27 CL   UNL     1      33.919 -15.687 -24.467  0.00  0.00    -0.082 Cl
ATOM     28 CL   UNL     1      33.089 -12.672 -23.731  0.00  0.00    -0.081 Cl
ATOM     29  C   UNL     1      33.987 -16.090 -21.795  0.00  0.00    -0.032 C 
ATOM     30  C   UNL     1      33.754 -15.172 -22.819  0.00  0.00    +0.062 C 
ATOM     31  C   UNL     1      33.860 -15.695 -20.463  0.00  0.00    -0.005 C 
ATOM     32  C   UNL     1      33.393 -13.860 -22.511  0.00  0.00    +0.068 C 
ATOM     33  C   UNL     1      33.499 -14.384 -20.155  0.00  0.00    +0.001 C 
ATOM     34  C   UNL     1      33.266 -13.466 -21.180  0.00  0.00    +0.012 C 
ENDBRANCH  26  29
ENDBRANCH  19  26
ENDBRANCH  18  20
ENDBRANCH   1  18
TORSDOF 5
ENDMDL
MODEL 3
REMARK VINA RESULT:     -11.4      1.397      2.056
REMARK  Name = 24978486
REMARK  5 active torsions:
REMARK  status: ('A' for Active; 'I' for Inactive)
REMARK    1  A    between atoms: O_1  and  C_6
REMARK    2  A    between atoms: O_1  and  C_18
REMARK    3  A    between atoms: C_18  and  C_20
REMARK    4  A    between atoms: N_19  and  C_26
REMARK    5  A    between atoms: C_26  and  C_29
REMARK                            x       y       z     vdW  Elec       q    Type
REMARK                         _______ _______ _______ _____ _____    ______ ____
ROOT
ATOM      1  O   UNL     1      33.115 -22.576 -16.470  0.00  0.00    -0.479 OA
ENDROOT
BRANCH   1   6
ATOM      2  N   UNL     1      33.089 -23.951 -11.824  0.00  0.00    -0.332 NA
ATOM      3  N   UNL     1      35.210 -23.483 -12.867  0.00  0.00    -0.317 NA
ATOM      4  N   UNL     1      35.348 -22.813 -15.096  0.00  0.00    -0.335 N 
ATOM      5  N   UNL     1      35.095 -24.154 -10.625  0.00  0.00    -0.283 N 
ATOM      6  C   UNL     1      32.480 -22.963 -15.317  0.00  0.00    +0.130 C 
ATOM      7  C   UNL     1      33.156 -23.267 -14.122  0.00  0.00    +0.177 C 
ATOM      8  C   UNL     1      31.093 -23.051 -15.372  0.00  0.00    +0.033 C 
ATOM      9  C   UNL     1      32.452 -23.659 -12.972  0.00  0.00    +0.137 C 
ATOM     10  C   UNL     1      34.541 -23.198 -14.000  0.00  0.00    +0.181 C 
ATOM     11  C   UNL     1      30.384 -23.439 -14.241  0.00  0.00    +0.005 C 
ATOM     12  C   UNL     1      31.064 -23.739 -13.056  0.00  0.00    +0.030 C 
ATOM     13  C   UNL     1      34.433 -23.847 -11.834  0.00  0.00    +0.197 C 
ATOM     14  H   UNL     1      36.326 -22.769 -14.997  0.00  0.00    +0.144 HD
ATOM     15  H   UNL     1      34.929 -22.589 -15.959  0.00  0.00    +0.144 HD
ATOM     16  H   UNL     1      34.574 -24.427  -9.835  0.00  0.00    +0.156 HD
ATOM     17  H   UNL     1      36.076 -24.095 -10.571  0.00  0.00    +0.156 HD
ENDBRANCH   1   6
BRANCH   1  18
ATOM     18  C   UNL     1      32.316 -22.447 -17.632  0.00  0.00    +0.205 C 
BRANCH  18  20
ATOM     19  N   UNL     1      34.609 -19.413 -19.679  0.00  0.00    +0.390 N 
ATOM     20  C   UNL     1      33.141 -21.761 -18.717  0.00  0.00    +0.040 C 
ATOM     21  C   UNL     1      34.536 -21.395 -18.199  0.00  0.00    -0.019 C 
ATOM     22  C   UNL     1      32.434 -20.504 -19.235  0.00  0.00    -0.019 C 
ATOM     23  C   UNL     1      35.332 -20.617 -19.249  0.00  0.00    -0.077 C 
ATOM     24  C   UNL     1      33.300 -19.757 -20.250  0.00  0.00    -0.077 C 
ATOM     25  H   UNL     1      34.451 -18.830 -18.856  0.00  0.00    -0.079 HD
BRANCH  19  26
ATOM     26  C   UNL     1      35.405 -18.655 -20.643  0.00  0.00    -0.049 C 
BRANCH  26  29
ATOM     27 CL   UNL     1      34.385 -15.793 -20.874  0.00  0.00    -0.082 Cl
ATOM     28 CL   UNL     1      32.704 -15.162 -23.538  0.00  0.00    -0.081 Cl
ATOM     29  C   UNL     1      34.610 -18.297 -21.870  0.00  0.00    -0.032 C 
ATOM     30  C   UNL     1      34.098 -17.015 -22.071  0.00  0.00    +0.062 C 
ATOM     31  C   UNL     1      34.389 -19.292 -22.822  0.00  0.00    -0.005 C 
ATOM     32  C   UNL     1      33.366 -16.729 -23.225  0.00  0.00    +0.068 C 
ATOM     33  C   UNL     1      33.659 -19.007 -23.975  0.00  0.00    +0.001 C 
ATOM     34  C   UNL     1      33.147 -17.725 -24.176  0.00  0.00    +0.012 C 
ENDBRANCH  26  29
ENDBRANCH  19  26
ENDBRANCH  18  20
ENDBRANCH   1  18
TORSDOF 5
ENDMDL
MODEL 4
REMARK VINA RESULT:     -11.3      4.281     10.396
REMARK  Name = 24978486
REMARK  5 active torsions:
REMARK  status: ('A' for Active; 'I' for Inactive)
REMARK    1  A    between atoms: O_1  and  C_6
REMARK    2  A    between atoms: O_1  and  C_18
REMARK    3  A    between atoms: C_18  and  C_20
REMARK    4  A    between atoms: N_19  and  C_26
REMARK    5  A    between atoms: C_26  and  C_29
REMARK                            x       y       z     vdW  Elec       q    Type
REMARK                         _______ _______ _______ _____ _____    ______ ____
ROOT
ATOM      1  O   UNL     1      34.225 -17.648 -21.810  0.00  0.00    -0.479 OA
ENDROOT
BRANCH   1   6
ATOM      2  N   UNL     1      32.776 -13.381 -23.590  0.00  0.00    -0.332 NA
ATOM      3  N   UNL     1      33.024 -15.231 -25.113  0.00  0.00    -0.317 NA
ATOM      4  N   UNL     1      33.714 -17.331 -24.373  0.00  0.00    -0.335 N 
ATOM      5  N   UNL     1      32.329 -13.128 -25.879  0.00  0.00    -0.283 N 
ATOM      6  C   UNL     1      33.887 -16.324 -21.680  0.00  0.00    +0.130 C 
ATOM      7  C   UNL     1      33.490 -15.514 -22.759  0.00  0.00    +0.177 C 
ATOM      8  C   UNL     1      33.954 -15.790 -20.398  0.00  0.00    +0.033 C 
ATOM      9  C   UNL     1      33.157 -14.164 -22.565  0.00  0.00    +0.137 C 
ATOM     10  C   UNL     1      33.401 -15.987 -24.065  0.00  0.00    +0.181 C 
ATOM     11  C   UNL     1      33.628 -14.454 -20.193  0.00  0.00    +0.005 C 
ATOM     12  C   UNL     1      33.234 -13.655 -21.271  0.00  0.00    +0.030 C 
ATOM     13  C   UNL     1      32.730 -13.956 -24.808  0.00  0.00    +0.197 C 
ATOM     14  H   UNL     1      33.647 -17.653 -25.300  0.00  0.00    +0.144 HD
ATOM     15  H   UNL     1      33.998 -17.946 -23.657  0.00  0.00    +0.144 HD
ATOM     16  H   UNL     1      32.101 -12.185 -25.712  0.00  0.00    +0.156 HD
ATOM     17  H   UNL     1      32.275 -13.494 -26.792  0.00  0.00    +0.156 HD
ENDBRANCH   1   6
BRANCH   1  18
ATOM     18  C   UNL     1      35.017 -18.213 -20.781  0.00  0.00    +0.205 C 
BRANCH  18  20
ATOM     19  N   UNL     1      33.261 -21.331 -18.362  0.00  0.00    +0.390 N 
ATOM     20  C   UNL     1      34.419 -19.563 -20.393  0.00  0.00    +0.040 C 
ATOM     21  C   UNL     1      32.981 -19.405 -19.890  0.00  0.00    -0.019 C 
ATOM     22  C   UNL     1      35.270 -20.254 -19.322  0.00  0.00    -0.019 C 
ATOM     23  C   UNL     1      32.411 -20.740 -19.405  0.00  0.00    -0.077 C 
ATOM     24  C   UNL     1      34.624 -21.560 -18.857  0.00  0.00    -0.077 C 
ATOM     25  H   UNL     1      33.314 -20.670 -17.587  0.00  0.00    -0.079 HD
BRANCH  19  26
ATOM     26  C   UNL     1      32.676 -22.579 -17.873  0.00  0.00    -0.049 C 
BRANCH  26  29
ATOM     27 CL   UNL     1      30.177 -22.569 -16.131  0.00  0.00    -0.082 Cl
ATOM     28 CL   UNL     1      30.715 -22.929 -12.984  0.00  0.00    -0.081 Cl
ATOM     29  C   UNL     1      32.863 -22.743 -16.389  0.00  0.00    -0.032 C 
ATOM     30  C   UNL     1      31.784 -22.752 -15.504  0.00  0.00    +0.062 C 
ATOM     31  C   UNL     1      34.163 -22.889 -15.904  0.00  0.00    -0.005 C 
ATOM     32  C   UNL     1      32.005 -22.907 -14.135  0.00  0.00    +0.068 C 
ATOM     33  C   UNL     1      34.384 -23.044 -14.536  0.00  0.00    +0.001 C 
ATOM     34  C   UNL     1      33.305 -23.053 -13.652  0.00  0.00    +0.012 C 
ENDBRANCH  26  29
ENDBRANCH  19  26
ENDBRANCH  18  20
ENDBRANCH   1  18
TORSDOF 5
ENDMDL
MODEL 5
REMARK VINA RESULT:     -11.0      2.867      4.732
REMARK  Name = 24978486
REMARK  5 active torsions:
REMARK  status: ('A' for Active; 'I' for Inactive)
REMARK    1  A    between atoms: O_1  and  C_6
REMARK    2  A    between atoms: O_1  and  C_18
REMARK    3  A    between atoms: C_18  and  C_20
REMARK    4  A    between atoms: N_19  and  C_26
REMARK    5  A    between atoms: C_26  and  C_29
REMARK                            x       y       z     vdW  Elec       q    Type
REMARK                         _______ _______ _______ _____ _____    ______ ____
ROOT
ATOM      1  O   UNL     1      33.614 -24.681 -12.424  0.00  0.00    -0.479 OA
ENDROOT
BRANCH   1   6
ATOM      2  N   UNL     1      38.459 -24.705 -12.437  0.00  0.00    -0.332 NA
ATOM      3  N   UNL     1      37.304 -26.204 -13.928  0.00  0.00    -0.317 NA
ATOM      4  N   UNL     1      34.975 -26.281 -14.010  0.00  0.00    -0.335 N 
ATOM      5  N   UNL     1      39.645 -26.142 -13.862  0.00  0.00    -0.283 N 
ATOM      6  C   UNL     1      34.837 -24.239 -11.985  0.00  0.00    +0.130 C 
ATOM      7  C   UNL     1      36.061 -24.731 -12.469  0.00  0.00    +0.177 C 
ATOM      8  C   UNL     1      34.824 -23.252 -11.005  0.00  0.00    +0.033 C 
ATOM      9  C   UNL     1      37.282 -24.241 -11.980  0.00  0.00    +0.137 C 
ATOM     10  C   UNL     1      36.144 -25.717 -13.449  0.00  0.00    +0.181 C 
ATOM     11  C   UNL     1      36.026 -22.758 -10.511  0.00  0.00    +0.005 C 
ATOM     12  C   UNL     1      37.240 -23.253 -11.000  0.00  0.00    +0.030 C 
ATOM     13  C   UNL     1      38.406 -25.661 -13.386  0.00  0.00    +0.197 C 
ATOM     14  H   UNL     1      35.047 -26.977 -14.702  0.00  0.00    +0.144 HD
ATOM     15  H   UNL     1      34.088 -25.975 -13.710  0.00  0.00    +0.144 HD
ATOM     16  H   UNL     1      40.485 -25.779 -13.500  0.00  0.00    +0.156 HD
ATOM     17  H   UNL     1      39.669 -26.840 -14.557  0.00  0.00    +0.156 HD
ENDBRANCH   1   6
BRANCH   1  18
ATOM     18  C   UNL     1      32.658 -23.694 -12.765  0.00  0.00    +0.205 C 
BRANCH  18  20
ATOM     19  N   UNL     1      32.451 -22.170 -16.801  0.00  0.00    +0.390 N 
ATOM     20  C   UNL     1      32.504 -23.670 -14.283  0.00  0.00    +0.040 C 
ATOM     21  C   UNL     1      33.778 -23.153 -14.958  0.00  0.00    -0.019 C 
ATOM     22  C   UNL     1      31.309 -22.807 -14.702  0.00  0.00    -0.019 C 
ATOM     23  C   UNL     1      33.595 -23.032 -16.473  0.00  0.00    -0.077 C 
ATOM     24  C   UNL     1      31.208 -22.697 -16.224  0.00  0.00    -0.077 C 
ATOM     25  H   UNL     1      32.623 -21.250 -16.393  0.00  0.00    -0.079 HD
BRANCH  19  26
ATOM     26  C   UNL     1      32.322 -22.023 -18.250  0.00  0.00    -0.049 C 
BRANCH  26  29
ATOM     27 CL   UNL     1      31.566 -19.900 -20.301  0.00  0.00    -0.082 Cl
ATOM     28 CL   UNL     1      34.030 -18.195 -21.461  0.00  0.00    -0.081 Cl
ATOM     29  C   UNL     1      33.433 -21.190 -18.832  0.00  0.00    -0.032 C 
ATOM     30  C   UNL     1      33.193 -20.193 -19.777  0.00  0.00    +0.062 C 
ATOM     31  C   UNL     1      34.735 -21.441 -18.398  0.00  0.00    -0.005 C 
ATOM     32  C   UNL     1      34.256 -19.446 -20.288  0.00  0.00    +0.068 C 
ATOM     33  C   UNL     1      35.797 -20.694 -18.908  0.00  0.00    +0.001 C 
ATOM     34  C   UNL     1      35.557 -19.697 -19.853  0.00  0.00    +0.012 C 
ENDBRANCH  26  29
ENDBRANCH  19  26
ENDBRANCH  18  20
ENDBRANCH   1  18
TORSDOF 5
ENDMDL
MODEL 6
REMARK VINA RESULT:     -10.7      5.586     11.551
REMARK  Name = 24978486
REMARK  5 active torsions:
REMARK  status: ('A' for Active; 'I' for Inactive)
REMARK    1  A    between atoms: O_1  and  C_6
REMARK    2  A    between atoms: O_1  and  C_18
REMARK    3  A    between atoms: C_18  and  C_20
REMARK    4  A    between atoms: N_19  and  C_26
REMARK    5  A    between atoms: C_26  and  C_29
REMARK                            x       y       z     vdW  Elec       q    Type
REMARK                         _______ _______ _______ _____ _____    ______ ____
ROOT
ATOM      1  O   UNL     1      33.460 -12.797 -22.503  0.00  0.00    -0.479 OA
ENDROOT
BRANCH   1   6
ATOM      2  N   UNL     1      30.860  -8.777 -21.755  0.00  0.00    -0.332 NA
ATOM      3  N   UNL     1      32.590  -8.725 -23.431  0.00  0.00    -0.317 NA
ATOM      4  N   UNL     1      33.905 -10.597 -23.879  0.00  0.00    -0.335 N 
ATOM      5  N   UNL     1      31.280  -6.832 -22.997  0.00  0.00    -0.283 N 
ATOM      6  C   UNL     1      32.473 -12.083 -21.871  0.00  0.00    +0.130 C 
ATOM      7  C   UNL     1      32.175 -10.741 -22.164  0.00  0.00    +0.177 C 
ATOM      8  C   UNL     1      31.752 -12.757 -20.891  0.00  0.00    +0.033 C 
ATOM      9  C   UNL     1      31.154 -10.061 -21.481  0.00  0.00    +0.137 C 
ATOM     10  C   UNL     1      32.858 -10.010 -23.133  0.00  0.00    +0.181 C 
ATOM     11  C   UNL     1      30.738 -12.095 -20.207  0.00  0.00    +0.005 C 
ATOM     12  C   UNL     1      30.448 -10.760 -20.506  0.00  0.00    +0.030 C 
ATOM     13  C   UNL     1      31.594  -8.179 -22.714  0.00  0.00    +0.197 C 
ATOM     14  H   UNL     1      34.380 -10.070 -24.561  0.00  0.00    +0.144 HD
ATOM     15  H   UNL     1      34.159 -11.535 -23.717  0.00  0.00    +0.144 HD
ATOM     16  H   UNL     1      30.558  -6.381 -22.501  0.00  0.00    +0.156 HD
ATOM     17  H   UNL     1      31.781  -6.343 -23.689  0.00  0.00    +0.156 HD
ENDBRANCH   1   6
BRANCH   1  18
ATOM     18  C   UNL     1      33.054 -13.917 -23.269  0.00  0.00    +0.205 C 
BRANCH  18  20
ATOM     19  N   UNL     1      34.047 -17.791 -21.639  0.00  0.00    +0.390 N 
ATOM     20  C   UNL     1      33.886 -15.124 -22.843  0.00  0.00    +0.040 C 
ATOM     21  C   UNL     1      33.441 -16.388 -23.585  0.00  0.00    -0.019 C 
ATOM     22  C   UNL     1      33.794 -15.350 -21.331  0.00  0.00    -0.019 C 
ATOM     23  C   UNL     1      34.203 -17.620 -23.089  0.00  0.00    -0.077 C 
ATOM     24  C   UNL     1      34.543 -16.616 -20.911  0.00  0.00    -0.077 C 
ATOM     25  H   UNL     1      33.052 -17.890 -21.438  0.00  0.00    -0.079 HD
BRANCH  19  26
ATOM     26  C   UNL     1      34.738 -19.000 -21.190  0.00  0.00    -0.049 C 
BRANCH  26  29
ATOM     27 CL   UNL     1      36.200 -20.611 -19.057  0.00  0.00    -0.082 Cl
ATOM     28 CL   UNL     1      34.299 -22.267 -17.065  0.00  0.00    -0.081 Cl
ATOM     29  C   UNL     1      33.901 -19.799 -20.226  0.00  0.00    -0.032 C 
ATOM     30  C   UNL     1      34.473 -20.569 -19.213  0.00  0.00    +0.062 C 
ATOM     31  C   UNL     1      32.514 -19.752 -20.368  0.00  0.00    -0.005 C 
ATOM     32  C   UNL     1      33.657 -21.293 -18.342  0.00  0.00    +0.068 C 
ATOM     33  C   UNL     1      31.699 -20.475 -19.497  0.00  0.00    +0.001 C 
ATOM     34  C   UNL     1      32.271 -21.246 -18.485  0.00  0.00    +0.012 C 
ENDBRANCH  26  29
ENDBRANCH  19  26
ENDBRANCH  18  20
ENDBRANCH   1  18
TORSDOF 5
ENDMDL
MODEL 7
REMARK VINA RESULT:     -10.4      3.988      6.486
REMARK  Name = 24978486
REMARK  5 active torsions:
REMARK  status: ('A' for Active; 'I' for Inactive)
REMARK    1  A    between atoms: O_1  and  C_6
REMARK    2  A    between atoms: O_1  and  C_18
REMARK    3  A    between atoms: C_18  and  C_20
REMARK    4  A    between atoms: N_19  and  C_26
REMARK    5  A    between atoms: C_26  and  C_29
REMARK                            x       y       z     vdW  Elec       q    Type
REMARK                         _______ _______ _______ _____ _____    ______ ____
ROOT
ATOM      1  O   UNL     1      33.271 -18.586 -21.625  0.00  0.00    -0.479 OA
ENDROOT
BRANCH   1   6
ATOM      2  N   UNL     1      34.023 -21.719 -18.006  0.00  0.00    -0.332 NA
ATOM      3  N   UNL     1      31.769 -21.406 -18.798  0.00  0.00    -0.317 NA
ATOM      4  N   UNL     1      31.285 -19.926 -20.534  0.00  0.00    -0.335 N 
ATOM      5  N   UNL     1      32.233 -22.899 -17.053  0.00  0.00    -0.283 N 
ATOM      6  C   UNL     1      34.077 -19.249 -20.733  0.00  0.00    +0.130 C 
ATOM      7  C   UNL     1      33.598 -20.180 -19.795  0.00  0.00    +0.177 C 
ATOM      8  C   UNL     1      35.436 -18.956 -20.789  0.00  0.00    +0.033 C 
ATOM      9  C   UNL     1      34.472 -20.826 -18.906  0.00  0.00    +0.137 C 
ATOM     10  C   UNL     1      32.252 -20.518 -19.687  0.00  0.00    +0.181 C 
ATOM     11  C   UNL     1      36.311 -19.589 -19.914  0.00  0.00    +0.005 C 
ATOM     12  C   UNL     1      35.826 -20.514 -18.984  0.00  0.00    +0.030 C 
ATOM     13  C   UNL     1      32.697 -21.960 -18.000  0.00  0.00    +0.197 C 
ATOM     14  H   UNL     1      30.337 -20.174 -20.448  0.00  0.00    +0.144 HD
ATOM     15  H   UNL     1      31.563 -19.267 -21.210  0.00  0.00    +0.144 HD
ATOM     16  H   UNL     1      32.870 -23.336 -16.442  0.00  0.00    +0.156 HD
ATOM     17  H   UNL     1      31.274 -23.117 -17.003  0.00  0.00    +0.156 HD
ENDBRANCH   1   6
BRANCH   1  18
ATOM     18  C   UNL     1      33.774 -18.407 -22.936  0.00  0.00    +0.205 C 
BRANCH  18  20
ATOM     19  N   UNL     1      32.820 -14.195 -22.867  0.00  0.00    +0.390 N 
ATOM     20  C   UNL     1      33.866 -16.910 -23.221  0.00  0.00    +0.040 C 
ATOM     21  C   UNL     1      34.068 -16.114 -21.928  0.00  0.00    -0.019 C 
ATOM     22  C   UNL     1      32.613 -16.410 -23.947  0.00  0.00    -0.019 C 
ATOM     23  C   UNL     1      34.060 -14.607 -22.195  0.00  0.00    -0.077 C 
ATOM     24  C   UNL     1      32.654 -14.894 -24.148  0.00  0.00    -0.077 C 
ATOM     25  H   UNL     1      32.037 -14.448 -22.265  0.00  0.00    -0.079 HD
BRANCH  19  26
ATOM     26  C   UNL     1      32.806 -12.746 -23.069  0.00  0.00    -0.049 C 
BRANCH  26  29
ATOM     27 CL   UNL     1      32.515  -9.722 -23.298  0.00  0.00    -0.082 Cl
ATOM     28 CL   UNL     1      30.899  -8.328 -20.896  0.00  0.00    -0.081 Cl
ATOM     29  C   UNL     1      32.059 -12.034 -21.973  0.00  0.00    -0.032 C 
ATOM     30  C   UNL     1      31.870 -10.652 -21.984  0.00  0.00    +0.062 C 
ATOM     31  C   UNL     1      31.548 -12.799 -20.924  0.00  0.00    -0.005 C 
ATOM     32  C   UNL     1      31.170 -10.035 -20.946  0.00  0.00    +0.068 C 
ATOM     33  C   UNL     1      30.848 -12.183 -19.887  0.00  0.00    +0.001 C 
ATOM     34  C   UNL     1      30.660 -10.801 -19.898  0.00  0.00    +0.012 C 
ENDBRANCH  26  29
ENDBRANCH  19  26
ENDBRANCH  18  20
ENDBRANCH   1  18
TORSDOF 5
ENDMDL
MODEL 8
REMARK VINA RESULT:     -10.4      2.271      3.355
REMARK  Name = 24978486
REMARK  5 active torsions:
REMARK  status: ('A' for Active; 'I' for Inactive)
REMARK    1  A    between atoms: O_1  and  C_6
REMARK    2  A    between atoms: O_1  and  C_18
REMARK    3  A    between atoms: C_18  and  C_20
REMARK    4  A    between atoms: N_19  and  C_26
REMARK    5  A    between atoms: C_26  and  C_29
REMARK                            x       y       z     vdW  Elec       q    Type
REMARK                         _______ _______ _______ _____ _____    ______ ____
ROOT
ATOM      1  O   UNL     1      32.835 -22.075 -17.057  0.00  0.00    -0.479 OA
ENDROOT
BRANCH   1   6
ATOM      2  N   UNL     1      31.793 -24.051 -12.758  0.00  0.00    -0.332 NA
ATOM      3  N   UNL     1      29.969 -23.466 -14.220  0.00  0.00    -0.317 NA
ATOM      4  N   UNL     1      30.348 -22.510 -16.313  0.00  0.00    -0.335 N 
ATOM      5  N   UNL     1      29.566 -24.426 -12.122  0.00  0.00    -0.283 N 
ATOM      6  C   UNL     1      33.187 -22.609 -15.843  0.00  0.00    +0.130 C 
ATOM      7  C   UNL     1      32.255 -23.070 -14.897  0.00  0.00    +0.177 C 
ATOM      8  C   UNL     1      34.549 -22.678 -15.568  0.00  0.00    +0.033 C 
ATOM      9  C   UNL     1      32.676 -23.606 -13.669  0.00  0.00    +0.137 C 
ATOM     10  C   UNL     1      30.880 -23.030 -15.110  0.00  0.00    +0.181 C 
ATOM     11  C   UNL     1      34.979 -23.206 -14.355  0.00  0.00    +0.005 C 
ATOM     12  C   UNL     1      34.045 -23.663 -13.420  0.00  0.00    +0.030 C 
ATOM     13  C   UNL     1      30.488 -23.956 -13.083  0.00  0.00    +0.197 C 
ATOM     14  H   UNL     1      29.374 -22.487 -16.451  0.00  0.00    +0.144 HD
ATOM     15  H   UNL     1      30.953 -22.172 -17.012  0.00  0.00    +0.144 HD
ATOM     16  H   UNL     1      29.891 -24.797 -11.269  0.00  0.00    +0.156 HD
ATOM     17  H   UNL     1      28.599 -24.384 -12.304  0.00  0.00    +0.156 HD
ENDBRANCH   1   6
BRANCH   1  18
ATOM     18  C   UNL     1      33.292 -22.752 -18.214  0.00  0.00    +0.205 C 
BRANCH  18  20
ATOM     19  N   UNL     1      34.721 -18.991 -19.786  0.00  0.00    +0.390 N 
ATOM     20  C   UNL     1      33.813 -21.718 -19.208  0.00  0.00    +0.040 C 
ATOM     21  C   UNL     1      35.199 -21.209 -18.798  0.00  0.00    -0.019 C 
ATOM     22  C   UNL     1      32.844 -20.538 -19.335  0.00  0.00    -0.019 C 
ATOM     23  C   UNL     1      35.683 -20.100 -19.735  0.00  0.00    -0.077 C 
ATOM     24  C   UNL     1      33.407 -19.452 -20.253  0.00  0.00    -0.077 C 
ATOM     25  H   UNL     1      34.609 -18.627 -18.839  0.00  0.00    -0.079 HD
BRANCH  19  26
ATOM     26  C   UNL     1      35.222 -17.918 -20.643  0.00  0.00    -0.049 C 
BRANCH  26  29
ATOM     27 CL   UNL     1      34.164 -15.170 -21.426  0.00  0.00    -0.082 Cl
ATOM     28 CL   UNL     1      32.515 -15.085 -24.183  0.00  0.00    -0.081 Cl
ATOM     29  C   UNL     1      34.441 -17.813 -21.926  0.00  0.00    -0.032 C 
ATOM     30  C   UNL     1      33.913 -16.601 -22.373  0.00  0.00    +0.062 C 
ATOM     31  C   UNL     1      34.250 -18.974 -22.674  0.00  0.00    -0.005 C 
ATOM     32  C   UNL     1      33.196 -16.552 -23.569  0.00  0.00    +0.068 C 
ATOM     33  C   UNL     1      33.533 -18.925 -23.869  0.00  0.00    +0.001 C 
ATOM     34  C   UNL     1      33.006 -17.714 -24.316  0.00  0.00    +0.012 C 
ENDBRANCH  26  29
ENDBRANCH  19  26
ENDBRANCH  18  20
ENDBRANCH   1  18
TORSDOF 5
ENDMDL
MODEL 9
REMARK VINA RESULT:     -10.4      5.537     11.379
REMARK  Name = 24978486
REMARK  5 active torsions:
REMARK  status: ('A' for Active; 'I' for Inactive)
REMARK    1  A    between atoms: O_1  and  C_6
REMARK    2  A    between atoms: O_1  and  C_18
REMARK    3  A    between atoms: C_18  and  C_20
REMARK    4  A    between atoms: N_19  and  C_26
REMARK    5  A    between atoms: C_26  and  C_29
REMARK                            x       y       z     vdW  Elec       q    Type
REMARK                         _______ _______ _______ _____ _____    ______ ____
ROOT
ATOM      1  O   UNL     1      32.584 -13.533 -22.786  0.00  0.00    -0.479 OA
ENDROOT
BRANCH   1   6
ATOM      2  N   UNL     1      31.772  -8.898 -21.629  0.00  0.00    -0.332 NA
ATOM      3  N   UNL     1      30.860 -10.611 -20.200  0.00  0.00    -0.317 NA
ATOM      4  N   UNL     1      31.185 -12.875 -20.655  0.00  0.00    -0.335 N 
ATOM      5  N   UNL     1      30.521  -8.342 -19.724  0.00  0.00    -0.283 N 
ATOM      6  C   UNL     1      32.708 -12.183 -22.999  0.00  0.00    +0.130 C 
ATOM      7  C   UNL     1      32.146 -11.208 -22.158  0.00  0.00    +0.177 C 
ATOM      8  C   UNL     1      33.436 -11.797 -24.120  0.00  0.00    +0.033 C 
ATOM      9  C   UNL     1      32.306  -9.839 -22.428  0.00  0.00    +0.137 C 
ATOM     10  C   UNL     1      31.408 -11.527 -21.021  0.00  0.00    +0.181 C 
ATOM     11  C   UNL     1      33.601 -10.445 -24.400  0.00  0.00    +0.005 C 
ATOM     12  C   UNL     1      33.038  -9.481 -23.557  0.00  0.00    +0.030 C 
ATOM     13  C   UNL     1      31.078  -9.335 -20.559  0.00  0.00    +0.197 C 
ATOM     14  H   UNL     1      30.662 -13.086 -19.850  0.00  0.00    +0.144 HD
ATOM     15  H   UNL     1      31.556 -13.601 -21.208  0.00  0.00    +0.144 HD
ATOM     16  H   UNL     1      30.650  -7.390 -19.939  0.00  0.00    +0.156 HD
ATOM     17  H   UNL     1      30.005  -8.601 -18.926  0.00  0.00    +0.156 HD
ENDBRANCH   1   6
BRANCH   1  18
ATOM     18  C   UNL     1      33.003 -14.391 -23.832  0.00  0.00    +0.205 C 
BRANCH  18  20
ATOM     19  N   UNL     1      34.075 -17.937 -21.612  0.00  0.00    +0.390 N 
ATOM     20  C   UNL     1      33.858 -15.505 -23.234  0.00  0.00    +0.040 C 
ATOM     21  C   UNL     1      33.412 -16.877 -23.747  0.00  0.00    -0.019 C 
ATOM     22  C   UNL     1      33.800 -15.481 -21.703  0.00  0.00    -0.019 C 
ATOM     23  C   UNL     1      34.198 -18.005 -23.075  0.00  0.00    -0.077 C 
ATOM     24  C   UNL     1      34.573 -16.655 -21.098  0.00  0.00    -0.077 C 
ATOM     25  H   UNL     1      33.086 -18.010 -21.375  0.00  0.00    -0.079 HD
BRANCH  19  26
ATOM     26  C   UNL     1      34.789 -19.051 -20.987  0.00  0.00    -0.049 C 
BRANCH  26  29
ATOM     27 CL   UNL     1      36.119 -20.764 -18.848  0.00  0.00    -0.082 Cl
ATOM     28 CL   UNL     1      34.095 -22.427 -16.987  0.00  0.00    -0.081 Cl
ATOM     29  C   UNL     1      33.893 -19.855 -20.083  0.00  0.00    -0.032 C 
ATOM     30  C   UNL     1      34.402 -20.671 -19.073  0.00  0.00    +0.062 C 
ATOM     31  C   UNL     1      32.515 -19.766 -20.280  0.00  0.00    -0.005 C 
ATOM     32  C   UNL     1      33.532 -21.397 -18.259  0.00  0.00    +0.068 C 
ATOM     33  C   UNL     1      31.645 -20.492 -19.466  0.00  0.00    +0.001 C 
ATOM     34  C   UNL     1      32.155 -21.308 -18.456  0.00  0.00    +0.012 C 
ENDBRANCH  26  29
ENDBRANCH  19  26
ENDBRANCH  18  20
ENDBRANCH   1  18
TORSDOF 5
ENDMDL
