MODEL 1
REMARK VINA RESULT:     -11.7      0.000      0.000
REMARK  Name = 54671008
REMARK  7 active torsions:
REMARK  status: ('A' for Active; 'I' for Inactive)
REMARK    1  A    between atoms: C_4  and  C_21
REMARK    2  A    between atoms: C_6  and  C_11
REMARK    3  A    between atoms: C_8  and  O_34
REMARK    4  A    between atoms: N_10  and  C_13
REMARK    5  A    between atoms: C_13  and  C_15
REMARK    6  A    between atoms: C_21  and  N_25
REMARK    7  A    between atoms: C_26  and  C_31
REMARK                            x       y       z     vdW  Elec       q    Type
REMARK                         _______ _______ _______ _____ _____    ______ ____
ROOT
ATOM      1  O   UNL     1      35.865 -22.780 -14.150  0.00  0.00    -0.271 OA
ATOM      2  N   UNL     1      33.566 -23.128 -13.877  0.00  0.00    -0.232 N 
ATOM      3  N   UNL     1      32.133 -22.929 -15.763  0.00  0.00    -0.386 NA
ATOM      4  C   UNL     1      32.321 -23.159 -14.500  0.00  0.00    +0.182 C 
ATOM      5  C   UNL     1      34.723 -22.835 -14.604  0.00  0.00    +0.265 C 
ATOM      6  C   UNL     1      33.240 -22.640 -16.513  0.00  0.00    +0.199 C 
ATOM      7  C   UNL     1      33.662 -23.405 -12.445  0.00  0.00    +0.122 C 
ATOM      8  C   UNL     1      34.496 -22.574 -16.051  0.00  0.00    +0.245 C 
ENDROOT
BRANCH   6  11
ATOM      9  O   UNL     1      33.062 -23.296 -18.761  0.00  0.00    -0.268 OA
ATOM     10  N   UNL     1      32.720 -21.057 -18.208  0.00  0.00    -0.295 N 
ATOM     11  C   UNL     1      33.001 -22.384 -17.941  0.00  0.00    +0.275 C 
ATOM     12  H   UNL     1      32.702 -20.422 -17.456  0.00  0.00    +0.150 HD
BRANCH  10  13
ATOM     13  C   UNL     1      32.450 -20.557 -19.537  0.00  0.00    +0.117 C 
BRANCH  13  15
ATOM     14  F   UNL     1      36.931 -17.981 -21.771  0.00  0.00    -0.204 F 
ATOM     15  C   UNL     1      33.645 -19.870 -20.133  0.00  0.00    -0.002 C 
ATOM     16  C   UNL     1      33.496 -19.068 -21.264  0.00  0.00    -0.000 C 
ATOM     17  C   UNL     1      34.904 -20.034 -19.555  0.00  0.00    -0.000 C 
ATOM     18  C   UNL     1      34.606 -18.430 -21.817  0.00  0.00    +0.029 C 
ATOM     19  C   UNL     1      36.014 -19.397 -20.109  0.00  0.00    +0.029 C 
ATOM     20  C   UNL     1      35.865 -18.595 -21.240  0.00  0.00    +0.140 C 
ENDBRANCH  13  15
ENDBRANCH  10  13
ENDBRANCH   6  11
BRANCH   4  21
ATOM     21  C   UNL     1      31.111 -23.481 -13.657  0.00  0.00    +0.117 C 
ATOM     22  C   UNL     1      31.114 -24.960 -13.296  0.00  0.00    +0.028 C 
ATOM     23  C   UNL     1      31.101 -22.604 -12.412  0.00  0.00    +0.028 C 
BRANCH  21  25
ATOM     24  O   UNL     1      28.464 -24.590 -13.549  0.00  0.00    -0.265 OA
ATOM     25  N   UNL     1      30.008 -23.162 -14.527  0.00  0.00    -0.293 N 
ATOM     26  C   UNL     1      28.759 -23.752 -14.397  0.00  0.00    +0.302 C 
ATOM     27  H   UNL     1      30.147 -22.497 -15.241  0.00  0.00    +0.150 HD
BRANCH  26  31
ATOM     28  O   UNL     1      27.209 -22.078 -15.336  0.00  0.00    -0.416 OA
ATOM     29  N   UNL     1      27.248 -24.065 -16.364  0.00  0.00    -0.102 NA
ATOM     30  N   UNL     1      26.333 -23.263 -17.019  0.00  0.00    -0.111 NA
ATOM     31  C   UNL     1      27.735 -23.333 -15.389  0.00  0.00    +0.304 A 
ATOM     32  C   UNL     1      26.343 -22.114 -16.386  0.00  0.00    +0.227 A 
ATOM     33  C   UNL     1      25.569 -20.894 -16.647  0.00  0.00    +0.097 C 
ENDBRANCH  26  31
ENDBRANCH  21  25
ENDBRANCH   4  21
BRANCH   8  34
ATOM     34  O   UNL     1      35.585 -22.279 -16.840  0.00  0.00    -0.370 OA
ATOM     35  H   UNL     1      35.706 -22.723 -17.657  0.00  0.00    +0.211 HD
ENDBRANCH   8  34
TORSDOF 7
ENDMDL
MODEL 2
REMARK VINA RESULT:     -10.6      2.218      5.696
REMARK  Name = 54671008
REMARK  7 active torsions:
REMARK  status: ('A' for Active; 'I' for Inactive)
REMARK    1  A    between atoms: C_4  and  C_21
REMARK    2  A    between atoms: C_6  and  C_11
REMARK    3  A    between atoms: C_8  and  O_34
REMARK    4  A    between atoms: N_10  and  C_13
REMARK    5  A    between atoms: C_13  and  C_15
REMARK    6  A    between atoms: C_21  and  N_25
REMARK    7  A    between atoms: C_26  and  C_31
REMARK                            x       y       z     vdW  Elec       q    Type
REMARK                         _______ _______ _______ _____ _____    ______ ____
ROOT
ATOM      1  O   UNL     1      29.293 -22.098 -16.524  0.00  0.00    -0.271 OA
ATOM      2  N   UNL     1      30.503 -22.967 -14.718  0.00  0.00    -0.232 N 
ATOM      3  N   UNL     1      32.873 -23.081 -14.861  0.00  0.00    -0.386 NA
ATOM      4  C   UNL     1      31.765 -23.278 -14.217  0.00  0.00    +0.182 C 
ATOM      5  C   UNL     1      30.357 -22.406 -15.990  0.00  0.00    +0.265 C 
ATOM      6  C   UNL     1      32.777 -22.532 -16.110  0.00  0.00    +0.199 C 
ATOM      7  C   UNL     1      29.318 -23.230 -13.904  0.00  0.00    +0.122 C 
ATOM      8  C   UNL     1      31.635 -22.183 -16.720  0.00  0.00    +0.245 C 
ENDROOT
BRANCH   6  11
ATOM      9  O   UNL     1      35.121 -22.458 -16.241  0.00  0.00    -0.268 OA
ATOM     10  N   UNL     1      33.867 -21.956 -18.141  0.00  0.00    -0.295 N 
ATOM     11  C   UNL     1      34.046 -22.317 -16.819  0.00  0.00    +0.275 C 
ATOM     12  H   UNL     1      32.948 -21.877 -18.485  0.00  0.00    +0.150 HD
BRANCH  10  13
ATOM     13  C   UNL     1      34.963 -21.690 -19.045  0.00  0.00    +0.117 C 
BRANCH  13  15
ATOM     14  F   UNL     1      34.534 -16.615 -21.444  0.00  0.00    -0.204 F 
ATOM     15  C   UNL     1      34.849 -20.336 -19.685  0.00  0.00    -0.002 C 
ATOM     16  C   UNL     1      33.616 -19.894 -20.164  0.00  0.00    -0.000 C 
ATOM     17  C   UNL     1      35.975 -19.522 -19.800  0.00  0.00    -0.000 C 
ATOM     18  C   UNL     1      33.510 -18.637 -20.759  0.00  0.00    +0.029 C 
ATOM     19  C   UNL     1      35.869 -18.265 -20.394  0.00  0.00    +0.029 C 
ATOM     20  C   UNL     1      34.636 -17.822 -20.874  0.00  0.00    +0.140 C 
ENDBRANCH  13  15
ENDBRANCH  10  13
ENDBRANCH   6  11
BRANCH   4  21
ATOM     21  C   UNL     1      31.852 -23.882 -12.836  0.00  0.00    +0.117 C 
ATOM     22  C   UNL     1      31.669 -22.794 -11.786  0.00  0.00    +0.028 C 
ATOM     23  C   UNL     1      30.809 -24.981 -12.687  0.00  0.00    +0.028 C 
BRANCH  21  25
ATOM     24  O   UNL     1      33.786 -23.524 -10.744  0.00  0.00    -0.265 OA
ATOM     25  N   UNL     1      33.187 -24.422 -12.797  0.00  0.00    -0.293 N 
ATOM     26  C   UNL     1      34.054 -24.195 -11.737  0.00  0.00    +0.302 C 
ATOM     27  H   UNL     1      33.495 -24.976 -13.551  0.00  0.00    +0.150 HD
BRANCH  26  31
ATOM     28  O   UNL     1      36.171 -24.540 -12.954  0.00  0.00    -0.416 OA
ATOM     29  N   UNL     1      35.981 -25.603 -10.995  0.00  0.00    -0.102 NA
ATOM     30  N   UNL     1      37.218 -25.910 -11.529  0.00  0.00    -0.111 NA
ATOM     31  C   UNL     1      35.405 -24.802 -11.860  0.00  0.00    +0.304 A 
ATOM     32  C   UNL     1      37.286 -25.268 -12.672  0.00  0.00    +0.227 A 
ATOM     33  C   UNL     1      38.370 -25.228 -13.661  0.00  0.00    +0.097 C 
ENDBRANCH  26  31
ENDBRANCH  21  25
ENDBRANCH   4  21
BRANCH   8  34
ATOM     34  O   UNL     1      31.580 -21.633 -17.980  0.00  0.00    -0.370 OA
ATOM     35  H   UNL     1      32.314 -21.708 -18.557  0.00  0.00    +0.211 HD
ENDBRANCH   8  34
TORSDOF 7
ENDMDL
MODEL 3
REMARK VINA RESULT:     -10.4      1.809      2.588
REMARK  Name = 54671008
REMARK  7 active torsions:
REMARK  status: ('A' for Active; 'I' for Inactive)
REMARK    1  A    between atoms: C_4  and  C_21
REMARK    2  A    between atoms: C_6  and  C_11
REMARK    3  A    between atoms: C_8  and  O_34
REMARK    4  A    between atoms: N_10  and  C_13
REMARK    5  A    between atoms: C_13  and  C_15
REMARK    6  A    between atoms: C_21  and  N_25
REMARK    7  A    between atoms: C_26  and  C_31
REMARK                            x       y       z     vdW  Elec       q    Type
REMARK                         _______ _______ _______ _____ _____    ______ ____
ROOT
ATOM      1  O   UNL     1      37.241 -20.895 -15.994  0.00  0.00    -0.271 OA
ATOM      2  N   UNL     1      35.616 -22.285 -15.041  0.00  0.00    -0.232 N 
ATOM      3  N   UNL     1      33.652 -22.789 -16.282  0.00  0.00    -0.386 NA
ATOM      4  C   UNL     1      34.379 -22.901 -15.213  0.00  0.00    +0.182 C 
ATOM      5  C   UNL     1      36.162 -21.483 -16.046  0.00  0.00    +0.265 C 
ATOM      6  C   UNL     1      34.149 -22.014 -17.293  0.00  0.00    +0.199 C 
ATOM      7  C   UNL     1      36.352 -22.482 -13.793  0.00  0.00    +0.122 C 
ATOM      8  C   UNL     1      35.321 -21.362 -17.268  0.00  0.00    +0.245 C 
ENDROOT
BRANCH   6  11
ATOM      9  O   UNL     1      32.685 -22.873 -18.915  0.00  0.00    -0.268 OA
ATOM     10  N   UNL     1      33.323 -20.635 -19.043  0.00  0.00    -0.295 N 
ATOM     11  C   UNL     1      33.308 -21.903 -18.493  0.00  0.00    +0.275 C 
ATOM     12  H   UNL     1      33.868 -19.941 -18.606  0.00  0.00    +0.150 HD
BRANCH  10  13
ATOM     13  C   UNL     1      32.576 -20.276 -20.227  0.00  0.00    +0.117 C 
BRANCH  13  15
ATOM     14  F   UNL     1      35.097 -16.178 -23.150  0.00  0.00    -0.204 F 
ATOM     15  C   UNL     1      33.248 -19.184 -21.007  0.00  0.00    -0.002 C 
ATOM     16  C   UNL     1      34.068 -18.264 -20.353  0.00  0.00    -0.000 C 
ATOM     17  C   UNL     1      33.053 -19.088 -22.384  0.00  0.00    -0.000 C 
ATOM     18  C   UNL     1      34.692 -17.249 -21.077  0.00  0.00    +0.029 C 
ATOM     19  C   UNL     1      33.677 -18.072 -23.109  0.00  0.00    +0.029 C 
ATOM     20  C   UNL     1      34.497 -17.153 -22.455  0.00  0.00    +0.140 C 
ENDBRANCH  13  15
ENDBRANCH  10  13
ENDBRANCH   6  11
BRANCH   4  21
ATOM     21  C   UNL     1      33.846 -23.755 -14.087  0.00  0.00    +0.117 C 
ATOM     22  C   UNL     1      34.445 -25.152 -14.173  0.00  0.00    +0.028 C 
ATOM     23  C   UNL     1      34.157 -23.097 -12.750  0.00  0.00    +0.028 C 
BRANCH  21  25
ATOM     24  O   UNL     1      31.797 -24.563 -12.245  0.00  0.00    -0.265 OA
ATOM     25  N   UNL     1      32.428 -23.781 -14.336  0.00  0.00    -0.293 N 
ATOM     26  C   UNL     1      31.509 -24.189 -13.379  0.00  0.00    +0.302 C 
ATOM     27  H   UNL     1      32.098 -23.498 -15.220  0.00  0.00    +0.150 HD
BRANCH  26  31
ATOM     28  O   UNL     1      29.515 -23.034 -14.259  0.00  0.00    -0.416 OA
ATOM     29  N   UNL     1      29.262 -25.206 -13.785  0.00  0.00    -0.102 NA
ATOM     30  N   UNL     1      28.055 -24.730 -14.261  0.00  0.00    -0.111 NA
ATOM     31  C   UNL     1      30.084 -24.183 -13.801  0.00  0.00    +0.304 A 
ATOM     32  C   UNL     1      28.249 -23.459 -14.525  0.00  0.00    +0.227 A 
ATOM     33  C   UNL     1      27.313 -22.459 -15.054  0.00  0.00    +0.097 C 
ENDBRANCH  26  31
ENDBRANCH  21  25
ENDBRANCH   4  21
BRANCH   8  34
ATOM     34  O   UNL     1      35.786 -20.590 -18.308  0.00  0.00    -0.370 OA
ATOM     35  H   UNL     1      36.708 -20.465 -18.423  0.00  0.00    +0.211 HD
ENDBRANCH   8  34
TORSDOF 7
ENDMDL
MODEL 4
REMARK VINA RESULT:     -10.3      2.350      5.858
REMARK  Name = 54671008
REMARK  7 active torsions:
REMARK  status: ('A' for Active; 'I' for Inactive)
REMARK    1  A    between atoms: C_4  and  C_21
REMARK    2  A    between atoms: C_6  and  C_11
REMARK    3  A    between atoms: C_8  and  O_34
REMARK    4  A    between atoms: N_10  and  C_13
REMARK    5  A    between atoms: C_13  and  C_15
REMARK    6  A    between atoms: C_21  and  N_25
REMARK    7  A    between atoms: C_26  and  C_31
REMARK                            x       y       z     vdW  Elec       q    Type
REMARK                         _______ _______ _______ _____ _____    ______ ____
ROOT
ATOM      1  O   UNL     1      29.175 -21.886 -15.990  0.00  0.00    -0.271 OA
ATOM      2  N   UNL     1      30.793 -22.910 -14.643  0.00  0.00    -0.232 N 
ATOM      3  N   UNL     1      32.986 -23.225 -15.504  0.00  0.00    -0.386 NA
ATOM      4  C   UNL     1      32.113 -23.343 -14.552  0.00  0.00    +0.182 C 
ATOM      5  C   UNL     1      30.318 -22.301 -15.808  0.00  0.00    +0.265 C 
ATOM      6  C   UNL     1      32.564 -22.632 -16.663  0.00  0.00    +0.199 C 
ATOM      7  C   UNL     1      29.893 -23.093 -13.505  0.00  0.00    +0.122 C 
ATOM      8  C   UNL     1      31.328 -22.169 -16.893  0.00  0.00    +0.245 C 
ENDROOT
BRANCH   6  11
ATOM      9  O   UNL     1      33.529 -23.230 -18.719  0.00  0.00    -0.268 OA
ATOM     10  N   UNL     1      34.510 -21.528 -17.463  0.00  0.00    -0.295 N 
ATOM     11  C   UNL     1      33.571 -22.508 -17.726  0.00  0.00    +0.275 C 
ATOM     12  H   UNL     1      34.431 -21.017 -16.626  0.00  0.00    +0.150 HD
BRANCH  10  13
ATOM     13  C   UNL     1      35.601 -21.217 -18.359  0.00  0.00    +0.117 C 
BRANCH  13  15
ATOM     14  F   UNL     1      34.147 -17.363 -22.197  0.00  0.00    -0.204 F 
ATOM     15  C   UNL     1      35.213 -20.189 -19.382  0.00  0.00    -0.002 C 
ATOM     16  C   UNL     1      36.165 -19.288 -19.861  0.00  0.00    -0.000 C 
ATOM     17  C   UNL     1      33.902 -20.135 -19.854  0.00  0.00    -0.000 C 
ATOM     18  C   UNL     1      35.804 -18.334 -20.811  0.00  0.00    +0.029 C 
ATOM     19  C   UNL     1      33.541 -19.180 -20.805  0.00  0.00    +0.029 C 
ATOM     20  C   UNL     1      34.493 -18.279 -21.283  0.00  0.00    +0.140 C 
ENDBRANCH  13  15
ENDBRANCH  10  13
ENDBRANCH   6  11
BRANCH   4  21
ATOM     21  C   UNL     1      32.561 -23.993 -13.265  0.00  0.00    +0.117 C 
ATOM     22  C   UNL     1      32.689 -22.939 -12.174  0.00  0.00    +0.028 C 
ATOM     23  C   UNL     1      31.579 -25.087 -12.870  0.00  0.00    +0.028 C 
BRANCH  21  25
ATOM     24  O   UNL     1      34.628 -24.781 -11.434  0.00  0.00    -0.265 OA
ATOM     25  N   UNL     1      33.847 -24.547 -13.605  0.00  0.00    -0.293 N 
ATOM     26  C   UNL     1      34.786 -24.900 -12.646  0.00  0.00    +0.302 C 
ATOM     27  H   UNL     1      34.067 -24.681 -14.556  0.00  0.00    +0.150 HD
BRANCH  26  31
ATOM     28  O   UNL     1      37.106 -24.586 -13.421  0.00  0.00    -0.416 OA
ATOM     29  N   UNL     1      36.351 -26.692 -13.411  0.00  0.00    -0.102 NA
ATOM     30  N   UNL     1      37.655 -26.707 -13.870  0.00  0.00    -0.111 NA
ATOM     31  C   UNL     1      36.073 -25.434 -13.161  0.00  0.00    +0.304 A 
ATOM     32  C   UNL     1      38.055 -25.458 -13.859  0.00  0.00    +0.227 A 
ATOM     33  C   UNL     1      39.351 -24.886 -14.244  0.00  0.00    +0.097 C 
ENDBRANCH  26  31
ENDBRANCH  21  25
ENDBRANCH   4  21
BRANCH   8  34
ATOM     34  O   UNL     1      30.942 -21.578 -18.075  0.00  0.00    -0.370 OA
ATOM     35  H   UNL     1      30.720 -22.110 -18.814  0.00  0.00    +0.211 HD
ENDBRANCH   8  34
TORSDOF 7
ENDMDL
MODEL 5
REMARK VINA RESULT:      -9.4     11.026     14.883
REMARK  Name = 54671008
REMARK  7 active torsions:
REMARK  status: ('A' for Active; 'I' for Inactive)
REMARK    1  A    between atoms: C_4  and  C_21
REMARK    2  A    between atoms: C_6  and  C_11
REMARK    3  A    between atoms: C_8  and  O_34
REMARK    4  A    between atoms: N_10  and  C_13
REMARK    5  A    between atoms: C_13  and  C_15
REMARK    6  A    between atoms: C_21  and  N_25
REMARK    7  A    between atoms: C_26  and  C_31
REMARK                            x       y       z     vdW  Elec       q    Type
REMARK                         _______ _______ _______ _____ _____    ______ ____
ROOT
ATOM      1  O   UNL     1      31.175  -6.268 -18.016  0.00  0.00    -0.271 OA
ATOM      2  N   UNL     1      31.283  -6.459 -20.347  0.00  0.00    -0.232 N 
ATOM      3  N   UNL     1      30.864  -8.570 -21.357  0.00  0.00    -0.386 NA
ATOM      4  C   UNL     1      31.160  -7.310 -21.443  0.00  0.00    +0.182 C 
ATOM      5  C   UNL     1      31.087  -6.933 -19.047  0.00  0.00    +0.265 C 
ATOM      6  C   UNL     1      30.662  -9.076 -20.102  0.00  0.00    +0.199 C 
ATOM      7  C   UNL     1      31.619  -5.052 -20.561  0.00  0.00    +0.122 C 
ATOM      8  C   UNL     1      30.747  -8.380 -18.960  0.00  0.00    +0.245 C 
ENDROOT
BRANCH   6  11
ATOM      9  O   UNL     1      29.211 -10.906 -20.352  0.00  0.00    -0.268 OA
ATOM     10  N   UNL     1      31.377 -11.280 -19.576  0.00  0.00    -0.295 N 
ATOM     11  C   UNL     1      30.326 -10.505 -20.030  0.00  0.00    +0.275 C 
ATOM     12  H   UNL     1      32.225 -10.834 -19.350  0.00  0.00    +0.150 HD
BRANCH  10  13
ATOM     13  C   UNL     1      31.292 -12.715 -19.419  0.00  0.00    +0.117 C 
BRANCH  13  15
ATOM     14  F   UNL     1      34.645 -15.434 -23.034  0.00  0.00    -0.204 F 
ATOM     15  C   UNL     1      32.187 -13.440 -20.383  0.00  0.00    -0.002 C 
ATOM     16  C   UNL     1      32.224 -13.055 -21.723  0.00  0.00    -0.000 C 
ATOM     17  C   UNL     1      32.980 -14.498 -19.939  0.00  0.00    -0.000 C 
ATOM     18  C   UNL     1      33.054 -13.729 -22.619  0.00  0.00    +0.029 C 
ATOM     19  C   UNL     1      33.810 -15.172 -20.834  0.00  0.00    +0.029 C 
ATOM     20  C   UNL     1      33.847 -14.787 -22.174  0.00  0.00    +0.140 C 
ENDBRANCH  13  15
ENDBRANCH  10  13
ENDBRANCH   6  11
BRANCH   4  21
ATOM     21  C   UNL     1      31.384  -6.733 -22.820  0.00  0.00    +0.117 C 
ATOM     22  C   UNL     1      30.064  -6.232 -23.389  0.00  0.00    +0.028 C 
ATOM     23  C   UNL     1      32.419  -5.619 -22.750  0.00  0.00    +0.028 C 
BRANCH  21  25
ATOM     24  O   UNL     1      34.030  -7.840 -22.702  0.00  0.00    -0.265 OA
ATOM     25  N   UNL     1      31.880  -7.857 -23.571  0.00  0.00    -0.293 N 
ATOM     26  C   UNL     1      33.182  -8.323 -23.446  0.00  0.00    +0.302 C 
ATOM     27  H   UNL     1      31.271  -8.314 -24.197  0.00  0.00    +0.150 HD
BRANCH  26  31
ATOM     28  O   UNL     1      32.644 -10.472 -24.532  0.00  0.00    -0.416 OA
ATOM     29  N   UNL     1      34.694  -9.664 -24.916  0.00  0.00    -0.102 NA
ATOM     30  N   UNL     1      34.572 -10.860 -25.597  0.00  0.00    -0.111 NA
ATOM     31  C   UNL     1      33.546  -9.477 -24.309  0.00  0.00    +0.304 A 
ATOM     32  C   UNL     1      33.360 -11.296 -25.344  0.00  0.00    +0.227 A 
ATOM     33  C   UNL     1      32.689 -12.518 -25.805  0.00  0.00    +0.097 C 
ENDBRANCH  26  31
ENDBRANCH  21  25
ENDBRANCH   4  21
BRANCH   8  34
ATOM     34  O   UNL     1      30.537  -8.927 -17.715  0.00  0.00    -0.370 OA
ATOM     35  H   UNL     1      29.670  -9.159 -17.445  0.00  0.00    +0.211 HD
ENDBRANCH   8  34
TORSDOF 7
ENDMDL
MODEL 6
REMARK VINA RESULT:      -9.4     12.833     16.151
REMARK  Name = 54671008
REMARK  7 active torsions:
REMARK  status: ('A' for Active; 'I' for Inactive)
REMARK    1  A    between atoms: C_4  and  C_21
REMARK    2  A    between atoms: C_6  and  C_11
REMARK    3  A    between atoms: C_8  and  O_34
REMARK    4  A    between atoms: N_10  and  C_13
REMARK    5  A    between atoms: C_13  and  C_15
REMARK    6  A    between atoms: C_21  and  N_25
REMARK    7  A    between atoms: C_26  and  C_31
REMARK                            x       y       z     vdW  Elec       q    Type
REMARK                         _______ _______ _______ _____ _____    ______ ____
ROOT
ATOM      1  O   UNL     1      31.151  -6.399 -18.313  0.00  0.00    -0.271 OA
ATOM      2  N   UNL     1      31.534  -6.658 -20.608  0.00  0.00    -0.232 N 
ATOM      3  N   UNL     1      31.239  -8.800 -21.596  0.00  0.00    -0.386 NA
ATOM      4  C   UNL     1      31.542  -7.542 -21.685  0.00  0.00    +0.182 C 
ATOM      5  C   UNL     1      31.187  -7.095 -19.327  0.00  0.00    +0.265 C 
ATOM      6  C   UNL     1      30.891  -9.270 -20.360  0.00  0.00    +0.199 C 
ATOM      7  C   UNL     1      31.892  -5.257 -20.823  0.00  0.00    +0.122 C 
ATOM      8  C   UNL     1      30.840  -8.539 -19.237  0.00  0.00    +0.245 C 
ENDROOT
BRANCH   6  11
ATOM      9  O   UNL     1      29.389 -11.074 -20.414  0.00  0.00    -0.268 OA
ATOM     10  N   UNL     1      31.654 -11.500 -20.061  0.00  0.00    -0.295 N 
ATOM     11  C   UNL     1      30.551 -10.698 -20.285  0.00  0.00    +0.275 C 
ATOM     12  H   UNL     1      32.535 -11.071 -19.975  0.00  0.00    +0.150 HD
BRANCH  10  13
ATOM     13  C   UNL     1      31.576 -12.939 -19.948  0.00  0.00    +0.117 C 
BRANCH  13  15
ATOM     14  F   UNL     1      34.449 -15.534 -24.037  0.00  0.00    -0.204 F 
ATOM     15  C   UNL     1      32.342 -13.631 -21.038  0.00  0.00    -0.002 C 
ATOM     16  C   UNL     1      32.086 -13.322 -22.374  0.00  0.00    -0.000 C 
ATOM     17  C   UNL     1      33.309 -14.583 -20.716  0.00  0.00    -0.000 C 
ATOM     18  C   UNL     1      32.798 -13.965 -23.387  0.00  0.00    +0.029 C 
ATOM     19  C   UNL     1      34.021 -15.226 -21.728  0.00  0.00    +0.029 C 
ATOM     20  C   UNL     1      33.765 -14.917 -23.064  0.00  0.00    +0.140 C 
ENDBRANCH  13  15
ENDBRANCH  10  13
ENDBRANCH   6  11
BRANCH   4  21
ATOM     21  C   UNL     1      31.926  -7.006 -23.043  0.00  0.00    +0.117 C 
ATOM     22  C   UNL     1      33.324  -6.405 -22.982  0.00  0.00    +0.028 C 
ATOM     23  C   UNL     1      31.842  -8.118 -24.079  0.00  0.00    +0.028 C 
BRANCH  21  25
ATOM     24  O   UNL     1      31.736  -5.322 -25.361  0.00  0.00    -0.265 OA
ATOM     25  N   UNL     1      30.935  -5.990 -23.289  0.00  0.00    -0.293 N 
ATOM     26  C   UNL     1      30.923  -5.223 -24.446  0.00  0.00    +0.302 C 
ATOM     27  H   UNL     1      30.238  -5.835 -22.610  0.00  0.00    +0.150 HD
BRANCH  26  31
ATOM     28  O   UNL     1      28.950  -4.246 -25.558  0.00  0.00    -0.416 OA
ATOM     29  N   UNL     1      29.651  -3.201 -23.708  0.00  0.00    -0.102 NA
ATOM     30  N   UNL     1      28.549  -2.522 -24.190  0.00  0.00    -0.111 NA
ATOM     31  C   UNL     1      29.849  -4.199 -24.537  0.00  0.00    +0.304 A 
ATOM     32  C   UNL     1      28.173  -3.166 -25.270  0.00  0.00    +0.227 A 
ATOM     33  C   UNL     1      27.059  -2.890 -26.185  0.00  0.00    +0.097 C 
ENDBRANCH  26  31
ENDBRANCH  21  25
ENDBRANCH   4  21
BRANCH   8  34
ATOM     34  O   UNL     1      30.485  -9.050 -18.009  0.00  0.00    -0.370 OA
ATOM     35  H   UNL     1      30.047  -8.507 -17.384  0.00  0.00    +0.211 HD
ENDBRANCH   8  34
TORSDOF 7
ENDMDL
MODEL 7
REMARK VINA RESULT:      -9.3     13.111     16.627
REMARK  Name = 54671008
REMARK  7 active torsions:
REMARK  status: ('A' for Active; 'I' for Inactive)
REMARK    1  A    between atoms: C_4  and  C_21
REMARK    2  A    between atoms: C_6  and  C_11
REMARK    3  A    between atoms: C_8  and  O_34
REMARK    4  A    between atoms: N_10  and  C_13
REMARK    5  A    between atoms: C_13  and  C_15
REMARK    6  A    between atoms: C_21  and  N_25
REMARK    7  A    between atoms: C_26  and  C_31
REMARK                            x       y       z     vdW  Elec       q    Type
REMARK                         _______ _______ _______ _____ _____    ______ ____
ROOT
ATOM      1  O   UNL     1      30.633  -4.857 -19.537  0.00  0.00    -0.271 OA
ATOM      2  N   UNL     1      31.552  -5.885 -21.429  0.00  0.00    -0.232 N 
ATOM      3  N   UNL     1      31.906  -8.236 -21.412  0.00  0.00    -0.386 NA
ATOM      4  C   UNL     1      31.969  -7.084 -22.004  0.00  0.00    +0.182 C 
ATOM      5  C   UNL     1      31.026  -5.858 -20.135  0.00  0.00    +0.265 C 
ATOM      6  C   UNL     1      31.395  -8.256 -20.144  0.00  0.00    +0.199 C 
ATOM      7  C   UNL     1      31.668  -4.642 -22.189  0.00  0.00    +0.122 C 
ATOM      8  C   UNL     1      30.957  -7.186 -19.465  0.00  0.00    +0.245 C 
ENDROOT
BRANCH   6  11
ATOM      9  O   UNL     1      31.580  -9.696 -18.298  0.00  0.00    -0.268 OA
ATOM     10  N   UNL     1      30.981 -10.585 -20.368  0.00  0.00    -0.295 N 
ATOM     11  C   UNL     1      31.333  -9.573 -19.494  0.00  0.00    +0.275 C 
ATOM     12  H   UNL     1      30.808 -10.352 -21.309  0.00  0.00    +0.150 HD
BRANCH  10  13
ATOM     13  C   UNL     1      30.854 -11.968 -19.968  0.00  0.00    +0.117 C 
BRANCH  13  15
ATOM     14  F   UNL     1      34.571 -15.276 -22.604  0.00  0.00    -0.204 F 
ATOM     15  C   UNL     1      31.846 -12.850 -20.670  0.00  0.00    -0.002 C 
ATOM     16  C   UNL     1      32.042 -12.720 -22.045  0.00  0.00    -0.000 C 
ATOM     17  C   UNL     1      32.569 -13.800 -19.949  0.00  0.00    -0.000 C 
ATOM     18  C   UNL     1      32.963 -13.540 -22.698  0.00  0.00    +0.029 C 
ATOM     19  C   UNL     1      33.489 -14.619 -20.602  0.00  0.00    +0.029 C 
ATOM     20  C   UNL     1      33.686 -14.489 -21.977  0.00  0.00    +0.140 C 
ENDBRANCH  13  15
ENDBRANCH  10  13
ENDBRANCH   6  11
BRANCH   4  21
ATOM     21  C   UNL     1      32.529  -7.043 -23.406  0.00  0.00    +0.117 C 
ATOM     22  C   UNL     1      33.933  -6.455 -23.382  0.00  0.00    +0.028 C 
ATOM     23  C   UNL     1      32.522  -8.443 -24.004  0.00  0.00    +0.028 C 
BRANCH  21  25
ATOM     24  O   UNL     1      32.677  -6.252 -26.162  0.00  0.00    -0.265 OA
ATOM     25  N   UNL     1      31.613  -6.176 -24.102  0.00  0.00    -0.293 N 
ATOM     26  C   UNL     1      31.767  -5.849 -25.442  0.00  0.00    +0.302 C 
ATOM     27  H   UNL     1      30.848  -5.801 -23.607  0.00  0.00    +0.150 HD
BRANCH  26  31
ATOM     28  O   UNL     1      29.743  -4.457 -25.219  0.00  0.00    -0.416 OA
ATOM     29  N   UNL     1      30.706  -4.472 -27.238  0.00  0.00    -0.102 NA
ATOM     30  N   UNL     1      29.599  -3.648 -27.299  0.00  0.00    -0.111 NA
ATOM     31  C   UNL     1      30.752  -4.921 -26.006  0.00  0.00    +0.304 A 
ATOM     32  C   UNL     1      29.068  -3.669 -26.100  0.00  0.00    +0.227 A 
ATOM     33  C   UNL     1      27.877  -2.978 -25.590  0.00  0.00    +0.097 C 
ENDBRANCH  26  31
ENDBRANCH  21  25
ENDBRANCH   4  21
BRANCH   8  34
ATOM     34  O   UNL     1      30.449  -7.247 -18.188  0.00  0.00    -0.370 OA
ATOM     35  H   UNL     1      30.851  -7.804 -17.550  0.00  0.00    +0.211 HD
ENDBRANCH   8  34
TORSDOF 7
ENDMDL
MODEL 8
REMARK VINA RESULT:      -9.2      7.535     11.897
REMARK  Name = 54671008
REMARK  7 active torsions:
REMARK  status: ('A' for Active; 'I' for Inactive)
REMARK    1  A    between atoms: C_4  and  C_21
REMARK    2  A    between atoms: C_6  and  C_11
REMARK    3  A    between atoms: C_8  and  O_34
REMARK    4  A    between atoms: N_10  and  C_13
REMARK    5  A    between atoms: C_13  and  C_15
REMARK    6  A    between atoms: C_21  and  N_25
REMARK    7  A    between atoms: C_26  and  C_31
REMARK                            x       y       z     vdW  Elec       q    Type
REMARK                         _______ _______ _______ _____ _____    ______ ____
ROOT
ATOM      1  O   UNL     1      32.191 -15.704 -25.650  0.00  0.00    -0.271 OA
ATOM      2  N   UNL     1      32.574 -14.561 -23.644  0.00  0.00    -0.232 N 
ATOM      3  N   UNL     1      33.849 -15.614 -21.936  0.00  0.00    -0.386 NA
ATOM      4  C   UNL     1      33.169 -14.604 -22.385  0.00  0.00    +0.182 C 
ATOM      5  C   UNL     1      32.679 -15.641 -24.523  0.00  0.00    +0.265 C 
ATOM      6  C   UNL     1      33.980 -16.693 -22.766  0.00  0.00    +0.199 C 
ATOM      7  C   UNL     1      31.830 -13.369 -24.048  0.00  0.00    +0.122 C 
ATOM      8  C   UNL     1      33.463 -16.793 -23.999  0.00  0.00    +0.245 C 
ENDROOT
BRANCH   6  11
ATOM      9  O   UNL     1      35.176 -18.703 -22.983  0.00  0.00    -0.268 OA
ATOM     10  N   UNL     1      34.930 -17.758 -20.866  0.00  0.00    -0.295 N 
ATOM     11  C   UNL     1      34.756 -17.823 -22.236  0.00  0.00    +0.275 C 
ATOM     12  H   UNL     1      34.540 -16.996 -20.381  0.00  0.00    +0.150 HD
BRANCH  10  13
ATOM     13  C   UNL     1      35.658 -18.753 -20.112  0.00  0.00    +0.117 C 
BRANCH  13  15
ATOM     14  F   UNL     1      32.250 -22.698 -17.986  0.00  0.00    -0.204 F 
ATOM     15  C   UNL     1      34.749 -19.805 -19.545  0.00  0.00    -0.002 C 
ATOM     16  C   UNL     1      35.270 -20.815 -18.736  0.00  0.00    -0.000 C 
ATOM     17  C   UNL     1      33.383 -19.774 -19.828  0.00  0.00    -0.000 C 
ATOM     18  C   UNL     1      34.426 -21.792 -18.210  0.00  0.00    +0.029 C 
ATOM     19  C   UNL     1      32.539 -20.751 -19.302  0.00  0.00    +0.029 C 
ATOM     20  C   UNL     1      33.061 -21.760 -18.493  0.00  0.00    +0.140 C 
ENDBRANCH  13  15
ENDBRANCH  10  13
ENDBRANCH   6  11
BRANCH   4  21
ATOM     21  C   UNL     1      33.016 -13.403 -21.483  0.00  0.00    +0.117 C 
ATOM     22  C   UNL     1      31.555 -13.237 -21.091  0.00  0.00    +0.028 C 
ATOM     23  C   UNL     1      33.907 -13.562 -20.259  0.00  0.00    +0.028 C 
BRANCH  21  25
ATOM     24  O   UNL     1      31.850 -10.784 -21.634  0.00  0.00    -0.265 OA
ATOM     25  N   UNL     1      33.459 -12.311 -22.311  0.00  0.00    -0.293 N 
ATOM     26  C   UNL     1      32.829 -11.074 -22.316  0.00  0.00    +0.302 C 
ATOM     27  H   UNL     1      34.241 -12.447 -22.895  0.00  0.00    +0.150 HD
BRANCH  26  31
ATOM     28  O   UNL     1      33.139  -8.738 -23.044  0.00  0.00    -0.416 OA
ATOM     29  N   UNL     1      34.145 -10.297 -24.294  0.00  0.00    -0.102 NA
ATOM     30  N   UNL     1      34.426  -9.062 -24.845  0.00  0.00    -0.111 NA
ATOM     31  C   UNL     1      33.392 -10.060 -23.245  0.00  0.00    +0.304 A 
ATOM     32  C   UNL     1      33.819  -8.182 -24.084  0.00  0.00    +0.227 A 
ATOM     33  C   UNL     1      33.774  -6.719 -24.197  0.00  0.00    +0.097 C 
ENDBRANCH  26  31
ENDBRANCH  21  25
ENDBRANCH   4  21
BRANCH   8  34
ATOM     34  O   UNL     1      33.617 -17.899 -24.804  0.00  0.00    -0.370 OA
ATOM     35  H   UNL     1      32.865 -18.309 -25.185  0.00  0.00    +0.211 HD
ENDBRANCH   8  34
TORSDOF 7
ENDMDL
MODEL 9
REMARK VINA RESULT:      -9.0     11.689     15.421
REMARK  Name = 54671008
REMARK  7 active torsions:
REMARK  status: ('A' for Active; 'I' for Inactive)
REMARK    1  A    between atoms: C_4  and  C_21
REMARK    2  A    between atoms: C_6  and  C_11
REMARK    3  A    between atoms: C_8  and  O_34
REMARK    4  A    between atoms: N_10  and  C_13
REMARK    5  A    between atoms: C_13  and  C_15
REMARK    6  A    between atoms: C_21  and  N_25
REMARK    7  A    between atoms: C_26  and  C_31
REMARK                            x       y       z     vdW  Elec       q    Type
REMARK                         _______ _______ _______ _____ _____    ______ ____
ROOT
ATOM      1  O   UNL     1      30.922 -10.192 -20.302  0.00  0.00    -0.271 OA
ATOM      2  N   UNL     1      32.113  -8.868 -21.822  0.00  0.00    -0.232 N 
ATOM      3  N   UNL     1      33.088  -9.891 -23.733  0.00  0.00    -0.386 NA
ATOM      4  C   UNL     1      32.846  -8.844 -23.006  0.00  0.00    +0.182 C 
ATOM      5  C   UNL     1      31.579 -10.064 -21.334  0.00  0.00    +0.265 C 
ATOM      6  C   UNL     1      32.583 -11.083 -23.293  0.00  0.00    +0.199 C 
ATOM      7  C   UNL     1      31.899  -7.626 -21.081  0.00  0.00    +0.122 C 
ATOM      8  C   UNL     1      31.862 -11.258 -22.177  0.00  0.00    +0.245 C 
ENDROOT
BRANCH   6  11
ATOM      9  O   UNL     1      32.825 -12.173 -25.360  0.00  0.00    -0.268 OA
ATOM     10  N   UNL     1      33.174 -13.382 -23.397  0.00  0.00    -0.295 N 
ATOM     11  C   UNL     1      32.869 -12.254 -24.135  0.00  0.00    +0.275 C 
ATOM     12  H   UNL     1      33.175 -13.314 -22.415  0.00  0.00    +0.150 HD
BRANCH  10  13
ATOM     13  C   UNL     1      33.491 -14.659 -23.997  0.00  0.00    +0.117 C 
BRANCH  13  15
ATOM     14  F   UNL     1      34.748 -18.552 -20.129  0.00  0.00    -0.204 F 
ATOM     15  C   UNL     1      33.826 -15.697 -22.966  0.00  0.00    -0.002 C 
ATOM     16  C   UNL     1      33.860 -15.352 -21.614  0.00  0.00    -0.000 C 
ATOM     17  C   UNL     1      34.105 -17.006 -23.358  0.00  0.00    -0.000 C 
ATOM     18  C   UNL     1      34.171 -16.316 -20.657  0.00  0.00    +0.029 C 
ATOM     19  C   UNL     1      34.416 -17.970 -22.400  0.00  0.00    +0.029 C 
ATOM     20  C   UNL     1      34.450 -17.625 -21.049  0.00  0.00    +0.140 C 
ENDBRANCH  13  15
ENDBRANCH  10  13
ENDBRANCH   6  11
BRANCH   4  21
ATOM     21  C   UNL     1      33.395  -7.519 -23.477  0.00  0.00    +0.117 C 
ATOM     22  C   UNL     1      34.399  -6.988 -22.463  0.00  0.00    +0.028 C 
ATOM     23  C   UNL     1      34.026  -7.682 -24.853  0.00  0.00    +0.028 C 
BRANCH  21  25
ATOM     24  O   UNL     1      33.315  -4.736 -24.180  0.00  0.00    -0.265 OA
ATOM     25  N   UNL     1      32.225  -6.681 -23.538  0.00  0.00    -0.293 N 
ATOM     26  C   UNL     1      32.285  -5.339 -23.890  0.00  0.00    +0.302 C 
ATOM     27  H   UNL     1      31.349  -7.075 -23.322  0.00  0.00    +0.150 HD
BRANCH  26  31
ATOM     28  O   UNL     1      30.262  -4.501 -25.025  0.00  0.00    -0.416 OA
ATOM     29  N   UNL     1      30.441  -4.013 -22.849  0.00  0.00    -0.102 NA
ATOM     30  N   UNL     1      29.258  -3.469 -23.312  0.00  0.00    -0.111 NA
ATOM     31  C   UNL     1      30.993  -4.606 -23.881  0.00  0.00    +0.304 A 
ATOM     32  C   UNL     1      29.195  -3.778 -24.586  0.00  0.00    +0.227 A 
ATOM     33  C   UNL     1      28.159  -3.461 -25.577  0.00  0.00    +0.097 C 
ENDBRANCH  26  31
ENDBRANCH  21  25
ENDBRANCH   4  21
BRANCH   8  34
ATOM     34  O   UNL     1      31.371 -12.476 -21.768  0.00  0.00    -0.370 OA
ATOM     35  H   UNL     1      31.738 -12.902 -21.018  0.00  0.00    +0.211 HD
ENDBRANCH   8  34
TORSDOF 7
ENDMDL
