MODEL 1
REMARK VINA RESULT:     -12.1      0.000      0.000
REMARK  Name = 445480
REMARK  5 active torsions:
REMARK  status: ('A' for Active; 'I' for Inactive)
REMARK    1  A    between atoms: N_2  and  C_21
REMARK    2  A    between atoms: C_3  and  N_7
REMARK    3  A    between atoms: N_7  and  S_9
REMARK    4  A    between atoms: S_9  and  C_14
REMARK    5  A    between atoms: C_21  and  C_24
REMARK                            x       y       z     vdW  Elec       q    Type
REMARK                         _______ _______ _______ _____ _____    ______ ____
ROOT
ATOM      1  O   UNL     1      35.696 -20.746 -18.979  0.00  0.00    -0.273 OA
ATOM      2  N   UNL     1      34.325 -19.523 -20.446  0.00  0.00    -0.274 N 
ATOM      3  C   UNL     1      33.303 -21.144 -19.121  0.00  0.00    +0.153 C 
ATOM      4  C   UNL     1      32.251 -20.167 -19.633  0.00  0.00    +0.048 C 
ATOM      5  C   UNL     1      32.929 -19.503 -20.816  0.00  0.00    +0.096 C 
ATOM      6  C   UNL     1      34.608 -20.470 -19.463  0.00  0.00    +0.242 C 
ENDROOT
BRANCH   3   7
ATOM      7  N   UNL     1      33.206 -21.309 -17.666  0.00  0.00    -0.171 NA
ATOM      8  H   UNL     1      34.158 -21.330 -17.299  0.00  0.00    +0.149 HD
BRANCH   7   9
ATOM      9  S   UNL     1      32.398 -22.696 -17.063  0.00  0.00    +0.066 S 
ATOM     10  O   UNL     1      32.762 -23.848 -17.867  0.00  0.00    -0.152 OA
ATOM     11  O   UNL     1      31.010 -22.364 -16.809  0.00  0.00    -0.152 OA
BRANCH   9  14
ATOM     12  S   UNL     1      34.680 -22.564 -15.248  0.00  0.00    -0.066 S 
ATOM     13  N   UNL     1      33.195 -24.116 -12.004  0.00  0.00    -0.243 NA
ATOM     14  C   UNL     1      33.061 -23.024 -15.430  0.00  0.00    +0.153 C 
ATOM     15  C   UNL     1      32.508 -23.569 -14.322  0.00  0.00    +0.046 C 
ATOM     16  C   UNL     1      33.446 -23.623 -13.248  0.00  0.00    +0.089 C 
ATOM     17  C   UNL     1      34.688 -23.103 -13.615  0.00  0.00    +0.048 C 
ATOM     18  C   UNL     1      35.738 -23.072 -12.686  0.00  0.00    +0.010 C 
ATOM     19  C   UNL     1      35.488 -23.574 -11.416  0.00  0.00    +0.021 C 
ATOM     20  C   UNL     1      34.227 -24.071 -11.139  0.00  0.00    +0.099 C 
ENDBRANCH   9  14
ENDBRANCH   7   9
ENDBRANCH   3   7
BRANCH   2  21
ATOM     21  C   UNL     1      35.304 -18.716 -21.142  0.00  0.00    +0.120 C 
BRANCH  21  24
ATOM     22  N   UNL     1      32.738 -13.204 -22.329  0.00  0.00    -0.230 NA
ATOM     23  N   UNL     1      33.658 -13.895 -20.275  0.00  0.00    -0.343 N 
ATOM     24  C   UNL     1      34.626 -17.656 -21.965  0.00  0.00    -0.002 C 
ATOM     25  C   UNL     1      34.319 -16.432 -21.387  0.00  0.00    +0.000 C 
ATOM     26  C   UNL     1      34.313 -17.917 -23.291  0.00  0.00    -0.003 C 
ATOM     27  C   UNL     1      33.684 -15.437 -22.149  0.00  0.00    +0.031 C 
ATOM     28  C   UNL     1      33.360 -15.689 -23.499  0.00  0.00    +0.004 C 
ATOM     29  C   UNL     1      33.681 -16.937 -24.058  0.00  0.00    -0.000 C 
ATOM     30  C   UNL     1      33.349 -14.186 -21.629  0.00  0.00    +0.125 C 
ATOM     31  C   UNL     1      32.727 -14.685 -24.242  0.00  0.00    +0.021 C 
ATOM     32  C   UNL     1      32.443 -13.480 -23.618  0.00  0.00    +0.100 C 
ATOM     33  H   UNL     1      33.427 -13.017 -19.895  0.00  0.00    +0.144 HD
ATOM     34  H   UNL     1      34.104 -14.572 -19.716  0.00  0.00    +0.144 HD
ENDBRANCH  21  24
ENDBRANCH   2  21
TORSDOF 5
ENDMDL
MODEL 2
REMARK VINA RESULT:     -11.8      3.011     10.527
REMARK  Name = 445480
REMARK  5 active torsions:
REMARK  status: ('A' for Active; 'I' for Inactive)
REMARK    1  A    between atoms: N_2  and  C_21
REMARK    2  A    between atoms: C_3  and  N_7
REMARK    3  A    between atoms: N_7  and  S_9
REMARK    4  A    between atoms: S_9  and  C_14
REMARK    5  A    between atoms: C_21  and  C_24
REMARK                            x       y       z     vdW  Elec       q    Type
REMARK                         _______ _______ _______ _____ _____    ______ ____
ROOT
ATOM      1  O   UNL     1      35.279 -20.845 -19.506  0.00  0.00    -0.273 OA
ATOM      2  N   UNL     1      33.173 -21.599 -18.781  0.00  0.00    -0.274 N 
ATOM      3  C   UNL     1      33.262 -19.536 -19.860  0.00  0.00    +0.153 C 
ATOM      4  C   UNL     1      31.833 -20.064 -19.887  0.00  0.00    +0.048 C 
ATOM      5  C   UNL     1      31.817 -21.104 -18.782  0.00  0.00    +0.096 C 
ATOM      6  C   UNL     1      34.069 -20.721 -19.390  0.00  0.00    +0.242 C 
ENDROOT
BRANCH   3   7
ATOM      7  N   UNL     1      33.707 -19.145 -21.202  0.00  0.00    -0.171 NA
ATOM      8  H   UNL     1      34.120 -19.970 -21.638  0.00  0.00    +0.149 HD
BRANCH   7   9
ATOM      9  S   UNL     1      34.848 -17.873 -21.337  0.00  0.00    +0.066 S 
ATOM     10  O   UNL     1      36.035 -18.365 -22.010  0.00  0.00    -0.152 OA
ATOM     11  O   UNL     1      34.936 -17.178 -20.067  0.00  0.00    -0.152 OA
BRANCH   9  14
ATOM     12  S   UNL     1      33.891 -15.141 -21.712  0.00  0.00    -0.066 S 
ATOM     13  N   UNL     1      32.814 -15.192 -25.450  0.00  0.00    -0.243 NA
ATOM     14  C   UNL     1      34.145 -16.648 -22.441  0.00  0.00    +0.153 C 
ATOM     15  C   UNL     1      33.783 -16.705 -23.742  0.00  0.00    +0.046 C 
ATOM     16  C   UNL     1      33.264 -15.454 -24.192  0.00  0.00    +0.089 C 
ATOM     17  C   UNL     1      33.263 -14.496 -23.177  0.00  0.00    +0.048 C 
ATOM     18  C   UNL     1      32.788 -13.202 -23.433  0.00  0.00    +0.010 C 
ATOM     19  C   UNL     1      32.328 -12.929 -24.714  0.00  0.00    +0.021 C 
ATOM     20  C   UNL     1      32.364 -13.938 -25.659  0.00  0.00    +0.099 C 
ENDBRANCH   9  14
ENDBRANCH   7   9
ENDBRANCH   3   7
BRANCH   2  21
ATOM     21  C   UNL     1      33.532 -22.822 -18.094  0.00  0.00    +0.120 C 
BRANCH  21  24
ATOM     22  N   UNL     1      29.031 -22.754 -13.838  0.00  0.00    -0.230 NA
ATOM     23  N   UNL     1      28.738 -22.647 -16.171  0.00  0.00    -0.343 N 
ATOM     24  C   UNL     1      32.934 -22.846 -16.715  0.00  0.00    -0.002 C 
ATOM     25  C   UNL     1      31.556 -22.780 -16.564  0.00  0.00    +0.000 C 
ATOM     26  C   UNL     1      33.768 -22.933 -15.610  0.00  0.00    -0.003 C 
ATOM     27  C   UNL     1      30.990 -22.801 -15.278  0.00  0.00    +0.031 C 
ATOM     28  C   UNL     1      31.827 -22.889 -14.146  0.00  0.00    +0.004 C 
ATOM     29  C   UNL     1      33.218 -22.955 -14.328  0.00  0.00    -0.000 C 
ATOM     30  C   UNL     1      29.613 -22.737 -15.058  0.00  0.00    +0.125 C 
ATOM     31  C   UNL     1      31.244 -22.908 -12.873  0.00  0.00    +0.021 C 
ATOM     32  C   UNL     1      29.863 -22.840 -12.778  0.00  0.00    +0.100 C 
ATOM     33  H   UNL     1      27.765 -22.601 -16.031  0.00  0.00    +0.144 HD
ATOM     34  H   UNL     1      29.105 -22.631 -17.085  0.00  0.00    +0.144 HD
ENDBRANCH  21  24
ENDBRANCH   2  21
TORSDOF 5
ENDMDL
MODEL 3
REMARK VINA RESULT:     -11.6      2.924     10.754
REMARK  Name = 445480
REMARK  5 active torsions:
REMARK  status: ('A' for Active; 'I' for Inactive)
REMARK    1  A    between atoms: N_2  and  C_21
REMARK    2  A    between atoms: C_3  and  N_7
REMARK    3  A    between atoms: N_7  and  S_9
REMARK    4  A    between atoms: S_9  and  C_14
REMARK    5  A    between atoms: C_21  and  C_24
REMARK                            x       y       z     vdW  Elec       q    Type
REMARK                         _______ _______ _______ _____ _____    ______ ____
ROOT
ATOM      1  O   UNL     1      35.364 -20.424 -19.159  0.00  0.00    -0.273 OA
ATOM      2  N   UNL     1      33.295 -21.377 -18.575  0.00  0.00    -0.274 N 
ATOM      3  C   UNL     1      33.261 -19.490 -19.941  0.00  0.00    +0.153 C 
ATOM      4  C   UNL     1      31.930 -20.223 -20.052  0.00  0.00    +0.048 C 
ATOM      5  C   UNL     1      31.898 -21.093 -18.810  0.00  0.00    +0.096 C 
ATOM      6  C   UNL     1      34.143 -20.467 -19.205  0.00  0.00    +0.242 C 
ENDROOT
BRANCH   3   7
ATOM      7  N   UNL     1      33.830 -19.223 -21.267  0.00  0.00    -0.171 NA
ATOM      8  H   UNL     1      34.304 -20.074 -21.571  0.00  0.00    +0.149 HD
BRANCH   7   9
ATOM      9  S   UNL     1      34.948 -17.933 -21.422  0.00  0.00    +0.066 S 
ATOM     10  O   UNL     1      36.124 -18.402 -22.130  0.00  0.00    -0.152 OA
ATOM     11  O   UNL     1      35.059 -17.246 -20.150  0.00  0.00    -0.152 OA
BRANCH   9  14
ATOM     12  S   UNL     1      33.935 -15.215 -21.749  0.00  0.00    -0.066 S 
ATOM     13  N   UNL     1      32.773 -15.252 -25.462  0.00  0.00    -0.243 NA
ATOM     14  C   UNL     1      34.199 -16.711 -22.498  0.00  0.00    +0.153 C 
ATOM     15  C   UNL     1      33.807 -16.763 -23.791  0.00  0.00    +0.046 C 
ATOM     16  C   UNL     1      33.256 -15.518 -24.217  0.00  0.00    +0.089 C 
ATOM     17  C   UNL     1      33.262 -14.569 -23.193  0.00  0.00    +0.048 C 
ATOM     18  C   UNL     1      32.758 -13.281 -23.427  0.00  0.00    +0.010 C 
ATOM     19  C   UNL     1      32.264 -13.004 -24.694  0.00  0.00    +0.021 C 
ATOM     20  C   UNL     1      32.296 -14.004 -25.649  0.00  0.00    +0.099 C 
ENDBRANCH   9  14
ENDBRANCH   7   9
ENDBRANCH   3   7
BRANCH   2  21
ATOM     21  C   UNL     1      33.713 -22.428 -17.672  0.00  0.00    +0.120 C 
BRANCH  21  24
ATOM     22  N   UNL     1      31.435 -24.357 -12.244  0.00  0.00    -0.230 NA
ATOM     23  N   UNL     1      33.671 -24.544 -12.958  0.00  0.00    -0.343 N 
ATOM     24  C   UNL     1      32.667 -22.663 -16.618  0.00  0.00    -0.002 C 
ATOM     25  C   UNL     1      33.022 -23.282 -15.427  0.00  0.00    +0.000 C 
ATOM     26  C   UNL     1      31.360 -22.261 -16.849  0.00  0.00    -0.003 C 
ATOM     27  C   UNL     1      32.050 -23.507 -14.438  0.00  0.00    +0.031 C 
ATOM     28  C   UNL     1      30.717 -23.103 -14.660  0.00  0.00    +0.004 C 
ATOM     29  C   UNL     1      30.386 -22.480 -15.875  0.00  0.00    -0.000 C 
ATOM     30  C   UNL     1      32.341 -24.123 -13.220  0.00  0.00    +0.125 C 
ATOM     31  C   UNL     1      29.763 -23.336 -13.662  0.00  0.00    +0.021 C 
ATOM     32  C   UNL     1      30.170 -23.957 -12.492  0.00  0.00    +0.100 C 
ATOM     33  H   UNL     1      33.890 -24.981 -12.104  0.00  0.00    +0.144 HD
ATOM     34  H   UNL     1      34.374 -24.400 -13.632  0.00  0.00    +0.144 HD
ENDBRANCH  21  24
ENDBRANCH   2  21
TORSDOF 5
ENDMDL
MODEL 4
REMARK VINA RESULT:     -11.3      1.295      2.085
REMARK  Name = 445480
REMARK  5 active torsions:
REMARK  status: ('A' for Active; 'I' for Inactive)
REMARK    1  A    between atoms: N_2  and  C_21
REMARK    2  A    between atoms: C_3  and  N_7
REMARK    3  A    between atoms: N_7  and  S_9
REMARK    4  A    between atoms: S_9  and  C_14
REMARK    5  A    between atoms: C_21  and  C_24
REMARK                            x       y       z     vdW  Elec       q    Type
REMARK                         _______ _______ _______ _____ _____    ______ ____
ROOT
ATOM      1  O   UNL     1      35.951 -19.804 -19.465  0.00  0.00    -0.273 OA
ATOM      2  N   UNL     1      34.323 -18.968 -20.942  0.00  0.00    -0.274 N 
ATOM      3  C   UNL     1      33.740 -20.801 -19.627  0.00  0.00    +0.153 C 
ATOM      4  C   UNL     1      32.477 -20.124 -20.146  0.00  0.00    +0.048 C 
ATOM      5  C   UNL     1      32.971 -19.304 -21.323  0.00  0.00    +0.096 C 
ATOM      6  C   UNL     1      34.832 -19.814 -19.958  0.00  0.00    +0.242 C 
ENDROOT
BRANCH   3   7
ATOM      7  N   UNL     1      33.679 -20.990 -18.173  0.00  0.00    -0.171 NA
ATOM      8  H   UNL     1      34.636 -21.108 -17.841  0.00  0.00    +0.149 HD
BRANCH   7   9
ATOM      9  S   UNL     1      32.765 -22.309 -17.569  0.00  0.00    +0.066 S 
ATOM     10  O   UNL     1      33.039 -23.488 -18.370  0.00  0.00    -0.152 OA
ATOM     11  O   UNL     1      31.407 -21.870 -17.316  0.00  0.00    -0.152 OA
BRANCH   9  14
ATOM     12  S   UNL     1      32.239 -23.340 -14.888  0.00  0.00    -0.066 S 
ATOM     13  N   UNL     1      35.729 -22.978 -13.208  0.00  0.00    -0.243 NA
ATOM     14  C   UNL     1      33.400 -22.686 -15.935  0.00  0.00    +0.153 C 
ATOM     15  C   UNL     1      34.627 -22.544 -15.386  0.00  0.00    +0.046 C 
ATOM     16  C   UNL     1      34.644 -22.990 -14.031  0.00  0.00    +0.089 C 
ATOM     17  C   UNL     1      33.394 -23.456 -13.620  0.00  0.00    +0.048 C 
ATOM     18  C   UNL     1      33.218 -23.938 -12.315  0.00  0.00    +0.010 C 
ATOM     19  C   UNL     1      34.321 -23.927 -11.472  0.00  0.00    +0.021 C 
ATOM     20  C   UNL     1      35.522 -23.447 -11.961  0.00  0.00    +0.099 C 
ENDBRANCH   9  14
ENDBRANCH   7   9
ENDBRANCH   3   7
BRANCH   2  21
ATOM     21  C   UNL     1      35.068 -17.935 -21.629  0.00  0.00    +0.120 C 
BRANCH  21  24
ATOM     22  N   UNL     1      32.278 -12.745 -23.540  0.00  0.00    -0.230 NA
ATOM     23  N   UNL     1      33.117 -14.460 -24.918  0.00  0.00    -0.343 N 
ATOM     24  C   UNL     1      34.378 -16.607 -21.491  0.00  0.00    -0.002 C 
ATOM     25  C   UNL     1      33.974 -15.923 -22.630  0.00  0.00    +0.000 C 
ATOM     26  C   UNL     1      34.154 -16.079 -20.228  0.00  0.00    -0.003 C 
ATOM     27  C   UNL     1      33.330 -14.680 -22.510  0.00  0.00    +0.031 C 
ATOM     28  C   UNL     1      33.097 -14.133 -21.231  0.00  0.00    +0.004 C 
ATOM     29  C   UNL     1      33.516 -14.846 -20.096  0.00  0.00    -0.000 C 
ATOM     30  C   UNL     1      32.900 -13.943 -23.614  0.00  0.00    +0.125 C 
ATOM     31  C   UNL     1      32.454 -12.893 -21.132  0.00  0.00    +0.021 C 
ATOM     32  C   UNL     1      32.071 -12.252 -22.300  0.00  0.00    +0.100 C 
ATOM     33  H   UNL     1      32.819 -13.950 -25.706  0.00  0.00    +0.144 HD
ATOM     34  H   UNL     1      33.566 -15.329 -25.034  0.00  0.00    +0.144 HD
ENDBRANCH  21  24
ENDBRANCH   2  21
TORSDOF 5
ENDMDL
MODEL 5
REMARK VINA RESULT:     -11.3      5.646     11.720
REMARK  Name = 445480
REMARK  5 active torsions:
REMARK  status: ('A' for Active; 'I' for Inactive)
REMARK    1  A    between atoms: N_2  and  C_21
REMARK    2  A    between atoms: C_3  and  N_7
REMARK    3  A    between atoms: N_7  and  S_9
REMARK    4  A    between atoms: S_9  and  C_14
REMARK    5  A    between atoms: C_21  and  C_24
REMARK                            x       y       z     vdW  Elec       q    Type
REMARK                         _______ _______ _______ _____ _____    ______ ____
ROOT
ATOM      1  O   UNL     1      32.426 -14.156 -23.599  0.00  0.00    -0.273 OA
ATOM      2  N   UNL     1      33.534 -15.340 -21.896  0.00  0.00    -0.274 N 
ATOM      3  C   UNL     1      32.601 -13.278 -21.339  0.00  0.00    +0.153 C 
ATOM      4  C   UNL     1      32.846 -14.086 -20.070  0.00  0.00    +0.048 C 
ATOM      5  C   UNL     1      33.857 -15.131 -20.503  0.00  0.00    +0.096 C 
ATOM      6  C   UNL     1      32.806 -14.284 -22.445  0.00  0.00    +0.242 C 
ENDROOT
BRANCH   3   7
ATOM      7  N   UNL     1      31.223 -12.776 -21.388  0.00  0.00    -0.171 NA
ATOM      8  H   UNL     1      30.993 -12.616 -22.369  0.00  0.00    +0.149 HD
BRANCH   7   9
ATOM      9  S   UNL     1      30.860 -11.332 -20.537  0.00  0.00    +0.066 S 
ATOM     10  O   UNL     1      31.535 -11.351 -19.253  0.00  0.00    -0.152 OA
ATOM     11  O   UNL     1      29.438 -11.067 -20.637  0.00  0.00    -0.152 OA
BRANCH   9  14
ATOM     12  S   UNL     1      31.413  -8.470 -20.707  0.00  0.00    -0.066 S 
ATOM     13  N   UNL     1      33.399  -8.250 -24.045  0.00  0.00    -0.243 NA
ATOM     14  C   UNL     1      31.607  -9.981 -21.449  0.00  0.00    +0.153 C 
ATOM     15  C   UNL     1      32.293  -9.945 -22.613  0.00  0.00    +0.046 C 
ATOM     16  C   UNL     1      32.694  -8.615 -22.939  0.00  0.00    +0.089 C 
ATOM     17  C   UNL     1      32.277  -7.695 -21.976  0.00  0.00    +0.048 C 
ATOM     18  C   UNL     1      32.581  -6.334 -22.126  0.00  0.00    +0.010 C 
ATOM     19  C   UNL     1      33.299  -5.957 -23.252  0.00  0.00    +0.021 C 
ATOM     20  C   UNL     1      33.672  -6.935 -24.156  0.00  0.00    +0.099 C 
ENDBRANCH   9  14
ENDBRANCH   7   9
ENDBRANCH   3   7
BRANCH   2  21
ATOM     21  C   UNL     1      34.045 -16.478 -22.629  0.00  0.00    +0.120 C 
BRANCH  21  24
ATOM     22  N   UNL     1      33.128 -21.289 -18.835  0.00  0.00    -0.230 NA
ATOM     23  N   UNL     1      31.462 -20.102 -20.002  0.00  0.00    -0.343 N 
ATOM     24  C   UNL     1      34.424 -17.586 -21.685  0.00  0.00    -0.002 C 
ATOM     25  C   UNL     1      33.434 -18.397 -21.147  0.00  0.00    +0.000 C 
ATOM     26  C   UNL     1      35.758 -17.782 -21.363  0.00  0.00    -0.003 C 
ATOM     27  C   UNL     1      33.780 -19.432 -20.264  0.00  0.00    +0.031 C 
ATOM     28  C   UNL     1      35.134 -19.643 -19.927  0.00  0.00    +0.004 C 
ATOM     29  C   UNL     1      36.115 -18.807 -20.486  0.00  0.00    -0.000 C 
ATOM     30  C   UNL     1      32.834 -20.282 -19.688  0.00  0.00    +0.125 C 
ATOM     31  C   UNL     1      35.459 -20.680 -19.045  0.00  0.00    +0.021 C 
ATOM     32  C   UNL     1      34.433 -21.461 -18.536  0.00  0.00    +0.100 C 
ATOM     33  H   UNL     1      30.784 -20.694 -19.603  0.00  0.00    +0.144 HD
ATOM     34  H   UNL     1      31.189 -19.385 -20.618  0.00  0.00    +0.144 HD
ENDBRANCH  21  24
ENDBRANCH   2  21
TORSDOF 5
ENDMDL
MODEL 6
REMARK VINA RESULT:     -11.2      6.029     11.839
REMARK  Name = 445480
REMARK  5 active torsions:
REMARK  status: ('A' for Active; 'I' for Inactive)
REMARK    1  A    between atoms: N_2  and  C_21
REMARK    2  A    between atoms: C_3  and  N_7
REMARK    3  A    between atoms: N_7  and  S_9
REMARK    4  A    between atoms: S_9  and  C_14
REMARK    5  A    between atoms: C_21  and  C_24
REMARK                            x       y       z     vdW  Elec       q    Type
REMARK                         _______ _______ _______ _____ _____    ______ ____
ROOT
ATOM      1  O   UNL     1      33.285 -14.747 -24.708  0.00  0.00    -0.273 OA
ATOM      2  N   UNL     1      33.716 -15.861 -22.682  0.00  0.00    -0.274 N 
ATOM      3  C   UNL     1      33.619 -13.533 -22.629  0.00  0.00    +0.153 C 
ATOM      4  C   UNL     1      33.436 -14.083 -21.220  0.00  0.00    +0.048 C 
ATOM      5  C   UNL     1      33.990 -15.492 -21.312  0.00  0.00    +0.096 C 
ATOM      6  C   UNL     1      33.499 -14.756 -23.505  0.00  0.00    +0.242 C 
ENDROOT
BRANCH   3   7
ATOM      7  N   UNL     1      32.554 -12.584 -22.969  0.00  0.00    -0.171 NA
ATOM      8  H   UNL     1      31.848 -13.096 -23.499  0.00  0.00    +0.149 HD
BRANCH   7   9
ATOM      9  S   UNL     1      32.970 -11.196 -23.885  0.00  0.00    +0.066 S 
ATOM     10  O   UNL     1      32.159 -11.156 -25.087  0.00  0.00    -0.152 OA
ATOM     11  O   UNL     1      34.414 -11.084 -23.946  0.00  0.00    -0.152 OA
BRANCH   9  14
ATOM     12  S   UNL     1      33.171  -8.315 -23.461  0.00  0.00    -0.066 S 
ATOM     13  N   UNL     1      30.829  -7.806 -20.397  0.00  0.00    -0.243 NA
ATOM     14  C   UNL     1      32.476  -9.764 -22.927  0.00  0.00    +0.153 C 
ATOM     15  C   UNL     1      31.654  -9.627 -21.861  0.00  0.00    +0.046 C 
ATOM     16  C   UNL     1      31.573  -8.267 -21.440  0.00  0.00    +0.089 C 
ATOM     17  C   UNL     1      32.360  -7.429 -22.232  0.00  0.00    +0.048 C 
ATOM     18  C   UNL     1      32.405  -6.052 -21.967  0.00  0.00    +0.010 C 
ATOM     19  C   UNL     1      31.649  -5.577 -20.904  0.00  0.00    +0.021 C 
ATOM     20  C   UNL     1      30.898  -6.478 -20.172  0.00  0.00    +0.099 C 
ENDBRANCH   9  14
ENDBRANCH   7   9
ENDBRANCH   3   7
BRANCH   2  21
ATOM     21  C   UNL     1      33.797 -17.236 -23.127  0.00  0.00    +0.120 C 
BRANCH  21  24
ATOM     22  N   UNL     1      33.331 -21.315 -18.488  0.00  0.00    -0.230 NA
ATOM     23  N   UNL     1      31.554 -20.478 -19.786  0.00  0.00    -0.343 N 
ATOM     24  C   UNL     1      34.280 -18.123 -22.013  0.00  0.00    -0.002 C 
ATOM     25  C   UNL     1      33.366 -18.885 -21.298  0.00  0.00    +0.000 C 
ATOM     26  C   UNL     1      35.633 -18.166 -21.712  0.00  0.00    -0.003 C 
ATOM     27  C   UNL     1      33.809 -19.714 -20.255  0.00  0.00    +0.031 C 
ATOM     28  C   UNL     1      35.183 -19.769 -19.938  0.00  0.00    +0.004 C 
ATOM     29  C   UNL     1      36.086 -18.986 -20.678  0.00  0.00    -0.000 C 
ATOM     30  C   UNL     1      32.943 -20.505 -19.499  0.00  0.00    +0.125 C 
ATOM     31  C   UNL     1      35.606 -20.601 -18.895  0.00  0.00    +0.021 C 
ATOM     32  C   UNL     1      34.653 -21.342 -18.214  0.00  0.00    +0.100 C 
ATOM     33  H   UNL     1      30.931 -21.030 -19.260  0.00  0.00    +0.144 HD
ATOM     34  H   UNL     1      31.213 -19.906 -20.512  0.00  0.00    +0.144 HD
ENDBRANCH  21  24
ENDBRANCH   2  21
TORSDOF 5
ENDMDL
MODEL 7
REMARK VINA RESULT:     -10.8      4.726     10.472
REMARK  Name = 445480
REMARK  5 active torsions:
REMARK  status: ('A' for Active; 'I' for Inactive)
REMARK    1  A    between atoms: N_2  and  C_21
REMARK    2  A    between atoms: C_3  and  N_7
REMARK    3  A    between atoms: N_7  and  S_9
REMARK    4  A    between atoms: S_9  and  C_14
REMARK    5  A    between atoms: C_21  and  C_24
REMARK                            x       y       z     vdW  Elec       q    Type
REMARK                         _______ _______ _______ _____ _____    ______ ____
ROOT
ATOM      1  O   UNL     1      34.427 -15.978 -20.385  0.00  0.00    -0.273 OA
ATOM      2  N   UNL     1      34.749 -17.494 -22.154  0.00  0.00    -0.274 N 
ATOM      3  C   UNL     1      33.500 -15.577 -22.596  0.00  0.00    +0.153 C 
ATOM      4  C   UNL     1      33.992 -16.179 -23.907  0.00  0.00    +0.048 C 
ATOM      5  C   UNL     1      34.340 -17.608 -23.534  0.00  0.00    +0.096 C 
ATOM      6  C   UNL     1      34.280 -16.330 -21.546  0.00  0.00    +0.242 C 
ENDROOT
BRANCH   3   7
ATOM      7  N   UNL     1      33.825 -14.149 -22.515  0.00  0.00    -0.171 NA
ATOM      8  H   UNL     1      33.793 -13.886 -21.530  0.00  0.00    +0.149 HD
BRANCH   7   9
ATOM      9  S   UNL     1      32.832 -13.045 -23.371  0.00  0.00    +0.066 S 
ATOM     10  O   UNL     1      31.669 -13.745 -23.883  0.00  0.00    -0.152 OA
ATOM     11  O   UNL     1      33.663 -12.232 -24.237  0.00  0.00    -0.152 OA
BRANCH   9  14
ATOM     12  S   UNL     1      31.664 -12.590 -20.735  0.00  0.00    -0.066 S 
ATOM     13  N   UNL     1      31.228  -8.724 -20.725  0.00  0.00    -0.243 NA
ATOM     14  C   UNL     1      32.194 -11.872 -22.174  0.00  0.00    +0.153 C 
ATOM     15  C   UNL     1      32.058 -10.527 -22.209  0.00  0.00    +0.046 C 
ATOM     16  C   UNL     1      31.490 -10.032 -20.998  0.00  0.00    +0.089 C 
ATOM     17  C   UNL     1      31.220 -11.058 -20.091  0.00  0.00    +0.048 C 
ATOM     18  C   UNL     1      30.658 -10.762 -18.841  0.00  0.00    +0.010 C 
ATOM     19  C   UNL     1      30.389  -9.429 -18.558  0.00  0.00    +0.021 C 
ATOM     20  C   UNL     1      30.688  -8.476 -19.515  0.00  0.00    +0.099 C 
ENDBRANCH   9  14
ENDBRANCH   7   9
ENDBRANCH   3   7
BRANCH   2  21
ATOM     21  C   UNL     1      35.459 -18.562 -21.484  0.00  0.00    +0.120 C 
BRANCH  21  24
ATOM     22  N   UNL     1      33.795 -22.382 -16.899  0.00  0.00    -0.230 NA
ATOM     23  N   UNL     1      35.988 -21.689 -17.404  0.00  0.00    -0.343 N 
ATOM     24  C   UNL     1      34.520 -19.362 -20.624  0.00  0.00    -0.002 C 
ATOM     25  C   UNL     1      35.027 -20.116 -19.574  0.00  0.00    +0.000 C 
ATOM     26  C   UNL     1      33.159 -19.337 -20.891  0.00  0.00    -0.003 C 
ATOM     27  C   UNL     1      34.156 -20.867 -18.768  0.00  0.00    +0.031 C 
ATOM     28  C   UNL     1      32.769 -20.851 -19.028  0.00  0.00    +0.004 C 
ATOM     29  C   UNL     1      32.284 -20.079 -20.097  0.00  0.00    -0.000 C 
ATOM     30  C   UNL     1      34.600 -21.646 -17.698  0.00  0.00    +0.125 C 
ATOM     31  C   UNL     1      31.918 -21.606 -18.213  0.00  0.00    +0.021 C 
ATOM     32  C   UNL     1      32.474 -22.341 -17.179  0.00  0.00    +0.100 C 
ATOM     33  H   UNL     1      36.315 -22.234 -16.653  0.00  0.00    +0.144 HD
ATOM     34  H   UNL     1      36.623 -21.173 -17.952  0.00  0.00    +0.144 HD
ENDBRANCH  21  24
ENDBRANCH   2  21
TORSDOF 5
ENDMDL
MODEL 8
REMARK VINA RESULT:     -10.7      2.573     10.627
REMARK  Name = 445480
REMARK  5 active torsions:
REMARK  status: ('A' for Active; 'I' for Inactive)
REMARK    1  A    between atoms: N_2  and  C_21
REMARK    2  A    between atoms: C_3  and  N_7
REMARK    3  A    between atoms: N_7  and  S_9
REMARK    4  A    between atoms: S_9  and  C_14
REMARK    5  A    between atoms: C_21  and  C_24
REMARK                            x       y       z     vdW  Elec       q    Type
REMARK                         _______ _______ _______ _____ _____    ______ ____
ROOT
ATOM      1  O   UNL     1      35.087 -21.480 -19.431  0.00  0.00    -0.273 OA
ATOM      2  N   UNL     1      32.894 -21.744 -18.625  0.00  0.00    -0.274 N 
ATOM      3  C   UNL     1      33.418 -19.730 -19.673  0.00  0.00    +0.153 C 
ATOM      4  C   UNL     1      31.905 -19.911 -19.645  0.00  0.00    +0.048 C 
ATOM      5  C   UNL     1      31.691 -20.947 -18.558  0.00  0.00    +0.096 C 
ATOM      6  C   UNL     1      33.945 -21.082 -19.259  0.00  0.00    +0.242 C 
ENDROOT
BRANCH   3   7
ATOM      7  N   UNL     1      33.888 -19.418 -21.028  0.00  0.00    -0.171 NA
ATOM      8  H   UNL     1      34.318 -20.264 -21.402  0.00  0.00    +0.149 HD
BRANCH   7   9
ATOM      9  S   UNL     1      35.021 -18.144 -21.216  0.00  0.00    +0.066 S 
ATOM     10  O   UNL     1      36.178 -18.637 -21.940  0.00  0.00    -0.152 OA
ATOM     11  O   UNL     1      35.164 -17.446 -19.953  0.00  0.00    -0.152 OA
BRANCH   9  14
ATOM     12  S   UNL     1      33.971 -15.439 -21.532  0.00  0.00    -0.066 S 
ATOM     13  N   UNL     1      32.863 -15.457 -25.261  0.00  0.00    -0.243 NA
ATOM     14  C   UNL     1      34.268 -16.923 -22.291  0.00  0.00    +0.153 C 
ATOM     15  C   UNL     1      33.896 -16.969 -23.591  0.00  0.00    +0.046 C 
ATOM     16  C   UNL     1      33.332 -15.728 -24.012  0.00  0.00    +0.089 C 
ATOM     17  C   UNL     1      33.308 -14.789 -22.979  0.00  0.00    +0.048 C 
ATOM     18  C   UNL     1      32.788 -13.507 -23.207  0.00  0.00    +0.010 C 
ATOM     19  C   UNL     1      32.308 -13.225 -24.479  0.00  0.00    +0.021 C 
ATOM     20  C   UNL     1      32.370 -14.215 -25.443  0.00  0.00    +0.099 C 
ENDBRANCH   9  14
ENDBRANCH   7   9
ENDBRANCH   3   7
BRANCH   2  21
ATOM     21  C   UNL     1      32.985 -23.033 -17.975  0.00  0.00    +0.120 C 
BRANCH  21  24
ATOM     22  N   UNL     1      33.696 -23.861 -11.877  0.00  0.00    -0.230 NA
ATOM     23  N   UNL     1      31.934 -24.696 -13.197  0.00  0.00    -0.343 N 
ATOM     24  C   UNL     1      33.644 -22.901 -16.631  0.00  0.00    -0.002 C 
ATOM     25  C   UNL     1      33.063 -23.499 -15.521  0.00  0.00    +0.000 C 
ATOM     26  C   UNL     1      34.824 -22.181 -16.516  0.00  0.00    -0.003 C 
ATOM     27  C   UNL     1      33.672 -23.378 -14.261  0.00  0.00    +0.031 C 
ATOM     28  C   UNL     1      34.873 -22.648 -14.130  0.00  0.00    +0.004 C 
ATOM     29  C   UNL     1      35.438 -22.053 -15.270  0.00  0.00    -0.000 C 
ATOM     30  C   UNL     1      33.140 -23.954 -13.106  0.00  0.00    +0.125 C 
ATOM     31  C   UNL     1      35.464 -22.539 -12.866  0.00  0.00    +0.021 C 
ATOM     32  C   UNL     1      34.844 -23.155 -11.790  0.00  0.00    +0.100 C 
ATOM     33  H   UNL     1      31.547 -25.107 -12.390  0.00  0.00    +0.144 HD
ATOM     34  H   UNL     1      31.484 -24.798 -14.066  0.00  0.00    +0.144 HD
ENDBRANCH  21  24
ENDBRANCH   2  21
TORSDOF 5
ENDMDL
MODEL 9
REMARK VINA RESULT:     -10.7      2.007      2.439
REMARK  Name = 445480
REMARK  5 active torsions:
REMARK  status: ('A' for Active; 'I' for Inactive)
REMARK    1  A    between atoms: N_2  and  C_21
REMARK    2  A    between atoms: C_3  and  N_7
REMARK    3  A    between atoms: N_7  and  S_9
REMARK    4  A    between atoms: S_9  and  C_14
REMARK    5  A    between atoms: C_21  and  C_24
REMARK                            x       y       z     vdW  Elec       q    Type
REMARK                         _______ _______ _______ _____ _____    ______ ____
ROOT
ATOM      1  O   UNL     1      35.733 -19.836 -19.467  0.00  0.00    -0.273 OA
ATOM      2  N   UNL     1      34.378 -18.812 -21.094  0.00  0.00    -0.274 N 
ATOM      3  C   UNL     1      33.464 -20.592 -19.899  0.00  0.00    +0.153 C 
ATOM      4  C   UNL     1      32.345 -19.780 -20.539  0.00  0.00    +0.048 C 
ATOM      5  C   UNL     1      33.050 -19.000 -21.632  0.00  0.00    +0.096 C 
ATOM      6  C   UNL     1      34.682 -19.721 -20.081  0.00  0.00    +0.242 C 
ENDROOT
BRANCH   3   7
ATOM      7  N   UNL     1      33.219 -20.794 -18.467  0.00  0.00    -0.171 NA
ATOM      8  H   UNL     1      33.750 -20.082 -17.965  0.00  0.00    +0.149 HD
BRANCH   7   9
ATOM      9  S   UNL     1      33.629 -22.312 -17.784  0.00  0.00    +0.066 S 
ATOM     10  O   UNL     1      34.918 -22.207 -17.125  0.00  0.00    -0.152 OA
ATOM     11  O   UNL     1      33.363 -23.357 -18.753  0.00  0.00    -0.152 OA
BRANCH   9  14
ATOM     12  S   UNL     1      33.152 -23.257 -15.063  0.00  0.00    -0.066 S 
ATOM     13  N   UNL     1      29.295 -22.849 -14.756  0.00  0.00    -0.243 NA
ATOM     14  C   UNL     1      32.449 -22.638 -16.475  0.00  0.00    +0.153 C 
ATOM     15  C   UNL     1      31.108 -22.482 -16.407  0.00  0.00    +0.046 C 
ATOM     16  C   UNL     1      30.602 -22.886 -15.134  0.00  0.00    +0.089 C 
ATOM     17  C   UNL     1      31.618 -23.337 -14.290  0.00  0.00    +0.048 C 
ATOM     18  C   UNL     1      31.311 -23.775 -12.994  0.00  0.00    +0.010 C 
ATOM     19  C   UNL     1      29.979 -23.741 -12.603  0.00  0.00    +0.021 C 
ATOM     20  C   UNL     1      29.037 -23.279 -13.504  0.00  0.00    +0.099 C 
ENDBRANCH   9  14
ENDBRANCH   7   9
ENDBRANCH   3   7
BRANCH   2  21
ATOM     21  C   UNL     1      35.298 -17.854 -21.667  0.00  0.00    +0.120 C 
BRANCH  21  24
ATOM     22  N   UNL     1      32.164 -12.511 -21.777  0.00  0.00    -0.230 NA
ATOM     23  N   UNL     1      33.036 -13.573 -19.864  0.00  0.00    -0.343 N 
ATOM     24  C   UNL     1      34.548 -16.705 -22.281  0.00  0.00    -0.002 C 
ATOM     25  C   UNL     1      34.063 -15.691 -21.466  0.00  0.00    +0.000 C 
ATOM     26  C   UNL     1      34.349 -16.673 -23.653  0.00  0.00    -0.003 C 
ATOM     27  C   UNL     1      33.359 -14.614 -22.032  0.00  0.00    +0.031 C 
ATOM     28  C   UNL     1      33.150 -14.569 -23.427  0.00  0.00    +0.004 C 
ATOM     29  C   UNL     1      33.652 -15.609 -24.227  0.00  0.00    -0.000 C 
ATOM     30  C   UNL     1      32.846 -13.564 -21.270  0.00  0.00    +0.125 C 
ATOM     31  C   UNL     1      32.447 -13.488 -23.971  0.00  0.00    +0.021 C 
ATOM     32  C   UNL     1      31.984 -12.502 -23.114  0.00  0.00    +0.100 C 
ATOM     33  H   UNL     1      32.678 -12.839 -19.314  0.00  0.00    +0.144 HD
ATOM     34  H   UNL     1      33.525 -14.314 -19.438  0.00  0.00    +0.144 HD
ENDBRANCH  21  24
ENDBRANCH   2  21
TORSDOF 5
ENDMDL
