MODEL 1
REMARK VINA RESULT:     -12.3      0.000      0.000
REMARK  Name = 44129603
REMARK  3 active torsions:
REMARK  status: ('A' for Active; 'I' for Inactive)
REMARK    1  A    between atoms: N_5  and  C_17
REMARK    2  A    between atoms: C_12  and  C_24
REMARK    3  A    between atoms: C_24  and  O_25
REMARK                            x       y       z     vdW  Elec       q    Type
REMARK                         _______ _______ _______ _____ _____    ______ ____
ROOT
ATOM      1  N   UNL     1      35.777 -22.656 -14.365  0.00  0.00    -0.246 N 
ATOM      2  N   UNL     1      36.748 -22.756 -13.435  0.00  0.00    -0.163 NA
ATOM      3  N   UNL     1      33.189 -22.525 -15.812  0.00  0.00    -0.336 NA
ATOM      4  N   UNL     1      30.867 -23.190 -15.841  0.00  0.00    -0.170 NA
ATOM      5  N   UNL     1      31.813 -22.017 -17.641  0.00  0.00    -0.247 N 
ATOM      6  C   UNL     1      33.595 -23.848 -11.742  0.00  0.00    +0.035 C 
ATOM      7  C   UNL     1      34.731 -23.405 -12.593  0.00  0.00    +0.024 A 
ATOM      8  C   UNL     1      32.432 -24.418 -12.599  0.00  0.00    +0.035 C 
ATOM      9  C   UNL     1      34.554 -23.040 -13.909  0.00  0.00    +0.106 A 
ATOM     10  C   UNL     1      32.230 -23.724 -13.929  0.00  0.00    +0.030 C 
ATOM     11  C   UNL     1      33.284 -23.095 -14.596  0.00  0.00    +0.158 C 
ATOM     12  C   UNL     1      36.101 -23.210 -12.353  0.00  0.00    +0.174 A 
ATOM     13  C   UNL     1      31.035 -23.748 -14.621  0.00  0.00    +0.110 C 
ATOM     14  C   UNL     1      36.125 -22.154 -15.674  0.00  0.00    +0.154 C 
ATOM     15  C   UNL     1      31.965 -22.607 -16.367  0.00  0.00    +0.149 C 
ATOM     16  H   UNL     1      30.904 -22.098 -18.009  0.00  0.00    +0.165 HD
ENDROOT
BRANCH   5  17
ATOM     17  C   UNL     1      32.706 -21.335 -18.487  0.00  0.00    +0.058 C 
ATOM     18  C   UNL     1      32.224 -20.390 -19.393  0.00  0.00    +0.015 C 
ATOM     19  C   UNL     1      34.073 -21.603 -18.419  0.00  0.00    +0.015 C 
ATOM     20  C   UNL     1      33.110 -19.712 -20.232  0.00  0.00    +0.001 C 
ATOM     21  C   UNL     1      34.959 -20.925 -19.258  0.00  0.00    +0.001 C 
ATOM     22  C   UNL     1      34.477 -19.981 -20.164  0.00  0.00    +0.000 C 
ENDBRANCH   5  17
BRANCH  12  24
ATOM     23  O   UNL     1      36.769 -24.474 -10.436  0.00  0.00    -0.243 OA
ATOM     24  C   UNL     1      36.826 -23.446 -11.138  0.00  0.00    +0.357 C 
BRANCH  24  25
ATOM     25  O   UNL     1      37.635 -22.401 -10.780  0.00  0.00    -0.476 OA
ATOM     26  H   UNL     1      38.224 -22.028 -11.407  0.00  0.00    +0.295 HD
ENDBRANCH  24  25
ENDBRANCH  12  24
TORSDOF 3
ENDMDL
MODEL 2
REMARK VINA RESULT:     -10.1     11.208     14.264
REMARK  Name = 44129603
REMARK  3 active torsions:
REMARK  status: ('A' for Active; 'I' for Inactive)
REMARK    1  A    between atoms: N_5  and  C_17
REMARK    2  A    between atoms: C_12  and  C_24
REMARK    3  A    between atoms: C_24  and  O_25
REMARK                            x       y       z     vdW  Elec       q    Type
REMARK                         _______ _______ _______ _____ _____    ______ ____
ROOT
ATOM      1  N   UNL     1      33.177 -12.175 -23.244  0.00  0.00    -0.246 N 
ATOM      2  N   UNL     1      33.776 -13.337 -23.578  0.00  0.00    -0.163 NA
ATOM      3  N   UNL     1      31.832  -9.942 -21.827  0.00  0.00    -0.336 NA
ATOM      4  N   UNL     1      30.400  -9.299 -19.991  0.00  0.00    -0.170 NA
ATOM      5  N   UNL     1      31.120  -7.722 -21.573  0.00  0.00    -0.247 N 
ATOM      6  C   UNL     1      32.280 -13.893 -20.194  0.00  0.00    +0.035 C 
ATOM      7  C   UNL     1      32.776 -13.482 -21.534  0.00  0.00    +0.024 A 
ATOM      8  C   UNL     1      31.060 -13.038 -19.754  0.00  0.00    +0.035 C 
ATOM      9  C   UNL     1      32.560 -12.216 -22.032  0.00  0.00    +0.106 A 
ATOM     10  C   UNL     1      31.114 -11.589 -20.193  0.00  0.00    +0.030 C 
ATOM     11  C   UNL     1      31.806 -11.196 -21.341  0.00  0.00    +0.158 C 
ATOM     12  C   UNL     1      33.530 -14.129 -22.527  0.00  0.00    +0.174 A 
ATOM     13  C   UNL     1      30.411 -10.581 -19.562  0.00  0.00    +0.110 C 
ATOM     14  C   UNL     1      33.275 -11.061 -24.159  0.00  0.00    +0.154 C 
ATOM     15  C   UNL     1      31.117  -9.055 -21.108  0.00  0.00    +0.149 C 
ATOM     16  H   UNL     1      30.587  -7.108 -21.018  0.00  0.00    +0.165 HD
ENDROOT
BRANCH   5  17
ATOM     17  C   UNL     1      31.736  -7.099 -22.674  0.00  0.00    +0.058 C 
ATOM     18  C   UNL     1      31.132  -7.147 -23.930  0.00  0.00    +0.015 C 
ATOM     19  C   UNL     1      32.950  -6.432 -22.508  0.00  0.00    +0.015 C 
ATOM     20  C   UNL     1      31.742  -6.527 -25.022  0.00  0.00    +0.001 C 
ATOM     21  C   UNL     1      33.560  -5.813 -23.600  0.00  0.00    +0.001 C 
ATOM     22  C   UNL     1      32.956  -5.861 -24.856  0.00  0.00    +0.000 C 
ENDBRANCH   5  17
BRANCH  12  24
ATOM     23  O   UNL     1      34.104 -16.226 -21.530  0.00  0.00    -0.243 OA
ATOM     24  C   UNL     1      34.021 -15.477 -22.522  0.00  0.00    +0.357 C 
BRANCH  24  25
ATOM     25  O   UNL     1      34.418 -15.911 -23.759  0.00  0.00    -0.476 OA
ATOM     26  H   UNL     1      33.849 -16.453 -24.270  0.00  0.00    +0.295 HD
ENDBRANCH  24  25
ENDBRANCH  12  24
TORSDOF 3
ENDMDL
MODEL 3
REMARK VINA RESULT:      -9.9      3.589      6.711
REMARK  Name = 44129603
REMARK  3 active torsions:
REMARK  status: ('A' for Active; 'I' for Inactive)
REMARK    1  A    between atoms: N_5  and  C_17
REMARK    2  A    between atoms: C_12  and  C_24
REMARK    3  A    between atoms: C_24  and  O_25
REMARK                            x       y       z     vdW  Elec       q    Type
REMARK                         _______ _______ _______ _____ _____    ______ ____
ROOT
ATOM      1  N   UNL     1      35.689 -21.385 -17.247  0.00  0.00    -0.246 N 
ATOM      2  N   UNL     1      36.107 -20.624 -18.280  0.00  0.00    -0.163 NA
ATOM      3  N   UNL     1      34.169 -23.163 -15.422  0.00  0.00    -0.336 NA
ATOM      4  N   UNL     1      31.991 -23.953 -14.739  0.00  0.00    -0.170 NA
ATOM      5  N   UNL     1      33.931 -24.606 -13.589  0.00  0.00    -0.247 N 
ATOM      6  C   UNL     1      32.485 -21.313 -18.917  0.00  0.00    +0.035 C 
ATOM      7  C   UNL     1      33.894 -21.138 -18.476  0.00  0.00    +0.024 A 
ATOM      8  C   UNL     1      31.551 -21.630 -17.717  0.00  0.00    +0.035 C 
ATOM      9  C   UNL     1      34.370 -21.711 -17.318  0.00  0.00    +0.106 A 
ATOM     10  C   UNL     1      32.178 -22.486 -16.638  0.00  0.00    +0.030 C 
ATOM     11  C   UNL     1      33.556 -22.483 -16.409  0.00  0.00    +0.158 C 
ATOM     12  C   UNL     1      35.006 -20.481 -19.029  0.00  0.00    +0.174 A 
ATOM     13  C   UNL     1      31.441 -23.242 -15.748  0.00  0.00    +0.110 C 
ATOM     14  C   UNL     1      36.651 -21.769 -16.240  0.00  0.00    +0.154 C 
ATOM     15  C   UNL     1      33.334 -23.870 -14.636  0.00  0.00    +0.149 C 
ATOM     16  H   UNL     1      33.286 -25.109 -13.041  0.00  0.00    +0.165 HD
ENDROOT
BRANCH   5  17
ATOM     17  C   UNL     1      35.266 -24.763 -13.175  0.00  0.00    +0.058 C 
ATOM     18  C   UNL     1      35.743 -24.053 -12.074  0.00  0.00    +0.015 C 
ATOM     19  C   UNL     1      36.113 -25.629 -13.867  0.00  0.00    +0.015 C 
ATOM     20  C   UNL     1      37.068 -24.209 -11.663  0.00  0.00    +0.001 C 
ATOM     21  C   UNL     1      37.437 -25.786 -13.456  0.00  0.00    +0.001 C 
ATOM     22  C   UNL     1      37.914 -25.076 -12.355  0.00  0.00    +0.000 C 
ENDBRANCH   5  17
BRANCH  12  24
ATOM     23  O   UNL     1      34.165 -19.621 -21.097  0.00  0.00    -0.243 OA
ATOM     24  C   UNL     1      35.065 -19.712 -20.240  0.00  0.00    +0.357 C 
BRANCH  24  25
ATOM     25  O   UNL     1      36.250 -19.045 -20.398  0.00  0.00    -0.476 OA
ATOM     26  H   UNL     1      37.043 -19.412 -20.060  0.00  0.00    +0.295 HD
ENDBRANCH  24  25
ENDBRANCH  12  24
TORSDOF 3
ENDMDL
MODEL 4
REMARK VINA RESULT:      -9.6      2.559      4.395
REMARK  Name = 44129603
REMARK  3 active torsions:
REMARK  status: ('A' for Active; 'I' for Inactive)
REMARK    1  A    between atoms: N_5  and  C_17
REMARK    2  A    between atoms: C_12  and  C_24
REMARK    3  A    between atoms: C_24  and  O_25
REMARK                            x       y       z     vdW  Elec       q    Type
REMARK                         _______ _______ _______ _____ _____    ______ ____
ROOT
ATOM      1  N   UNL     1      31.479 -22.739 -15.732  0.00  0.00    -0.246 N 
ATOM      2  N   UNL     1      30.374 -23.308 -15.209  0.00  0.00    -0.163 NA
ATOM      3  N   UNL     1      34.261 -22.018 -16.474  0.00  0.00    -0.336 NA
ATOM      4  N   UNL     1      36.583 -22.023 -15.809  0.00  0.00    -0.170 NA
ATOM      5  N   UNL     1      35.894 -20.976 -17.794  0.00  0.00    -0.247 N 
ATOM      6  C   UNL     1      33.252 -24.667 -13.242  0.00  0.00    +0.035 C 
ATOM      7  C   UNL     1      32.253 -24.001 -14.119  0.00  0.00    +0.024 A 
ATOM      8  C   UNL     1      34.563 -23.839 -13.147  0.00  0.00    +0.035 C 
ATOM      9  C   UNL     1      32.627 -23.119 -15.108  0.00  0.00    +0.106 A 
ATOM     10  C   UNL     1      34.950 -23.122 -14.423  0.00  0.00    +0.030 C 
ATOM     11  C   UNL     1      33.993 -22.721 -15.358  0.00  0.00    +0.158 C 
ATOM     12  C   UNL     1      30.854 -24.081 -14.226  0.00  0.00    +0.174 A 
ATOM     13  C   UNL     1      36.243 -22.725 -14.706  0.00  0.00    +0.110 C 
ATOM     14  C   UNL     1      31.329 -21.850 -16.861  0.00  0.00    +0.154 C 
ATOM     15  C   UNL     1      35.562 -21.709 -16.634  0.00  0.00    +0.149 C 
ATOM     16  H   UNL     1      36.854 -20.774 -17.873  0.00  0.00    +0.165 HD
ENDROOT
BRANCH   5  17
ATOM     17  C   UNL     1      35.123 -20.480 -18.861  0.00  0.00    +0.058 C 
ATOM     18  C   UNL     1      33.784 -20.849 -18.985  0.00  0.00    +0.015 C 
ATOM     19  C   UNL     1      35.699 -19.617 -19.794  0.00  0.00    +0.015 C 
ATOM     20  C   UNL     1      33.019 -20.355 -20.042  0.00  0.00    +0.001 C 
ATOM     21  C   UNL     1      34.933 -19.124 -20.852  0.00  0.00    +0.001 C 
ATOM     22  C   UNL     1      33.594 -19.493 -20.976  0.00  0.00    +0.000 C 
ENDBRANCH   5  17
BRANCH  12  24
ATOM     23  O   UNL     1      29.138 -25.703 -13.846  0.00  0.00    -0.243 OA
ATOM     24  C   UNL     1      29.951 -24.857 -13.426  0.00  0.00    +0.357 C 
BRANCH  24  25
ATOM     25  O   UNL     1      30.049 -24.588 -12.087  0.00  0.00    -0.476 OA
ATOM     26  H   UNL     1      30.025 -23.701 -11.784  0.00  0.00    +0.295 HD
ENDBRANCH  24  25
ENDBRANCH  12  24
TORSDOF 3
ENDMDL
