MODEL 1
REMARK VINA RESULT:     -11.5      0.000      0.000
REMARK  Name = 11961293
REMARK  7 active torsions:
REMARK  status: ('A' for Active; 'I' for Inactive)
REMARK    1  A    between atoms: C_1  and  C_3
REMARK    2  A    between atoms: C_1  and  N_21
REMARK    3  A    between atoms: N_2  and  C_9
REMARK    4  A    between atoms: C_9  and  C_12
REMARK    5  A    between atoms: C_17  and  O_18
REMARK    6  A    between atoms: C_22  and  C_26
REMARK    7  A    between atoms: C_30  and  C_35
REMARK                            x       y       z     vdW  Elec       q    Type
REMARK                         _______ _______ _______ _____ _____    ______ ____
ROOT
ATOM      1  C   UNL     1      33.045 -14.707 -23.817  0.00  0.00    +0.089 C 
ENDROOT
BRANCH   1   3
ATOM      2  N   UNL     1      34.316 -17.863 -21.157  0.00  0.00    +0.387 N 
ATOM      3  C   UNL     1      33.966 -15.642 -23.039  0.00  0.00    +0.015 C 
ATOM      4  C   UNL     1      34.576 -18.056 -22.589  0.00  0.00    -0.077 C 
ATOM      5  C   UNL     1      34.613 -16.485 -20.745  0.00  0.00    -0.077 C 
ATOM      6  C   UNL     1      33.729 -17.104 -23.437  0.00  0.00    -0.021 C 
ATOM      7  C   UNL     1      33.766 -15.480 -21.529  0.00  0.00    -0.021 C 
ATOM      8  H   UNL     1      33.324 -18.034 -20.991  0.00  0.00    -0.080 HD
BRANCH   2   9
ATOM      9  C   UNL     1      35.094 -18.814 -20.362  0.00  0.00    -0.077 C 
BRANCH   9  12
ATOM     10  O   UNL     1      30.995 -22.009 -16.924  0.00  0.00    -0.226 OA
ATOM     11  N   UNL     1      32.792 -21.866 -18.390  0.00  0.00    -0.246 N 
ATOM     12  C   UNL     1      34.300 -20.095 -20.117  0.00  0.00    -0.017 C 
ATOM     13  C   UNL     1      32.861 -19.773 -19.685  0.00  0.00    +0.020 C 
ATOM     14  C   UNL     1      34.989 -20.968 -19.055  0.00  0.00    +0.020 C 
ATOM     15  C   UNL     1      32.081 -21.045 -19.369  0.00  0.00    +0.097 C 
ATOM     16  C   UNL     1      34.170 -22.221 -18.750  0.00  0.00    +0.097 C 
ATOM     17  C   UNL     1      32.149 -22.303 -17.229  0.00  0.00    +0.405 C 
BRANCH  17  18
ATOM     18  O   UNL     1      32.945 -23.105 -16.454  0.00  0.00    -0.430 OA
ATOM     19  C   UNL     1      32.702 -23.062 -15.043  0.00  0.00    +0.257 C 
ENDBRANCH  17  18
ENDBRANCH   9  12
ENDBRANCH   2   9
ENDBRANCH   1   3
BRANCH   1  21
ATOM     20  O   UNL     1      33.519 -11.883 -23.604  0.00  0.00    -0.270 OA
ATOM     21  N   UNL     1      32.371 -13.778 -22.923  0.00  0.00    -0.301 N 
ATOM     22  C   UNL     1      32.675 -12.431 -22.900  0.00  0.00    +0.247 C 
ATOM     23  H   UNL     1      31.675 -14.120 -22.316  0.00  0.00    +0.150 HD
BRANCH  22  26
ATOM     24  N   UNL     1      31.418  -8.098 -21.309  0.00  0.00    -0.318 N 
ATOM     25  N   UNL     1      32.551  -9.327 -22.774  0.00  0.00    -0.318 N 
ATOM     26  C   UNL     1      31.916 -11.621 -21.913  0.00  0.00    +0.068 C 
ATOM     27  C   UNL     1      31.927 -10.225 -21.947  0.00  0.00    +0.063 C 
ATOM     28  C   UNL     1      31.152 -12.220 -20.906  0.00  0.00    +0.006 C 
ATOM     29  C   UNL     1      31.226  -9.433 -21.041  0.00  0.00    +0.059 C 
ATOM     30  C   UNL     1      32.216  -8.070 -22.353  0.00  0.00    +0.144 C 
ATOM     31  C   UNL     1      30.438 -11.451 -19.983  0.00  0.00    +0.001 C 
ATOM     32  C   UNL     1      30.464 -10.052 -20.036  0.00  0.00    +0.016 C 
ATOM     33  H   UNL     1      31.040  -7.329 -20.825  0.00  0.00    +0.148 HD
ATOM     34  H   UNL     1      33.135  -9.548 -23.535  0.00  0.00    +0.148 HD
BRANCH  30  35
ATOM     35  C   UNL     1      32.670  -6.808 -22.965  0.00  0.00    +0.037 C 
ATOM     36  C   UNL     1      32.041  -5.552 -22.314  0.00  0.00    +0.003 C 
ATOM     37  C   UNL     1      34.211  -6.655 -22.981  0.00  0.00    +0.003 C 
ENDBRANCH  30  35
ENDBRANCH  22  26
ENDBRANCH   1  21
TORSDOF 7
ENDMDL
MODEL 2
REMARK VINA RESULT:     -11.3      2.946     12.277
REMARK  Name = 11961293
REMARK  7 active torsions:
REMARK  status: ('A' for Active; 'I' for Inactive)
REMARK    1  A    between atoms: C_1  and  C_3
REMARK    2  A    between atoms: C_1  and  N_21
REMARK    3  A    between atoms: N_2  and  C_9
REMARK    4  A    between atoms: C_9  and  C_12
REMARK    5  A    between atoms: C_17  and  O_18
REMARK    6  A    between atoms: C_22  and  C_26
REMARK    7  A    between atoms: C_30  and  C_35
REMARK                            x       y       z     vdW  Elec       q    Type
REMARK                         _______ _______ _______ _____ _____    ______ ____
ROOT
ATOM      1  C   UNL     1      33.951 -21.852 -18.899  0.00  0.00    +0.089 C 
ENDROOT
BRANCH   1   3
ATOM      2  N   UNL     1      34.972 -18.385 -21.265  0.00  0.00    +0.387 N 
ATOM      3  C   UNL     1      34.268 -20.403 -19.258  0.00  0.00    +0.015 C 
ATOM      4  C   UNL     1      33.617 -18.430 -20.701  0.00  0.00    -0.077 C 
ATOM      5  C   UNL     1      35.968 -18.841 -20.287  0.00  0.00    -0.077 C 
ATOM      6  C   UNL     1      33.249 -19.849 -20.260  0.00  0.00    -0.021 C 
ATOM      7  C   UNL     1      35.681 -20.274 -19.833  0.00  0.00    -0.021 C 
ATOM      8  H   UNL     1      35.002 -19.020 -22.063  0.00  0.00    -0.080 HD
BRANCH   2   9
ATOM      9  C   UNL     1      35.289 -17.034 -21.729  0.00  0.00    -0.077 C 
BRANCH   9  12
ATOM     10  O   UNL     1      32.680 -13.248 -25.934  0.00  0.00    -0.226 OA
ATOM     11  N   UNL     1      32.769 -14.266 -23.846  0.00  0.00    -0.246 N 
ATOM     12  C   UNL     1      34.046 -16.342 -22.281  0.00  0.00    -0.017 C 
ATOM     13  C   UNL     1      34.038 -16.376 -23.817  0.00  0.00    +0.020 C 
ATOM     14  C   UNL     1      33.962 -14.891 -21.782  0.00  0.00    +0.020 C 
ATOM     15  C   UNL     1      32.835 -15.625 -24.381  0.00  0.00    +0.097 C 
ATOM     16  C   UNL     1      32.759 -14.166 -22.383  0.00  0.00    +0.097 C 
ATOM     17  C   UNL     1      32.673 -13.169 -24.707  0.00  0.00    +0.405 C 
BRANCH  17  18
ATOM     18  O   UNL     1      32.565 -11.979 -24.036  0.00  0.00    -0.430 OA
ATOM     19  C   UNL     1      33.488 -10.952 -24.420  0.00  0.00    +0.257 C 
ENDBRANCH  17  18
ENDBRANCH   9  12
ENDBRANCH   2   9
ENDBRANCH   1   3
BRANCH   1  21
ATOM     20  O   UNL     1      32.606 -24.145 -17.816  0.00  0.00    -0.270 OA
ATOM     21  N   UNL     1      33.271 -21.934 -17.616  0.00  0.00    -0.301 N 
ATOM     22  C   UNL     1      32.651 -23.091 -17.187  0.00  0.00    +0.247 C 
ATOM     23  H   UNL     1      33.251 -21.139 -17.035  0.00  0.00    +0.150 HD
BRANCH  22  26
ATOM     24  N   UNL     1      32.983 -23.444 -12.427  0.00  0.00    -0.318 N 
ATOM     25  N   UNL     1      33.972 -23.572 -14.413  0.00  0.00    -0.318 N 
ATOM     26  C   UNL     1      31.979 -23.005 -15.865  0.00  0.00    +0.068 C 
ATOM     27  C   UNL     1      32.668 -23.240 -14.674  0.00  0.00    +0.063 C 
ATOM     28  C   UNL     1      30.623 -22.681 -15.754  0.00  0.00    +0.006 C 
ATOM     29  C   UNL     1      32.071 -23.164 -13.419  0.00  0.00    +0.059 C 
ATOM     30  C   UNL     1      34.111 -23.683 -13.058  0.00  0.00    +0.144 C 
ATOM     31  C   UNL     1      29.997 -22.598 -14.508  0.00  0.00    +0.001 C 
ATOM     32  C   UNL     1      30.708 -22.838 -13.326  0.00  0.00    +0.016 C 
ATOM     33  H   UNL     1      32.826 -23.460 -11.455  0.00  0.00    +0.148 HD
ATOM     34  H   UNL     1      34.682 -23.707 -15.083  0.00  0.00    +0.148 HD
BRANCH  30  35
ATOM     35  C   UNL     1      35.356 -24.025 -12.346  0.00  0.00    +0.037 C 
ATOM     36  C   UNL     1      36.571 -24.202 -13.288  0.00  0.00    +0.003 C 
ATOM     37  C   UNL     1      35.720 -23.015 -11.230  0.00  0.00    +0.003 C 
ENDBRANCH  30  35
ENDBRANCH  22  26
ENDBRANCH   1  21
TORSDOF 7
ENDMDL
MODEL 3
REMARK VINA RESULT:     -11.2      1.289      2.342
REMARK  Name = 11961293
REMARK  7 active torsions:
REMARK  status: ('A' for Active; 'I' for Inactive)
REMARK    1  A    between atoms: C_1  and  C_3
REMARK    2  A    between atoms: C_1  and  N_21
REMARK    3  A    between atoms: N_2  and  C_9
REMARK    4  A    between atoms: C_9  and  C_12
REMARK    5  A    between atoms: C_17  and  O_18
REMARK    6  A    between atoms: C_22  and  C_26
REMARK    7  A    between atoms: C_30  and  C_35
REMARK                            x       y       z     vdW  Elec       q    Type
REMARK                         _______ _______ _______ _____ _____    ______ ____
ROOT
ATOM      1  C   UNL     1      32.693 -14.668 -24.098  0.00  0.00    +0.089 C 
ENDROOT
BRANCH   1   3
ATOM      2  N   UNL     1      34.233 -17.608 -21.334  0.00  0.00    +0.387 N 
ATOM      3  C   UNL     1      33.691 -15.488 -23.286  0.00  0.00    +0.015 C 
ATOM      4  C   UNL     1      34.523 -17.818 -22.758  0.00  0.00    -0.077 C 
ATOM      5  C   UNL     1      34.395 -16.196 -20.962  0.00  0.00    -0.077 C 
ATOM      6  C   UNL     1      33.597 -16.977 -23.640  0.00  0.00    -0.021 C 
ATOM      7  C   UNL     1      33.464 -15.300 -21.782  0.00  0.00    -0.021 C 
ATOM      8  H   UNL     1      33.260 -17.867 -21.169  0.00  0.00    -0.080 HD
BRANCH   2   9
ATOM      9  C   UNL     1      35.090 -18.457 -20.506  0.00  0.00    -0.077 C 
BRANCH   9  12
ATOM     10  O   UNL     1      31.244 -22.060 -17.181  0.00  0.00    -0.226 OA
ATOM     11  N   UNL     1      33.076 -21.728 -18.572  0.00  0.00    -0.246 N 
ATOM     12  C   UNL     1      34.442 -19.818 -20.268  0.00  0.00    -0.017 C 
ATOM     13  C   UNL     1      32.957 -19.661 -19.905  0.00  0.00    +0.020 C 
ATOM     14  C   UNL     1      35.180 -20.588 -19.161  0.00  0.00    +0.020 C 
ATOM     15  C   UNL     1      32.318 -21.012 -19.596  0.00  0.00    +0.097 C 
ATOM     16  C   UNL     1      34.500 -21.924 -18.866  0.00  0.00    +0.097 C 
ATOM     17  C   UNL     1      32.437 -22.220 -17.430  0.00  0.00    +0.405 C 
BRANCH  17  18
ATOM     18  O   UNL     1      33.286 -22.911 -16.607  0.00  0.00    -0.430 OA
ATOM     19  C   UNL     1      32.891 -23.010 -15.233  0.00  0.00    +0.257 C 
ENDBRANCH  17  18
ENDBRANCH   9  12
ENDBRANCH   2   9
ENDBRANCH   1   3
BRANCH   1  21
ATOM     20  O   UNL     1      31.865 -12.542 -22.356  0.00  0.00    -0.270 OA
ATOM     21  N   UNL     1      33.104 -13.274 -24.172  0.00  0.00    -0.301 N 
ATOM     22  C   UNL     1      32.645 -12.326 -23.280  0.00  0.00    +0.247 C 
ATOM     23  H   UNL     1      33.730 -12.998 -24.880  0.00  0.00    +0.150 HD
BRANCH  22  26
ATOM     24  N   UNL     1      32.472  -7.703 -22.062  0.00  0.00    -0.318 N 
ATOM     25  N   UNL     1      31.743  -9.778 -21.743  0.00  0.00    -0.318 N 
ATOM     26  C   UNL     1      33.137 -10.943 -23.505  0.00  0.00    +0.068 C 
ATOM     27  C   UNL     1      32.664  -9.865 -22.754  0.00  0.00    +0.063 C 
ATOM     28  C   UNL     1      34.100 -10.658 -24.478  0.00  0.00    +0.006 C 
ATOM     29  C   UNL     1      33.105  -8.557 -22.935  0.00  0.00    +0.059 C 
ATOM     30  C   UNL     1      31.663  -8.467 -21.363  0.00  0.00    +0.144 C 
ATOM     31  C   UNL     1      34.562  -9.355 -24.683  0.00  0.00    +0.001 C 
ATOM     32  C   UNL     1      34.073  -8.289 -23.918  0.00  0.00    +0.016 C 
ATOM     33  H   UNL     1      32.597  -6.730 -21.979  0.00  0.00    +0.148 HD
ATOM     34  H   UNL     1      31.231 -10.526 -21.359  0.00  0.00    +0.148 HD
BRANCH  30  35
ATOM     35  C   UNL     1      30.791  -7.930 -20.303  0.00  0.00    +0.037 C 
ATOM     36  C   UNL     1      30.764  -8.810 -19.029  0.00  0.00    +0.003 C 
ATOM     37  C   UNL     1      31.136  -6.473 -19.907  0.00  0.00    +0.003 C 
ENDBRANCH  30  35
ENDBRANCH  22  26
ENDBRANCH   1  21
TORSDOF 7
ENDMDL
MODEL 4
REMARK VINA RESULT:     -11.1      2.601      4.821
REMARK  Name = 11961293
REMARK  7 active torsions:
REMARK  status: ('A' for Active; 'I' for Inactive)
REMARK    1  A    between atoms: C_1  and  C_3
REMARK    2  A    between atoms: C_1  and  N_21
REMARK    3  A    between atoms: N_2  and  C_9
REMARK    4  A    between atoms: C_9  and  C_12
REMARK    5  A    between atoms: C_17  and  O_18
REMARK    6  A    between atoms: C_22  and  C_26
REMARK    7  A    between atoms: C_30  and  C_35
REMARK                            x       y       z     vdW  Elec       q    Type
REMARK                         _______ _______ _______ _____ _____    ______ ____
ROOT
ATOM      1  C   UNL     1      35.408 -18.369 -20.800  0.00  0.00    +0.089 C 
ENDROOT
BRANCH   1   3
ATOM      2  N   UNL     1      33.339 -21.290 -18.382  0.00  0.00    +0.387 N 
ATOM      3  C   UNL     1      34.726 -19.673 -20.397  0.00  0.00    +0.015 C 
ATOM      4  C   UNL     1      32.598 -20.719 -19.513  0.00  0.00    -0.077 C 
ATOM      5  C   UNL     1      34.726 -21.598 -18.757  0.00  0.00    -0.077 C 
ATOM      6  C   UNL     1      33.261 -19.433 -20.014  0.00  0.00    -0.021 C 
ATOM      7  C   UNL     1      35.461 -20.342 -19.231  0.00  0.00    -0.021 C 
ATOM      8  H   UNL     1      33.363 -20.594 -17.636  0.00  0.00    -0.080 HD
BRANCH   2   9
ATOM      9  C   UNL     1      32.666 -22.489 -17.881  0.00  0.00    -0.077 C 
BRANCH   9  12
ATOM     10  O   UNL     1      31.334 -24.995 -12.334  0.00  0.00    -0.226 OA
ATOM     11  N   UNL     1      31.152 -23.329 -13.944  0.00  0.00    -0.246 N 
ATOM     12  C   UNL     1      32.246 -22.309 -16.425  0.00  0.00    -0.017 C 
ATOM     13  C   UNL     1      33.055 -23.235 -15.504  0.00  0.00    +0.020 C 
ATOM     14  C   UNL     1      30.742 -22.574 -16.254  0.00  0.00    +0.020 C 
ATOM     15  C   UNL     1      32.594 -23.114 -14.054  0.00  0.00    +0.097 C 
ATOM     16  C   UNL     1      30.321 -22.465 -14.790  0.00  0.00    +0.097 C 
ATOM     17  C   UNL     1      30.641 -24.269 -13.045  0.00  0.00    +0.405 C 
BRANCH  17  18
ATOM     18  O   UNL     1      29.272 -24.300 -13.034  0.00  0.00    -0.430 OA
ATOM     19  C   UNL     1      28.654 -25.252 -13.910  0.00  0.00    +0.257 C 
ENDBRANCH  17  18
ENDBRANCH   9  12
ENDBRANCH   2   9
ENDBRANCH   1   3
BRANCH   1  21
ATOM     20  O   UNL     1      34.787 -16.205 -22.581  0.00  0.00    -0.270 OA
ATOM     21  N   UNL     1      34.554 -17.226 -20.513  0.00  0.00    -0.301 N 
ATOM     22  C   UNL     1      34.319 -16.235 -21.445  0.00  0.00    +0.247 C 
ATOM     23  H   UNL     1      34.131 -17.157 -19.627  0.00  0.00    +0.150 HD
BRANCH  22  26
ATOM     24  N   UNL     1      32.335 -11.984 -22.383  0.00  0.00    -0.318 N 
ATOM     25  N   UNL     1      33.642 -13.655 -23.044  0.00  0.00    -0.318 N 
ATOM     26  C   UNL     1      33.447 -15.122 -20.991  0.00  0.00    +0.068 C 
ATOM     27  C   UNL     1      33.206 -14.004 -21.792  0.00  0.00    +0.063 C 
ATOM     28  C   UNL     1      32.823 -15.145 -19.739  0.00  0.00    +0.006 C 
ATOM     29  C   UNL     1      32.392 -12.945 -21.401  0.00  0.00    +0.059 C 
ATOM     30  C   UNL     1      33.095 -12.441 -23.353  0.00  0.00    +0.144 C 
ATOM     31  C   UNL     1      32.000 -14.097 -19.319  0.00  0.00    +0.001 C 
ATOM     32  C   UNL     1      31.774 -12.985 -20.140  0.00  0.00    +0.016 C 
ATOM     33  H   UNL     1      31.834 -11.136 -22.365  0.00  0.00    +0.148 HD
ATOM     34  H   UNL     1      34.241 -14.186 -23.619  0.00  0.00    +0.148 HD
BRANCH  30  35
ATOM     35  C   UNL     1      33.302 -11.698 -24.610  0.00  0.00    +0.037 C 
ATOM     36  C   UNL     1      32.393 -12.185 -25.764  0.00  0.00    +0.003 C 
ATOM     37  C   UNL     1      33.143 -10.167 -24.448  0.00  0.00    +0.003 C 
ENDBRANCH  30  35
ENDBRANCH  22  26
ENDBRANCH   1  21
TORSDOF 7
ENDMDL
MODEL 5
REMARK VINA RESULT:     -11.0      3.016     11.787
REMARK  Name = 11961293
REMARK  7 active torsions:
REMARK  status: ('A' for Active; 'I' for Inactive)
REMARK    1  A    between atoms: C_1  and  C_3
REMARK    2  A    between atoms: C_1  and  N_21
REMARK    3  A    between atoms: N_2  and  C_9
REMARK    4  A    between atoms: C_9  and  C_12
REMARK    5  A    between atoms: C_17  and  O_18
REMARK    6  A    between atoms: C_22  and  C_26
REMARK    7  A    between atoms: C_30  and  C_35
REMARK                            x       y       z     vdW  Elec       q    Type
REMARK                         _______ _______ _______ _____ _____    ______ ____
ROOT
ATOM      1  C   UNL     1      34.057 -21.945 -18.762  0.00  0.00    +0.089 C 
ENDROOT
BRANCH   1   3
ATOM      2  N   UNL     1      35.077 -18.515 -21.181  0.00  0.00    +0.387 N 
ATOM      3  C   UNL     1      34.336 -20.496 -19.150  0.00  0.00    +0.015 C 
ATOM      4  C   UNL     1      33.694 -18.599 -20.696  0.00  0.00    -0.077 C 
ATOM      5  C   UNL     1      36.031 -18.896 -20.130  0.00  0.00    -0.077 C 
ATOM      6  C   UNL     1      33.358 -20.017 -20.229  0.00  0.00    -0.021 C 
ATOM      7  C   UNL     1      35.775 -20.325 -19.646  0.00  0.00    -0.021 C 
ATOM      8  H   UNL     1      35.181 -19.172 -21.953  0.00  0.00    -0.080 HD
BRANCH   2   9
ATOM      9  C   UNL     1      35.368 -17.167 -21.670  0.00  0.00    -0.077 C 
BRANCH   9  12
ATOM     10  O   UNL     1      32.583 -13.481 -25.852  0.00  0.00    -0.226 OA
ATOM     11  N   UNL     1      32.756 -14.455 -23.749  0.00  0.00    -0.246 N 
ATOM     12  C   UNL     1      34.101 -16.492 -22.190  0.00  0.00    -0.017 C 
ATOM     13  C   UNL     1      34.037 -16.558 -23.724  0.00  0.00    +0.020 C 
ATOM     14  C   UNL     1      34.028 -15.031 -21.718  0.00  0.00    +0.020 C 
ATOM     15  C   UNL     1      32.809 -15.825 -24.258  0.00  0.00    +0.097 C 
ATOM     16  C   UNL     1      32.799 -14.325 -22.288  0.00  0.00    +0.097 C 
ATOM     17  C   UNL     1      32.621 -13.376 -24.628  0.00  0.00    +0.405 C 
BRANCH  17  18
ATOM     18  O   UNL     1      32.532 -12.174 -23.978  0.00  0.00    -0.430 OA
ATOM     19  C   UNL     1      33.402 -11.136 -24.447  0.00  0.00    +0.257 C 
ENDBRANCH  17  18
ENDBRANCH   9  12
ENDBRANCH   2   9
ENDBRANCH   1   3
BRANCH   1  21
ATOM     20  O   UNL     1      32.357 -24.021 -17.741  0.00  0.00    -0.270 OA
ATOM     21  N   UNL     1      33.492 -22.025 -17.424  0.00  0.00    -0.301 N 
ATOM     22  C   UNL     1      32.682 -23.072 -17.031  0.00  0.00    +0.247 C 
ATOM     23  H   UNL     1      33.695 -21.311 -16.777  0.00  0.00    +0.150 HD
BRANCH  22  26
ATOM     24  N   UNL     1      28.935 -22.468 -14.119  0.00  0.00    -0.318 N 
ATOM     25  N   UNL     1      29.729 -22.581 -16.192  0.00  0.00    -0.318 N 
ATOM     26  C   UNL     1      32.164 -22.995 -15.641  0.00  0.00    +0.068 C 
ATOM     27  C   UNL     1      30.812 -22.771 -15.373  0.00  0.00    +0.063 C 
ATOM     28  C   UNL     1      33.008 -23.147 -14.536  0.00  0.00    +0.006 C 
ATOM     29  C   UNL     1      30.291 -22.697 -14.085  0.00  0.00    +0.059 C 
ATOM     30  C   UNL     1      28.632 -22.404 -15.396  0.00  0.00    +0.144 C 
ATOM     31  C   UNL     1      32.514 -23.077 -13.231  0.00  0.00    +0.001 C 
ATOM     32  C   UNL     1      31.153 -22.851 -12.986  0.00  0.00    +0.016 C 
ATOM     33  H   UNL     1      28.324 -22.372 -13.353  0.00  0.00    +0.148 HD
ATOM     34  H   UNL     1      29.740 -22.573 -17.177  0.00  0.00    +0.148 HD
BRANCH  30  35
ATOM     35  C   UNL     1      27.255 -22.169 -15.869  0.00  0.00    +0.037 C 
ATOM     36  C   UNL     1      26.763 -23.239 -16.874  0.00  0.00    +0.003 C 
ATOM     37  C   UNL     1      26.227 -22.042 -14.718  0.00  0.00    +0.003 C 
ENDBRANCH  30  35
ENDBRANCH  22  26
ENDBRANCH   1  21
TORSDOF 7
ENDMDL
MODEL 6
REMARK VINA RESULT:     -10.8      2.921     12.210
REMARK  Name = 11961293
REMARK  7 active torsions:
REMARK  status: ('A' for Active; 'I' for Inactive)
REMARK    1  A    between atoms: C_1  and  C_3
REMARK    2  A    between atoms: C_1  and  N_21
REMARK    3  A    between atoms: N_2  and  C_9
REMARK    4  A    between atoms: C_9  and  C_12
REMARK    5  A    between atoms: C_17  and  O_18
REMARK    6  A    between atoms: C_22  and  C_26
REMARK    7  A    between atoms: C_30  and  C_35
REMARK                            x       y       z     vdW  Elec       q    Type
REMARK                         _______ _______ _______ _____ _____    ______ ____
ROOT
ATOM      1  C   UNL     1      34.214 -21.819 -19.346  0.00  0.00    +0.089 C 
ENDROOT
BRANCH   1   3
ATOM      2  N   UNL     1      34.932 -17.983 -21.195  0.00  0.00    +0.387 N 
ATOM      3  C   UNL     1      34.375 -20.310 -19.501  0.00  0.00    +0.015 C 
ATOM      4  C   UNL     1      33.567 -18.249 -20.726  0.00  0.00    -0.077 C 
ATOM      5  C   UNL     1      35.928 -18.449 -20.222  0.00  0.00    -0.077 C 
ATOM      6  C   UNL     1      33.347 -19.745 -20.488  0.00  0.00    -0.021 C 
ATOM      7  C   UNL     1      35.790 -19.952 -19.968  0.00  0.00    -0.021 C 
ATOM      8  H   UNL     1      35.074 -18.501 -22.063  0.00  0.00    -0.080 HD
BRANCH   2   9
ATOM      9  C   UNL     1      35.111 -16.556 -21.467  0.00  0.00    -0.077 C 
BRANCH   9  12
ATOM     10  O   UNL     1      32.876 -13.292 -26.281  0.00  0.00    -0.226 OA
ATOM     11  N   UNL     1      32.744 -14.135 -24.120  0.00  0.00    -0.246 N 
ATOM     12  C   UNL     1      33.915 -15.994 -22.231  0.00  0.00    -0.017 C 
ATOM     13  C   UNL     1      34.114 -16.147 -23.747  0.00  0.00    +0.020 C 
ATOM     14  C   UNL     1      33.685 -14.517 -21.874  0.00  0.00    +0.020 C 
ATOM     15  C   UNL     1      32.957 -15.525 -24.523  0.00  0.00    +0.097 C 
ATOM     16  C   UNL     1      32.534 -13.923 -22.683  0.00  0.00    +0.097 C 
ATOM     17  C   UNL     1      32.702 -13.118 -25.077  0.00  0.00    +0.405 C 
BRANCH  17  18
ATOM     18  O   UNL     1      32.440 -11.889 -24.530  0.00  0.00    -0.430 OA
ATOM     19  C   UNL     1      33.579 -11.065 -24.255  0.00  0.00    +0.257 C 
ENDBRANCH  17  18
ENDBRANCH   9  12
ENDBRANCH   2   9
ENDBRANCH   1   3
BRANCH   1  21
ATOM     20  O   UNL     1      31.831 -22.241 -17.802  0.00  0.00    -0.270 OA
ATOM     21  N   UNL     1      34.143 -22.193 -17.942  0.00  0.00    -0.301 N 
ATOM     22  C   UNL     1      32.940 -22.372 -17.290  0.00  0.00    +0.247 C 
ATOM     23  H   UNL     1      34.981 -22.323 -17.440  0.00  0.00    +0.150 HD
BRANCH  22  26
ATOM     24  N   UNL     1      30.711 -23.733 -13.282  0.00  0.00    -0.318 N 
ATOM     25  N   UNL     1      30.584 -23.194 -15.434  0.00  0.00    -0.318 N 
ATOM     26  C   UNL     1      33.036 -22.727 -15.851  0.00  0.00    +0.068 C 
ATOM     27  C   UNL     1      31.911 -23.085 -15.106  0.00  0.00    +0.063 C 
ATOM     28  C   UNL     1      34.262 -22.723 -15.177  0.00  0.00    +0.006 C 
ATOM     29  C   UNL     1      31.965 -23.427 -13.758  0.00  0.00    +0.059 C 
ATOM     30  C   UNL     1      29.908 -23.583 -14.312  0.00  0.00    +0.144 C 
ATOM     31  C   UNL     1      34.347 -23.062 -13.824  0.00  0.00    +0.001 C 
ATOM     32  C   UNL     1      33.204 -23.417 -13.097  0.00  0.00    +0.016 C 
ATOM     33  H   UNL     1      30.467 -24.005 -12.368  0.00  0.00    +0.148 HD
ATOM     34  H   UNL     1      30.189 -23.022 -16.320  0.00  0.00    +0.148 HD
BRANCH  30  35
ATOM     35  C   UNL     1      28.456 -23.820 -14.220  0.00  0.00    +0.037 C 
ATOM     36  C   UNL     1      27.694 -23.452 -15.517  0.00  0.00    +0.003 C 
ATOM     37  C   UNL     1      28.097 -25.270 -13.814  0.00  0.00    +0.003 C 
ENDBRANCH  30  35
ENDBRANCH  22  26
ENDBRANCH   1  21
TORSDOF 7
ENDMDL
MODEL 7
REMARK VINA RESULT:     -10.8      2.545      3.976
REMARK  Name = 11961293
REMARK  7 active torsions:
REMARK  status: ('A' for Active; 'I' for Inactive)
REMARK    1  A    between atoms: C_1  and  C_3
REMARK    2  A    between atoms: C_1  and  N_21
REMARK    3  A    between atoms: N_2  and  C_9
REMARK    4  A    between atoms: C_9  and  C_12
REMARK    5  A    between atoms: C_17  and  O_18
REMARK    6  A    between atoms: C_22  and  C_26
REMARK    7  A    between atoms: C_30  and  C_35
REMARK                            x       y       z     vdW  Elec       q    Type
REMARK                         _______ _______ _______ _____ _____    ______ ____
ROOT
ATOM      1  C   UNL     1      35.168 -17.413 -21.920  0.00  0.00    +0.089 C 
ENDROOT
BRANCH   1   3
ATOM      2  N   UNL     1      34.174 -20.416 -18.979  0.00  0.00    +0.387 N 
ATOM      3  C   UNL     1      34.824 -18.772 -21.318  0.00  0.00    +0.015 C 
ATOM      4  C   UNL     1      33.135 -20.076 -19.960  0.00  0.00    -0.077 C 
ATOM      5  C   UNL     1      35.492 -20.520 -19.618  0.00  0.00    -0.077 C 
ATOM      6  C   UNL     1      33.444 -18.747 -20.653  0.00  0.00    -0.021 C 
ATOM      7  C   UNL     1      35.882 -19.205 -20.298  0.00  0.00    -0.021 C 
ATOM      8  H   UNL     1      34.216 -19.663 -18.292  0.00  0.00    -0.080 HD
BRANCH   2   9
ATOM      9  C   UNL     1      33.839 -21.662 -18.289  0.00  0.00    -0.077 C 
BRANCH   9  12
ATOM     10  O   UNL     1      37.715 -23.923 -13.965  0.00  0.00    -0.226 OA
ATOM     11  N   UNL     1      35.744 -22.888 -14.632  0.00  0.00    -0.246 N 
ATOM     12  C   UNL     1      34.361 -21.646 -16.854  0.00  0.00    -0.017 C 
ATOM     13  C   UNL     1      35.891 -21.780 -16.827  0.00  0.00    +0.020 C 
ATOM     14  C   UNL     1      33.715 -22.769 -16.027  0.00  0.00    +0.020 C 
ATOM     15  C   UNL     1      36.416 -21.836 -15.395  0.00  0.00    +0.097 C 
ATOM     16  C   UNL     1      34.279 -22.807 -14.608  0.00  0.00    +0.097 C 
ATOM     17  C   UNL     1      36.487 -23.853 -13.948  0.00  0.00    +0.405 C 
BRANCH  17  18
ATOM     18  O   UNL     1      35.699 -24.724 -13.243  0.00  0.00    -0.430 OA
ATOM     19  C   UNL     1      36.382 -25.787 -12.567  0.00  0.00    +0.257 C 
ENDBRANCH  17  18
ENDBRANCH   9  12
ENDBRANCH   2   9
ENDBRANCH   1   3
BRANCH   1  21
ATOM     20  O   UNL     1      34.640 -14.864 -23.132  0.00  0.00    -0.270 OA
ATOM     21  N   UNL     1      34.273 -16.381 -21.418  0.00  0.00    -0.301 N 
ATOM     22  C   UNL     1      34.089 -15.184 -22.081  0.00  0.00    +0.247 C 
ATOM     23  H   UNL     1      33.783 -16.541 -20.579  0.00  0.00    +0.150 HD
BRANCH  22  26
ATOM     24  N   UNL     1      32.012 -10.874 -22.115  0.00  0.00    -0.318 N 
ATOM     25  N   UNL     1      33.397 -12.321 -23.078  0.00  0.00    -0.318 N 
ATOM     26  C   UNL     1      33.163 -14.225 -21.426  0.00  0.00    +0.068 C 
ATOM     27  C   UNL     1      32.921 -12.958 -21.961  0.00  0.00    +0.063 C 
ATOM     28  C   UNL     1      32.489 -14.549 -20.245  0.00  0.00    +0.006 C 
ATOM     29  C   UNL     1      32.058 -12.035 -21.377  0.00  0.00    +0.059 C 
ATOM     30  C   UNL     1      32.826 -11.080 -23.126  0.00  0.00    +0.144 C 
ATOM     31  C   UNL     1      31.617 -13.643 -19.636  0.00  0.00    +0.001 C 
ATOM     32  C   UNL     1      31.389 -12.377 -20.190  0.00  0.00    +0.016 C 
ATOM     33  H   UNL     1      31.484 -10.065 -21.927  0.00  0.00    +0.148 HD
ATOM     34  H   UNL     1      34.037 -12.692 -23.729  0.00  0.00    +0.148 HD
BRANCH  30  35
ATOM     35  C   UNL     1      33.062 -10.064 -24.168  0.00  0.00    +0.037 C 
ATOM     36  C   UNL     1      32.300  -8.740 -23.913  0.00  0.00    +0.003 C 
ATOM     37  C   UNL     1      34.562  -9.753 -24.390  0.00  0.00    +0.003 C 
ENDBRANCH  30  35
ENDBRANCH  22  26
ENDBRANCH   1  21
TORSDOF 7
ENDMDL
MODEL 8
REMARK VINA RESULT:     -10.8      3.764      7.197
REMARK  Name = 11961293
REMARK  7 active torsions:
REMARK  status: ('A' for Active; 'I' for Inactive)
REMARK    1  A    between atoms: C_1  and  C_3
REMARK    2  A    between atoms: C_1  and  N_21
REMARK    3  A    between atoms: N_2  and  C_9
REMARK    4  A    between atoms: C_9  and  C_12
REMARK    5  A    between atoms: C_17  and  O_18
REMARK    6  A    between atoms: C_22  and  C_26
REMARK    7  A    between atoms: C_30  and  C_35
REMARK                            x       y       z     vdW  Elec       q    Type
REMARK                         _______ _______ _______ _____ _____    ______ ____
ROOT
ATOM      1  C   UNL     1      36.257 -19.979 -18.715  0.00  0.00    +0.089 C 
ENDROOT
BRANCH   1   3
ATOM      2  N   UNL     1      33.995 -22.373 -15.921  0.00  0.00    +0.387 N 
ATOM      3  C   UNL     1      35.713 -21.207 -17.991  0.00  0.00    +0.015 C 
ATOM      4  C   UNL     1      33.627 -22.480 -17.339  0.00  0.00    -0.077 C 
ATOM      5  C   UNL     1      35.454 -22.353 -15.752  0.00  0.00    -0.077 C 
ATOM      6  C   UNL     1      34.192 -21.308 -18.145  0.00  0.00    -0.021 C 
ATOM      7  C   UNL     1      36.081 -21.176 -16.504  0.00  0.00    -0.021 C 
ATOM      8  H   UNL     1      33.625 -21.491 -15.565  0.00  0.00    -0.080 HD
BRANCH   2   9
ATOM      9  C   UNL     1      33.406 -23.471 -15.155  0.00  0.00    -0.077 C 
BRANCH   9  12
ATOM     10  O   UNL     1      27.525 -25.006 -13.781  0.00  0.00    -0.226 OA
ATOM     11  N   UNL     1      29.183 -23.476 -14.339  0.00  0.00    -0.246 N 
ATOM     12  C   UNL     1      32.040 -23.076 -14.599  0.00  0.00    -0.017 C 
ATOM     13  C   UNL     1      31.456 -24.200 -13.730  0.00  0.00    +0.020 C 
ATOM     14  C   UNL     1      31.068 -22.727 -15.738  0.00  0.00    +0.020 C 
ATOM     15  C   UNL     1      30.060 -23.843 -13.228  0.00  0.00    +0.097 C 
ATOM     16  C   UNL     1      29.678 -22.396 -15.200  0.00  0.00    +0.097 C 
ATOM     17  C   UNL     1      27.944 -24.102 -14.501  0.00  0.00    +0.405 C 
BRANCH  17  18
ATOM     18  O   UNL     1      27.231 -23.597 -15.557  0.00  0.00    -0.430 OA
ATOM     19  C   UNL     1      26.480 -22.404 -15.299  0.00  0.00    +0.257 C 
ENDBRANCH  17  18
ENDBRANCH   9  12
ENDBRANCH   2   9
ENDBRANCH   1   3
BRANCH   1  21
ATOM     20  O   UNL     1      36.847 -18.032 -20.741  0.00  0.00    -0.270 OA
ATOM     21  N   UNL     1      35.432 -19.646 -19.866  0.00  0.00    -0.301 N 
ATOM     22  C   UNL     1      35.809 -18.689 -20.787  0.00  0.00    +0.247 C 
ATOM     23  H   UNL     1      34.578 -20.119 -19.993  0.00  0.00    +0.150 HD
BRANCH  22  26
ATOM     24  N   UNL     1      33.054 -15.588 -23.170  0.00  0.00    -0.318 N 
ATOM     25  N   UNL     1      34.493 -15.969 -21.520  0.00  0.00    -0.318 N 
ATOM     26  C   UNL     1      34.846 -18.448 -21.891  0.00  0.00    +0.068 C 
ATOM     27  C   UNL     1      34.313 -17.180 -22.136  0.00  0.00    +0.063 C 
ATOM     28  C   UNL     1      34.431 -19.479 -22.739  0.00  0.00    +0.006 C 
ATOM     29  C   UNL     1      33.412 -16.916 -23.164  0.00  0.00    +0.059 C 
ATOM     30  C   UNL     1      33.721 -15.050 -22.173  0.00  0.00    +0.144 C 
ATOM     31  C   UNL     1      33.527 -19.245 -23.779  0.00  0.00    +0.001 C 
ATOM     32  C   UNL     1      33.005 -17.965 -24.005  0.00  0.00    +0.016 C 
ATOM     33  H   UNL     1      32.434 -15.137 -23.788  0.00  0.00    +0.148 HD
ATOM     34  H   UNL     1      35.075 -15.793 -20.745  0.00  0.00    +0.148 HD
BRANCH  30  35
ATOM     35  C   UNL     1      33.616 -13.618 -21.837  0.00  0.00    +0.037 C 
ATOM     36  C   UNL     1      33.334 -12.721 -23.066  0.00  0.00    +0.003 C 
ATOM     37  C   UNL     1      32.565 -13.323 -20.739  0.00  0.00    +0.003 C 
ENDBRANCH  30  35
ENDBRANCH  22  26
ENDBRANCH   1  21
TORSDOF 7
ENDMDL
MODEL 9
REMARK VINA RESULT:     -10.7      3.936      7.744
REMARK  Name = 11961293
REMARK  7 active torsions:
REMARK  status: ('A' for Active; 'I' for Inactive)
REMARK    1  A    between atoms: C_1  and  C_3
REMARK    2  A    between atoms: C_1  and  N_21
REMARK    3  A    between atoms: N_2  and  C_9
REMARK    4  A    between atoms: C_9  and  C_12
REMARK    5  A    between atoms: C_17  and  O_18
REMARK    6  A    between atoms: C_22  and  C_26
REMARK    7  A    between atoms: C_30  and  C_35
REMARK                            x       y       z     vdW  Elec       q    Type
REMARK                         _______ _______ _______ _____ _____    ______ ____
ROOT
ATOM      1  C   UNL     1      35.943 -20.843 -18.925  0.00  0.00    +0.089 C 
ENDROOT
BRANCH   1   3
ATOM      2  N   UNL     1      33.700 -22.943 -15.890  0.00  0.00    +0.387 N 
ATOM      3  C   UNL     1      34.952 -21.098 -17.793  0.00  0.00    +0.015 C 
ATOM      4  C   UNL     1      34.674 -21.947 -15.427  0.00  0.00    -0.077 C 
ATOM      5  C   UNL     1      32.948 -22.449 -17.051  0.00  0.00    -0.077 C 
ATOM      6  C   UNL     1      35.670 -21.594 -16.533  0.00  0.00    -0.021 C 
ATOM      7  C   UNL     1      33.885 -22.114 -18.214  0.00  0.00    -0.021 C 
ATOM      8  H   UNL     1      34.213 -23.776 -16.179  0.00  0.00    -0.080 HD
BRANCH   2   9
ATOM      9  C   UNL     1      32.787 -23.309 -14.807  0.00  0.00    -0.077 C 
BRANCH   9  12
ATOM     10  O   UNL     1      37.323 -24.539 -10.716  0.00  0.00    -0.226 OA
ATOM     11  N   UNL     1      35.734 -25.173 -12.289  0.00  0.00    -0.246 N 
ATOM     12  C   UNL     1      33.454 -24.281 -13.837  0.00  0.00    -0.017 C 
ATOM     13  C   UNL     1      33.893 -23.559 -12.554  0.00  0.00    +0.020 C 
ATOM     14  C   UNL     1      34.660 -24.968 -14.498  0.00  0.00    +0.020 C 
ATOM     15  C   UNL     1      34.624 -24.508 -11.608  0.00  0.00    +0.097 C 
ATOM     16  C   UNL     1      35.378 -25.893 -13.516  0.00  0.00    +0.097 C 
ATOM     17  C   UNL     1      37.021 -25.140 -11.745  0.00  0.00    +0.405 C 
BRANCH  17  18
ATOM     18  O   UNL     1      37.924 -25.859 -12.482  0.00  0.00    -0.430 OA
ATOM     19  C   UNL     1      39.011 -25.116 -13.048  0.00  0.00    +0.257 C 
ENDBRANCH  17  18
ENDBRANCH   9  12
ENDBRANCH   2   9
ENDBRANCH   1   3
BRANCH   1  21
ATOM     20  O   UNL     1      36.099 -18.158 -19.931  0.00  0.00    -0.270 OA
ATOM     21  N   UNL     1      35.266 -20.315 -20.100  0.00  0.00    -0.301 N 
ATOM     22  C   UNL     1      35.409 -19.001 -20.500  0.00  0.00    +0.247 C 
ATOM     23  H   UNL     1      34.688 -20.913 -20.626  0.00  0.00    +0.150 HD
BRANCH  22  26
ATOM     24  N   UNL     1      33.185 -15.551 -22.957  0.00  0.00    -0.318 N 
ATOM     25  N   UNL     1      34.344 -16.155 -21.160  0.00  0.00    -0.318 N 
ATOM     26  C   UNL     1      34.633 -18.610 -21.704  0.00  0.00    +0.068 C 
ATOM     27  C   UNL     1      34.201 -17.297 -21.905  0.00  0.00    +0.063 C 
ATOM     28  C   UNL     1      34.301 -19.540 -22.695  0.00  0.00    +0.006 C 
ATOM     29  C   UNL     1      33.476 -16.894 -23.022  0.00  0.00    +0.059 C 
ATOM     30  C   UNL     1      33.720 -15.140 -21.829  0.00  0.00    +0.144 C 
ATOM     31  C   UNL     1      33.573 -19.164 -23.827  0.00  0.00    +0.001 C 
ATOM     32  C   UNL     1      33.150 -17.842 -24.007  0.00  0.00    +0.016 C 
ATOM     33  H   UNL     1      32.685 -15.013 -23.613  0.00  0.00    +0.148 HD
ATOM     34  H   UNL     1      34.812 -16.081 -20.296  0.00  0.00    +0.148 HD
BRANCH  30  35
ATOM     35  C   UNL     1      33.634 -13.738 -21.380  0.00  0.00    +0.037 C 
ATOM     36  C   UNL     1      33.419 -12.737 -22.541  0.00  0.00    +0.003 C 
ATOM     37  C   UNL     1      32.547 -13.507 -20.301  0.00  0.00    +0.003 C 
ENDBRANCH  30  35
ENDBRANCH  22  26
ENDBRANCH   1  21
TORSDOF 7
ENDMDL
