MODEL 1
REMARK VINA RESULT:     -12.0      0.000      0.000
REMARK  Name = 448903
REMARK  11 active torsions:
REMARK  status: ('A' for Active; 'I' for Inactive)
REMARK    1  A    between atoms: N_1  and  C_22
REMARK    2  A    between atoms: C_8  and  N_11
REMARK    3  A    between atoms: C_12  and  C_14
REMARK    4  A    between atoms: C_14  and  C_15
REMARK    5  A    between atoms: C_15  and  C_16
REMARK    6  A    between atoms: C_22  and  C_23
REMARK    7  A    between atoms: C_23  and  C_24
REMARK    8  A    between atoms: C_24  and  N_25
REMARK    9  A    between atoms: C_24  and  C_35
REMARK   10  A    between atoms: C_29  and  C_32
REMARK   11  A    between atoms: C_35  and  O_36
REMARK                            x       y       z     vdW  Elec       q    Type
REMARK                         _______ _______ _______ _____ _____    ______ ____
ROOT
ATOM      1  N   UNL     1      31.609 -24.490 -13.223  0.00  0.00    -0.286 N 
ATOM      2  C   UNL     1      31.026 -23.737 -14.218  0.00  0.00    +0.053 C 
ATOM      3  C   UNL     1      29.647 -23.765 -13.999  0.00  0.00    +0.015 C 
ATOM      4  C   UNL     1      30.649 -24.990 -12.385  0.00  0.00    +0.065 C 
ATOM      5  C   UNL     1      29.425 -24.558 -12.838  0.00  0.00    +0.017 C 
ATOM      6  C   UNL     1      31.608 -23.042 -15.284  0.00  0.00    +0.029 C 
ATOM      7  C   UNL     1      28.805 -23.065 -14.887  0.00  0.00    +0.003 C 
ATOM      8  C   UNL     1      30.753 -22.354 -16.151  0.00  0.00    +0.052 C 
ATOM      9  C   UNL     1      29.373 -22.364 -15.956  0.00  0.00    +0.015 C 
ENDROOT
BRANCH   8  11
ATOM     10  O   UNL     1      32.888 -23.129 -18.121  0.00  0.00    -0.275 OA
ATOM     11  N   UNL     1      31.293 -21.647 -17.226  0.00  0.00    -0.284 N 
ATOM     12  C   UNL     1      32.282 -22.061 -18.127  0.00  0.00    +0.226 C 
ATOM     13  H   UNL     1      30.933 -20.741 -17.369  0.00  0.00    +0.155 HD
BRANCH  12  14
ATOM     14  C   UNL     1      32.604 -21.000 -19.167  0.00  0.00    +0.090 C 
BRANCH  14  15
ATOM     15  C   UNL     1      34.103 -20.701 -19.224  0.00  0.00    +0.036 C 
BRANCH  15  16
ATOM     16  C   UNL     1      34.471 -19.686 -20.279  0.00  0.00    -0.022 C 
ATOM     17  C   UNL     1      33.531 -19.298 -21.232  0.00  0.00    -0.004 C 
ATOM     18  C   UNL     1      35.753 -19.136 -20.299  0.00  0.00    -0.004 C 
ATOM     19  C   UNL     1      33.872 -18.361 -22.207  0.00  0.00    -0.000 C 
ATOM     20  C   UNL     1      36.094 -18.198 -21.274  0.00  0.00    -0.000 C 
ATOM     21  C   UNL     1      35.153 -17.811 -22.228  0.00  0.00    -0.000 C 
ENDBRANCH  15  16
ENDBRANCH  14  15
ENDBRANCH  12  14
ENDBRANCH   8  11
BRANCH   1  22
ATOM     22  C   UNL     1      33.028 -24.728 -13.071  0.00  0.00    +0.097 C 
BRANCH  22  23
ATOM     23  C   UNL     1      33.703 -23.864 -11.998  0.00  0.00    +0.040 C 
BRANCH  23  24
ATOM     24  C   UNL     1      35.013 -24.442 -11.417  0.00  0.00    +0.091 C 
BRANCH  24  25
ATOM     25  N   UNL     1      36.149 -24.381 -12.351  0.00  0.00    -0.246 NA
ATOM     26  N   UNL     1      37.604 -23.719 -13.894  0.00  0.00    -0.251 NA
ATOM     27  C   UNL     1      37.112 -25.341 -12.535  0.00  0.00    +0.125 C 
ATOM     28  C   UNL     1      36.474 -23.417 -13.184  0.00  0.00    +0.201 C 
ATOM     29  C   UNL     1      38.025 -24.954 -13.487  0.00  0.00    +0.124 C 
BRANCH  29  32
ATOM     30  O   UNL     1      39.531 -25.628 -15.181  0.00  0.00    -0.269 OA
ATOM     31  N   UNL     1      39.956 -26.352 -13.062  0.00  0.00    -0.324 N 
ATOM     32  C   UNL     1      39.172 -25.641 -13.979  0.00  0.00    +0.257 C 
ATOM     33  H   UNL     1      40.756 -26.837 -13.370  0.00  0.00    +0.145 HD
ATOM     34  H   UNL     1      39.708 -26.367 -12.109  0.00  0.00    +0.145 HD
ENDBRANCH  29  32
ENDBRANCH  24  25
BRANCH  24  35
ATOM     35  C   UNL     1      35.369 -23.749 -10.092  0.00  0.00    +0.153 C 
BRANCH  35  36
ATOM     36  O   UNL     1      34.593 -24.304  -9.036  0.00  0.00    -0.381 OA
ATOM     37  H   UNL     1      33.678 -23.991  -9.109  0.00  0.00    +0.210 HD
ENDBRANCH  35  36
ENDBRANCH  24  35
ENDBRANCH  23  24
ENDBRANCH  22  23
ENDBRANCH   1  22
TORSDOF 11
ENDMDL
MODEL 2
REMARK VINA RESULT:     -11.0      2.736      6.657
REMARK  Name = 448903
REMARK  11 active torsions:
REMARK  status: ('A' for Active; 'I' for Inactive)
REMARK    1  A    between atoms: N_1  and  C_22
REMARK    2  A    between atoms: C_8  and  N_11
REMARK    3  A    between atoms: C_12  and  C_14
REMARK    4  A    between atoms: C_14  and  C_15
REMARK    5  A    between atoms: C_15  and  C_16
REMARK    6  A    between atoms: C_22  and  C_23
REMARK    7  A    between atoms: C_23  and  C_24
REMARK    8  A    between atoms: C_24  and  N_25
REMARK    9  A    between atoms: C_24  and  C_35
REMARK   10  A    between atoms: C_29  and  C_32
REMARK   11  A    between atoms: C_35  and  O_36
REMARK                            x       y       z     vdW  Elec       q    Type
REMARK                         _______ _______ _______ _____ _____    ______ ____
ROOT
ATOM      1  N   UNL     1      34.234 -23.865 -14.031  0.00  0.00    -0.286 N 
ATOM      2  C   UNL     1      34.798 -23.043 -14.981  0.00  0.00    +0.053 C 
ATOM      3  C   UNL     1      36.143 -22.883 -14.637  0.00  0.00    +0.015 C 
ATOM      4  C   UNL     1      35.172 -24.229 -13.103  0.00  0.00    +0.065 C 
ATOM      5  C   UNL     1      36.363 -23.638 -13.451  0.00  0.00    +0.017 C 
ATOM      6  C   UNL     1      34.228 -22.436 -16.105  0.00  0.00    +0.029 C 
ATOM      7  C   UNL     1      36.960 -22.077 -15.455  0.00  0.00    +0.003 C 
ATOM      8  C   UNL     1      35.059 -21.642 -16.902  0.00  0.00    +0.052 C 
ATOM      9  C   UNL     1      36.404 -21.465 -16.584  0.00  0.00    +0.015 C 
ENDROOT
BRANCH   8  11
ATOM     10  O   UNL     1      32.509 -22.167 -18.405  0.00  0.00    -0.275 OA
ATOM     11  N   UNL     1      34.530 -21.020 -18.034  0.00  0.00    -0.284 N 
ATOM     12  C   UNL     1      33.325 -21.295 -18.691  0.00  0.00    +0.226 C 
ATOM     13  H   UNL     1      35.074 -20.295 -18.421  0.00  0.00    +0.155 HD
BRANCH  12  14
ATOM     14  C   UNL     1      33.098 -20.395 -19.895  0.00  0.00    +0.090 C 
BRANCH  14  15
ATOM     15  C   UNL     1      34.370 -19.641 -20.284  0.00  0.00    +0.036 C 
BRANCH  15  16
ATOM     16  C   UNL     1      34.163 -18.658 -21.411  0.00  0.00    -0.022 C 
ATOM     17  C   UNL     1      34.525 -17.322 -21.246  0.00  0.00    -0.004 C 
ATOM     18  C   UNL     1      33.609 -19.088 -22.617  0.00  0.00    -0.004 C 
ATOM     19  C   UNL     1      34.333 -16.414 -22.287  0.00  0.00    -0.000 C 
ATOM     20  C   UNL     1      33.417 -18.179 -23.658  0.00  0.00    -0.000 C 
ATOM     21  C   UNL     1      33.779 -16.842 -23.493  0.00  0.00    -0.000 C 
ENDBRANCH  15  16
ENDBRANCH  14  15
ENDBRANCH  12  14
ENDBRANCH   8  11
BRANCH   1  22
ATOM     22  C   UNL     1      32.851 -24.291 -14.004  0.00  0.00    +0.097 C 
BRANCH  22  23
ATOM     23  C   UNL     1      31.834 -23.146 -14.106  0.00  0.00    +0.040 C 
BRANCH  23  24
ATOM     24  C   UNL     1      30.494 -23.390 -13.376  0.00  0.00    +0.091 C 
BRANCH  24  25
ATOM     25  N   UNL     1      29.345 -23.529 -14.286  0.00  0.00    -0.246 NA
ATOM     26  N   UNL     1      27.836 -24.335 -15.702  0.00  0.00    -0.251 NA
ATOM     27  C   UNL     1      28.436 -22.554 -14.613  0.00  0.00    +0.125 C 
ATOM     28  C   UNL     1      28.955 -24.589 -14.958  0.00  0.00    +0.201 C 
ATOM     29  C   UNL     1      27.490 -23.030 -15.490  0.00  0.00    +0.124 C 
BRANCH  29  32
ATOM     30  O   UNL     1      26.070 -22.455 -17.290  0.00  0.00    -0.269 OA
ATOM     31  N   UNL     1      25.571 -21.574 -15.249  0.00  0.00    -0.324 N 
ATOM     32  C   UNL     1      26.378 -22.362 -16.078  0.00  0.00    +0.257 C 
ATOM     33  H   UNL     1      24.794 -21.100 -15.624  0.00  0.00    +0.145 HD
ATOM     34  H   UNL     1      25.779 -21.495 -14.289  0.00  0.00    +0.145 HD
ENDBRANCH  29  32
ENDBRANCH  24  25
BRANCH  24  35
ATOM     35  C   UNL     1      30.598 -24.614 -12.451  0.00  0.00    +0.153 C 
BRANCH  35  36
ATOM     36  O   UNL     1      29.502 -24.623 -11.543  0.00  0.00    -0.381 OA
ATOM     37  H   UNL     1      29.757 -24.171 -10.723  0.00  0.00    +0.210 HD
ENDBRANCH  35  36
ENDBRANCH  24  35
ENDBRANCH  23  24
ENDBRANCH  22  23
ENDBRANCH   1  22
TORSDOF 11
ENDMDL
MODEL 3
REMARK VINA RESULT:     -10.9      7.186     11.998
REMARK  Name = 448903
REMARK  11 active torsions:
REMARK  status: ('A' for Active; 'I' for Inactive)
REMARK    1  A    between atoms: N_1  and  C_22
REMARK    2  A    between atoms: C_8  and  N_11
REMARK    3  A    between atoms: C_12  and  C_14
REMARK    4  A    between atoms: C_14  and  C_15
REMARK    5  A    between atoms: C_15  and  C_16
REMARK    6  A    between atoms: C_22  and  C_23
REMARK    7  A    between atoms: C_23  and  C_24
REMARK    8  A    between atoms: C_24  and  N_25
REMARK    9  A    between atoms: C_24  and  C_35
REMARK   10  A    between atoms: C_29  and  C_32
REMARK   11  A    between atoms: C_35  and  O_36
REMARK                            x       y       z     vdW  Elec       q    Type
REMARK                         _______ _______ _______ _____ _____    ______ ____
ROOT
ATOM      1  N   UNL     1      33.626 -15.782 -22.789  0.00  0.00    -0.286 N 
ATOM      2  C   UNL     1      33.360 -14.579 -23.404  0.00  0.00    +0.053 C 
ATOM      3  C   UNL     1      32.785 -14.870 -24.643  0.00  0.00    +0.015 C 
ATOM      4  C   UNL     1      33.239 -16.819 -23.594  0.00  0.00    +0.065 C 
ATOM      5  C   UNL     1      32.714 -16.287 -24.748  0.00  0.00    +0.017 C 
ATOM      6  C   UNL     1      33.583 -13.270 -22.962  0.00  0.00    +0.029 C 
ATOM      7  C   UNL     1      32.413 -13.802 -25.485  0.00  0.00    +0.003 C 
ATOM      8  C   UNL     1      33.205 -12.227 -23.814  0.00  0.00    +0.052 C 
ATOM      9  C   UNL     1      32.628 -12.487 -25.056  0.00  0.00    +0.015 C 
ENDROOT
BRANCH   8  11
ATOM     10  O   UNL     1      34.858 -10.042 -25.052  0.00  0.00    -0.275 OA
ATOM     11  N   UNL     1      33.408 -10.906 -23.411  0.00  0.00    -0.284 N 
ATOM     12  C   UNL     1      34.182  -9.920 -24.035  0.00  0.00    +0.226 C 
ATOM     13  H   UNL     1      32.950 -10.634 -22.583  0.00  0.00    +0.155 HD
BRANCH  12  14
ATOM     14  C   UNL     1      34.153  -8.597 -23.285  0.00  0.00    +0.090 C 
BRANCH  14  15
ATOM     15  C   UNL     1      32.745  -8.003 -23.241  0.00  0.00    +0.036 C 
BRANCH  15  16
ATOM     16  C   UNL     1      32.162  -7.949 -21.849  0.00  0.00    -0.022 C 
ATOM     17  C   UNL     1      32.503  -6.905 -20.991  0.00  0.00    -0.004 C 
ATOM     18  C   UNL     1      31.282  -8.944 -21.423  0.00  0.00    -0.004 C 
ATOM     19  C   UNL     1      31.964  -6.855 -19.705  0.00  0.00    -0.000 C 
ATOM     20  C   UNL     1      30.743  -8.894 -20.137  0.00  0.00    -0.000 C 
ATOM     21  C   UNL     1      31.085  -7.850 -19.278  0.00  0.00    -0.000 C 
ENDBRANCH  15  16
ENDBRANCH  14  15
ENDBRANCH  12  14
ENDBRANCH   8  11
BRANCH   1  22
ATOM     22  C   UNL     1      34.227 -15.944 -21.483  0.00  0.00    +0.097 C 
BRANCH  22  23
ATOM     23  C   UNL     1      33.979 -17.314 -20.838  0.00  0.00    +0.040 C 
BRANCH  23  24
ATOM     24  C   UNL     1      35.250 -18.144 -20.548  0.00  0.00    +0.091 C 
BRANCH  24  25
ATOM     25  N   UNL     1      34.983 -19.395 -19.820  0.00  0.00    -0.246 NA
ATOM     26  N   UNL     1      35.207 -21.242 -18.606  0.00  0.00    -0.251 NA
ATOM     27  C   UNL     1      33.770 -20.025 -19.689  0.00  0.00    +0.125 C 
ATOM     28  C   UNL     1      35.827 -20.153 -19.156  0.00  0.00    +0.201 C 
ATOM     29  C   UNL     1      33.884 -21.173 -18.941  0.00  0.00    +0.124 C 
BRANCH  29  32
ATOM     30  O   UNL     1      33.014 -23.357 -18.693  0.00  0.00    -0.269 OA
ATOM     31  N   UNL     1      31.700 -21.628 -18.000  0.00  0.00    -0.324 N 
ATOM     32  C   UNL     1      32.885 -22.116 -18.565  0.00  0.00    +0.257 C 
ATOM     33  H   UNL     1      30.990 -22.254 -17.730  0.00  0.00    +0.145 HD
ATOM     34  H   UNL     1      31.577 -20.659 -17.873  0.00  0.00    +0.145 HD
ENDBRANCH  29  32
ENDBRANCH  24  25
BRANCH  24  35
ATOM     35  C   UNL     1      36.016 -18.433 -21.850  0.00  0.00    +0.153 C 
BRANCH  35  36
ATOM     36  O   UNL     1      37.407 -18.216 -21.645  0.00  0.00    -0.381 OA
ATOM     37  H   UNL     1      37.853 -19.069 -21.523  0.00  0.00    +0.210 HD
ENDBRANCH  35  36
ENDBRANCH  24  35
ENDBRANCH  23  24
ENDBRANCH  22  23
ENDBRANCH   1  22
TORSDOF 11
ENDMDL
MODEL 4
REMARK VINA RESULT:     -10.8      2.051      2.893
REMARK  Name = 448903
REMARK  11 active torsions:
REMARK  status: ('A' for Active; 'I' for Inactive)
REMARK    1  A    between atoms: N_1  and  C_22
REMARK    2  A    between atoms: C_8  and  N_11
REMARK    3  A    between atoms: C_12  and  C_14
REMARK    4  A    between atoms: C_14  and  C_15
REMARK    5  A    between atoms: C_15  and  C_16
REMARK    6  A    between atoms: C_22  and  C_23
REMARK    7  A    between atoms: C_23  and  C_24
REMARK    8  A    between atoms: C_24  and  N_25
REMARK    9  A    between atoms: C_24  and  C_35
REMARK   10  A    between atoms: C_29  and  C_32
REMARK   11  A    between atoms: C_35  and  O_36
REMARK                            x       y       z     vdW  Elec       q    Type
REMARK                         _______ _______ _______ _____ _____    ______ ____
ROOT
ATOM      1  N   UNL     1      32.037 -23.899 -12.928  0.00  0.00    -0.286 N 
ATOM      2  C   UNL     1      31.382 -23.471 -14.061  0.00  0.00    +0.053 C 
ATOM      3  C   UNL     1      30.077 -23.968 -13.992  0.00  0.00    +0.015 C 
ATOM      4  C   UNL     1      31.195 -24.645 -12.148  0.00  0.00    +0.065 C 
ATOM      5  C   UNL     1      29.975 -24.705 -12.779  0.00  0.00    +0.017 C 
ATOM      6  C   UNL     1      31.838 -22.691 -15.129  0.00  0.00    +0.029 C 
ATOM      7  C   UNL     1      29.184 -23.672 -15.041  0.00  0.00    +0.003 C 
ATOM      8  C   UNL     1      30.933 -22.411 -16.158  0.00  0.00    +0.052 C 
ATOM      9  C   UNL     1      29.626 -22.892 -16.116  0.00  0.00    +0.015 C 
ENDROOT
BRANCH   8  11
ATOM     10  O   UNL     1      32.934 -22.996 -18.324  0.00  0.00    -0.275 OA
ATOM     11  N   UNL     1      31.348 -21.635 -17.241  0.00  0.00    -0.284 N 
ATOM     12  C   UNL     1      32.279 -21.962 -18.235  0.00  0.00    +0.226 C 
ATOM     13  H   UNL     1      30.934 -20.744 -17.316  0.00  0.00    +0.155 HD
BRANCH  12  14
ATOM     14  C   UNL     1      32.462 -20.846 -19.251  0.00  0.00    +0.090 C 
BRANCH  14  15
ATOM     15  C   UNL     1      33.941 -20.536 -19.489  0.00  0.00    +0.036 C 
BRANCH  15  16
ATOM     16  C   UNL     1      34.173 -19.542 -20.601  0.00  0.00    -0.022 C 
ATOM     17  C   UNL     1      33.230 -19.401 -21.618  0.00  0.00    -0.004 C 
ATOM     18  C   UNL     1      35.331 -18.764 -20.611  0.00  0.00    -0.004 C 
ATOM     19  C   UNL     1      33.444 -18.483 -22.646  0.00  0.00    -0.000 C 
ATOM     20  C   UNL     1      35.546 -17.846 -21.639  0.00  0.00    -0.000 C 
ATOM     21  C   UNL     1      34.602 -17.705 -22.657  0.00  0.00    -0.000 C 
ENDBRANCH  15  16
ENDBRANCH  14  15
ENDBRANCH  12  14
ENDBRANCH   8  11
BRANCH   1  22
ATOM     22  C   UNL     1      33.415 -23.611 -12.595  0.00  0.00    +0.097 C 
BRANCH  22  23
ATOM     23  C   UNL     1      34.363 -24.810 -12.732  0.00  0.00    +0.040 C 
BRANCH  23  24
ATOM     24  C   UNL     1      34.937 -25.034 -14.149  0.00  0.00    +0.091 C 
BRANCH  24  25
ATOM     25  N   UNL     1      35.758 -23.913 -14.636  0.00  0.00    -0.246 NA
ATOM     26  N   UNL     1      37.439 -22.510 -15.009  0.00  0.00    -0.251 NA
ATOM     27  C   UNL     1      35.358 -22.912 -15.485  0.00  0.00    +0.125 C 
ATOM     28  C   UNL     1      37.016 -23.642 -14.368  0.00  0.00    +0.201 C 
ATOM     29  C   UNL     1      36.384 -22.029 -15.731  0.00  0.00    +0.124 C 
BRANCH  29  32
ATOM     30  O   UNL     1      35.761 -20.751 -17.620  0.00  0.00    -0.269 OA
ATOM     31  N   UNL     1      37.158 -19.767 -16.112  0.00  0.00    -0.324 N 
ATOM     32  C   UNL     1      36.401 -20.861 -16.547  0.00  0.00    +0.257 C 
ATOM     33  H   UNL     1      37.190 -18.945 -16.653  0.00  0.00    +0.145 HD
ATOM     34  H   UNL     1      37.658 -19.818 -15.265  0.00  0.00    +0.145 HD
ENDBRANCH  29  32
ENDBRANCH  24  25
BRANCH  24  35
ATOM     35  C   UNL     1      35.733 -26.348 -14.209  0.00  0.00    +0.153 C 
BRANCH  35  36
ATOM     36  O   UNL     1      35.651 -26.899 -15.518  0.00  0.00    -0.381 OA
ATOM     37  H   UNL     1      36.476 -26.721 -15.997  0.00  0.00    +0.210 HD
ENDBRANCH  35  36
ENDBRANCH  24  35
ENDBRANCH  23  24
ENDBRANCH  22  23
ENDBRANCH   1  22
TORSDOF 11
ENDMDL
MODEL 5
REMARK VINA RESULT:     -10.5      8.934     13.712
REMARK  Name = 448903
REMARK  11 active torsions:
REMARK  status: ('A' for Active; 'I' for Inactive)
REMARK    1  A    between atoms: N_1  and  C_22
REMARK    2  A    between atoms: C_8  and  N_11
REMARK    3  A    between atoms: C_12  and  C_14
REMARK    4  A    between atoms: C_14  and  C_15
REMARK    5  A    between atoms: C_15  and  C_16
REMARK    6  A    between atoms: C_22  and  C_23
REMARK    7  A    between atoms: C_23  and  C_24
REMARK    8  A    between atoms: C_24  and  N_25
REMARK    9  A    between atoms: C_24  and  C_35
REMARK   10  A    between atoms: C_29  and  C_32
REMARK   11  A    between atoms: C_35  and  O_36
REMARK                            x       y       z     vdW  Elec       q    Type
REMARK                         _______ _______ _______ _____ _____    ______ ____
ROOT
ATOM      1  N   UNL     1      32.012 -12.694 -21.438  0.00  0.00    -0.286 N 
ATOM      2  C   UNL     1      31.528 -11.523 -20.901  0.00  0.00    +0.053 C 
ATOM      3  C   UNL     1      31.059 -11.823 -19.619  0.00  0.00    +0.015 C 
ATOM      4  C   UNL     1      31.868 -13.720 -20.544  0.00  0.00    +0.065 C 
ATOM      5  C   UNL     1      31.281 -13.213 -19.408  0.00  0.00    +0.017 C 
ATOM      6  C   UNL     1      31.469 -10.235 -21.444  0.00  0.00    +0.029 C 
ATOM      7  C   UNL     1      30.504 -10.788 -18.841  0.00  0.00    +0.003 C 
ATOM      8  C   UNL     1      30.915  -9.224 -20.653  0.00  0.00    +0.052 C 
ATOM      9  C   UNL     1      30.440  -9.494 -19.371  0.00  0.00    +0.015 C 
ENDROOT
BRANCH   8  11
ATOM     10  O   UNL     1      32.206  -6.682 -19.699  0.00  0.00    -0.275 OA
ATOM     11  N   UNL     1      30.838  -7.925 -21.157  0.00  0.00    -0.284 N 
ATOM     12  C   UNL     1      31.474  -6.772 -20.680  0.00  0.00    +0.226 C 
ATOM     13  H   UNL     1      30.264  -7.803 -21.948  0.00  0.00    +0.155 HD
BRANCH  12  14
ATOM     14  C   UNL     1      31.139  -5.538 -21.504  0.00  0.00    +0.090 C 
BRANCH  14  15
ATOM     15  C   UNL     1      32.165  -5.304 -22.613  0.00  0.00    +0.036 C 
BRANCH  15  16
ATOM     16  C   UNL     1      32.737  -6.581 -23.179  0.00  0.00    -0.022 C 
ATOM     17  C   UNL     1      33.991  -7.027 -22.765  0.00  0.00    -0.004 C 
ATOM     18  C   UNL     1      32.009  -7.316 -24.116  0.00  0.00    -0.004 C 
ATOM     19  C   UNL     1      34.520  -8.207 -23.289  0.00  0.00    -0.000 C 
ATOM     20  C   UNL     1      32.538  -8.496 -24.639  0.00  0.00    -0.000 C 
ATOM     21  C   UNL     1      33.793  -8.942 -24.226  0.00  0.00    -0.000 C 
ENDBRANCH  15  16
ENDBRANCH  14  15
ENDBRANCH  12  14
ENDBRANCH   8  11
BRANCH   1  22
ATOM     22  C   UNL     1      32.593 -12.837 -22.756  0.00  0.00    +0.097 C 
BRANCH  22  23
ATOM     23  C   UNL     1      33.797 -13.787 -22.817  0.00  0.00    +0.040 C 
BRANCH  23  24
ATOM     24  C   UNL     1      33.672 -14.941 -23.837  0.00  0.00    +0.091 C 
BRANCH  24  25
ATOM     25  N   UNL     1      33.860 -16.275 -23.243  0.00  0.00    -0.246 NA
ATOM     26  N   UNL     1      33.834 -18.465 -22.877  0.00  0.00    -0.251 NA
ATOM     27  C   UNL     1      34.486 -16.563 -22.056  0.00  0.00    +0.125 C 
ATOM     28  C   UNL     1      33.479 -17.442 -23.712  0.00  0.00    +0.201 C 
ATOM     29  C   UNL     1      34.482 -17.915 -21.807  0.00  0.00    +0.124 C 
BRANCH  29  32
ATOM     30  O   UNL     1      34.339 -19.395 -19.969  0.00  0.00    -0.269 OA
ATOM     31  N   UNL     1      36.387 -18.510 -20.435  0.00  0.00    -0.324 N 
ATOM     32  C   UNL     1      35.018 -18.637 -20.702  0.00  0.00    +0.257 C 
ATOM     33  H   UNL     1      36.788 -18.996 -19.679  0.00  0.00    +0.145 HD
ATOM     34  H   UNL     1      36.948 -17.934 -21.004  0.00  0.00    +0.145 HD
ENDBRANCH  29  32
ENDBRANCH  24  25
BRANCH  24  35
ATOM     35  C   UNL     1      32.325 -14.866 -24.576  0.00  0.00    +0.153 C 
BRANCH  35  36
ATOM     36  O   UNL     1      32.547 -14.558 -25.947  0.00  0.00    -0.381 OA
ATOM     37  H   UNL     1      31.695 -14.489 -26.405  0.00  0.00    +0.210 HD
ENDBRANCH  35  36
ENDBRANCH  24  35
ENDBRANCH  23  24
ENDBRANCH  22  23
ENDBRANCH   1  22
TORSDOF 11
ENDMDL
MODEL 6
REMARK VINA RESULT:     -10.5      2.756      6.281
REMARK  Name = 448903
REMARK  11 active torsions:
REMARK  status: ('A' for Active; 'I' for Inactive)
REMARK    1  A    between atoms: N_1  and  C_22
REMARK    2  A    between atoms: C_8  and  N_11
REMARK    3  A    between atoms: C_12  and  C_14
REMARK    4  A    between atoms: C_14  and  C_15
REMARK    5  A    between atoms: C_15  and  C_16
REMARK    6  A    between atoms: C_22  and  C_23
REMARK    7  A    between atoms: C_23  and  C_24
REMARK    8  A    between atoms: C_24  and  N_25
REMARK    9  A    between atoms: C_24  and  C_35
REMARK   10  A    between atoms: C_29  and  C_32
REMARK   11  A    between atoms: C_35  and  O_36
REMARK                            x       y       z     vdW  Elec       q    Type
REMARK                         _______ _______ _______ _____ _____    ______ ____
ROOT
ATOM      1  N   UNL     1      33.509 -22.008 -17.607  0.00  0.00    -0.286 N 
ATOM      2  C   UNL     1      33.980 -21.119 -18.547  0.00  0.00    +0.053 C 
ATOM      3  C   UNL     1      35.333 -20.908 -18.269  0.00  0.00    +0.015 C 
ATOM      4  C   UNL     1      34.513 -22.366 -16.749  0.00  0.00    +0.065 C 
ATOM      5  C   UNL     1      35.655 -21.703 -17.133  0.00  0.00    +0.017 C 
ATOM      6  C   UNL     1      33.320 -20.492 -19.609  0.00  0.00    +0.029 C 
ATOM      7  C   UNL     1      36.064 -20.028 -19.092  0.00  0.00    +0.003 C 
ATOM      8  C   UNL     1      34.066 -19.623 -20.412  0.00  0.00    +0.052 C 
ATOM      9  C   UNL     1      35.418 -19.395 -20.159  0.00  0.00    +0.015 C 
ENDROOT
BRANCH   8  11
ATOM     10  O   UNL     1      34.681 -19.697 -23.354  0.00  0.00    -0.275 OA
ATOM     11  N   UNL     1      33.446 -18.978 -21.483  0.00  0.00    -0.284 N 
ATOM     12  C   UNL     1      33.765 -19.058 -22.844  0.00  0.00    +0.226 C 
ATOM     13  H   UNL     1      32.689 -18.393 -21.253  0.00  0.00    +0.155 HD
BRANCH  12  14
ATOM     14  C   UNL     1      32.852 -18.202 -23.708  0.00  0.00    +0.090 C 
BRANCH  14  15
ATOM     15  C   UNL     1      33.606 -17.031 -24.339  0.00  0.00    +0.036 C 
BRANCH  15  16
ATOM     16  C   UNL     1      33.368 -15.717 -23.635  0.00  0.00    -0.022 C 
ATOM     17  C   UNL     1      33.859 -15.516 -22.346  0.00  0.00    -0.004 C 
ATOM     18  C   UNL     1      32.657 -14.702 -24.276  0.00  0.00    -0.004 C 
ATOM     19  C   UNL     1      33.638 -14.302 -21.695  0.00  0.00    -0.000 C 
ATOM     20  C   UNL     1      32.436 -13.487 -23.626  0.00  0.00    -0.000 C 
ATOM     21  C   UNL     1      32.926 -13.288 -22.336  0.00  0.00    -0.000 C 
ENDBRANCH  15  16
ENDBRANCH  14  15
ENDBRANCH  12  14
ENDBRANCH   8  11
BRANCH   1  22
ATOM     22  C   UNL     1      32.151 -22.502 -17.524  0.00  0.00    +0.097 C 
BRANCH  22  23
ATOM     23  C   UNL     1      31.428 -22.149 -16.218  0.00  0.00    +0.040 C 
BRANCH  23  24
ATOM     24  C   UNL     1      30.708 -23.328 -15.526  0.00  0.00    +0.091 C 
BRANCH  24  25
ATOM     25  N   UNL     1      31.317 -23.719 -14.244  0.00  0.00    -0.246 NA
ATOM     26  N   UNL     1      31.665 -24.584 -12.228  0.00  0.00    -0.251 NA
ATOM     27  C   UNL     1      32.587 -23.423 -13.815  0.00  0.00    +0.125 C 
ATOM     28  C   UNL     1      30.789 -24.420 -13.265  0.00  0.00    +0.201 C 
ATOM     29  C   UNL     1      32.826 -23.948 -12.567  0.00  0.00    +0.124 C 
BRANCH  29  32
ATOM     30  O   UNL     1      34.198 -24.602 -10.757  0.00  0.00    -0.269 OA
ATOM     31  N   UNL     1      34.995 -22.965 -12.127  0.00  0.00    -0.324 N 
ATOM     32  C   UNL     1      33.999 -23.878 -11.762  0.00  0.00    +0.257 C 
ATOM     33  H   UNL     1      35.818 -22.893 -11.591  0.00  0.00    +0.145 HD
ATOM     34  H   UNL     1      34.873 -22.394 -12.921  0.00  0.00    +0.145 HD
ENDBRANCH  29  32
ENDBRANCH  24  25
BRANCH  24  35
ATOM     35  C   UNL     1      29.214 -23.015 -15.337  0.00  0.00    +0.153 C 
BRANCH  35  36
ATOM     36  O   UNL     1      28.819 -21.997 -16.250  0.00  0.00    -0.381 OA
ATOM     37  H   UNL     1      28.348 -21.298 -15.770  0.00  0.00    +0.210 HD
ENDBRANCH  35  36
ENDBRANCH  24  35
ENDBRANCH  23  24
ENDBRANCH  22  23
ENDBRANCH   1  22
TORSDOF 11
ENDMDL
MODEL 7
REMARK VINA RESULT:     -10.4      2.333      3.769
REMARK  Name = 448903
REMARK  11 active torsions:
REMARK  status: ('A' for Active; 'I' for Inactive)
REMARK    1  A    between atoms: N_1  and  C_22
REMARK    2  A    between atoms: C_8  and  N_11
REMARK    3  A    between atoms: C_12  and  C_14
REMARK    4  A    between atoms: C_14  and  C_15
REMARK    5  A    between atoms: C_15  and  C_16
REMARK    6  A    between atoms: C_22  and  C_23
REMARK    7  A    between atoms: C_23  and  C_24
REMARK    8  A    between atoms: C_24  and  N_25
REMARK    9  A    between atoms: C_24  and  C_35
REMARK   10  A    between atoms: C_29  and  C_32
REMARK   11  A    between atoms: C_35  and  O_36
REMARK                            x       y       z     vdW  Elec       q    Type
REMARK                         _______ _______ _______ _____ _____    ______ ____
ROOT
ATOM      1  N   UNL     1      33.919 -22.434 -16.316  0.00  0.00    -0.286 N 
ATOM      2  C   UNL     1      33.563 -21.744 -17.454  0.00  0.00    +0.053 C 
ATOM      3  C   UNL     1      32.183 -21.900 -17.612  0.00  0.00    +0.015 C 
ATOM      4  C   UNL     1      32.816 -23.016 -15.752  0.00  0.00    +0.065 C 
ATOM      5  C   UNL     1      31.727 -22.704 -16.530  0.00  0.00    +0.017 C 
ATOM      6  C   UNL     1      34.347 -21.004 -18.345  0.00  0.00    +0.029 C 
ATOM      7  C   UNL     1      31.555 -21.286 -18.715  0.00  0.00    +0.003 C 
ATOM      8  C   UNL     1      33.701 -20.404 -19.430  0.00  0.00    +0.052 C 
ATOM      9  C   UNL     1      32.326 -20.542 -19.613  0.00  0.00    +0.015 C 
ENDROOT
BRANCH   8  11
ATOM     10  O   UNL     1      36.381 -19.073 -19.133  0.00  0.00    -0.275 OA
ATOM     11  N   UNL     1      34.447 -19.655 -20.342  0.00  0.00    -0.284 N 
ATOM     12  C   UNL     1      35.703 -19.066 -20.156  0.00  0.00    +0.226 C 
ATOM     13  H   UNL     1      34.037 -19.525 -21.228  0.00  0.00    +0.155 HD
BRANCH  12  14
ATOM     14  C   UNL     1      36.188 -18.327 -21.393  0.00  0.00    +0.090 C 
BRANCH  14  15
ATOM     15  C   UNL     1      35.172 -18.404 -22.533  0.00  0.00    +0.036 C 
BRANCH  15  16
ATOM     16  C   UNL     1      34.432 -17.109 -22.765  0.00  0.00    -0.022 C 
ATOM     17  C   UNL     1      33.780 -16.885 -23.977  0.00  0.00    -0.004 C 
ATOM     18  C   UNL     1      34.401 -16.136 -21.765  0.00  0.00    -0.004 C 
ATOM     19  C   UNL     1      33.097 -15.688 -24.191  0.00  0.00    -0.000 C 
ATOM     20  C   UNL     1      33.718 -14.938 -21.980  0.00  0.00    -0.000 C 
ATOM     21  C   UNL     1      33.066 -14.714 -23.192  0.00  0.00    -0.000 C 
ENDBRANCH  15  16
ENDBRANCH  14  15
ENDBRANCH  12  14
ENDBRANCH   8  11
BRANCH   1  22
ATOM     22  C   UNL     1      35.260 -22.537 -15.781  0.00  0.00    +0.097 C 
BRANCH  22  23
ATOM     23  C   UNL     1      35.353 -22.326 -14.264  0.00  0.00    +0.040 C 
BRANCH  23  24
ATOM     24  C   UNL     1      35.031 -23.571 -13.407  0.00  0.00    +0.091 C 
BRANCH  24  25
ATOM     25  N   UNL     1      36.030 -24.646 -13.532  0.00  0.00    -0.246 NA
ATOM     26  N   UNL     1      37.025 -26.630 -13.599  0.00  0.00    -0.251 NA
ATOM     27  C   UNL     1      37.367 -24.495 -13.802  0.00  0.00    +0.125 C 
ATOM     28  C   UNL     1      35.856 -25.944 -13.416  0.00  0.00    +0.201 C 
ATOM     29  C   UNL     1      38.005 -25.712 -13.849  0.00  0.00    +0.124 C 
BRANCH  29  32
ATOM     30  O   UNL     1      39.928 -25.869 -15.216  0.00  0.00    -0.269 OA
ATOM     31  N   UNL     1      40.155 -26.465 -13.028  0.00  0.00    -0.324 N 
ATOM     32  C   UNL     1      39.375 -26.010 -14.098  0.00  0.00    +0.257 C 
ATOM     33  H   UNL     1      41.106 -26.679 -13.167  0.00  0.00    +0.145 HD
ATOM     34  H   UNL     1      39.753 -26.571 -12.135  0.00  0.00    +0.145 HD
ENDBRANCH  29  32
ENDBRANCH  24  25
BRANCH  24  35
ATOM     35  C   UNL     1      34.845 -23.180 -11.932  0.00  0.00    +0.153 C 
BRANCH  35  36
ATOM     36  O   UNL     1      33.479 -23.332 -11.564  0.00  0.00    -0.381 OA
ATOM     37  H   UNL     1      33.115 -24.124 -11.990  0.00  0.00    +0.210 HD
ENDBRANCH  35  36
ENDBRANCH  24  35
ENDBRANCH  23  24
ENDBRANCH  22  23
ENDBRANCH   1  22
TORSDOF 11
ENDMDL
MODEL 8
REMARK VINA RESULT:     -10.4      1.681      2.600
REMARK  Name = 448903
REMARK  11 active torsions:
REMARK  status: ('A' for Active; 'I' for Inactive)
REMARK    1  A    between atoms: N_1  and  C_22
REMARK    2  A    between atoms: C_8  and  N_11
REMARK    3  A    between atoms: C_12  and  C_14
REMARK    4  A    between atoms: C_14  and  C_15
REMARK    5  A    between atoms: C_15  and  C_16
REMARK    6  A    between atoms: C_22  and  C_23
REMARK    7  A    between atoms: C_23  and  C_24
REMARK    8  A    between atoms: C_24  and  N_25
REMARK    9  A    between atoms: C_24  and  C_35
REMARK   10  A    between atoms: C_29  and  C_32
REMARK   11  A    between atoms: C_35  and  O_36
REMARK                            x       y       z     vdW  Elec       q    Type
REMARK                         _______ _______ _______ _____ _____    ______ ____
ROOT
ATOM      1  N   UNL     1      33.566 -23.062 -14.228  0.00  0.00    -0.286 N 
ATOM      2  C   UNL     1      33.299 -22.646 -15.513  0.00  0.00    +0.053 C 
ATOM      3  C   UNL     1      31.941 -22.875 -15.744  0.00  0.00    +0.015 C 
ATOM      4  C   UNL     1      32.427 -23.544 -13.641  0.00  0.00    +0.065 C 
ATOM      5  C   UNL     1      31.404 -23.441 -14.554  0.00  0.00    +0.017 C 
ATOM      6  C   UNL     1      34.147 -22.090 -16.478  0.00  0.00    +0.029 C 
ATOM      7  C   UNL     1      31.400 -22.534 -17.001  0.00  0.00    +0.003 C 
ATOM      8  C   UNL     1      33.588 -21.759 -17.716  0.00  0.00    +0.052 C 
ATOM      9  C   UNL     1      32.236 -21.976 -17.975  0.00  0.00    +0.015 C 
ENDROOT
BRANCH   8  11
ATOM     10  O   UNL     1      32.946 -19.754 -19.863  0.00  0.00    -0.275 OA
ATOM     11  N   UNL     1      34.398 -21.201 -18.706  0.00  0.00    -0.284 N 
ATOM     12  C   UNL     1      34.051 -20.255 -19.678  0.00  0.00    +0.226 C 
ATOM     13  H   UNL     1      35.333 -21.511 -18.722  0.00  0.00    +0.155 HD
BRANCH  12  14
ATOM     14  C   UNL     1      35.219 -19.894 -20.583  0.00  0.00    +0.090 C 
BRANCH  14  15
ATOM     15  C   UNL     1      35.403 -18.379 -20.689  0.00  0.00    +0.036 C 
BRANCH  15  16
ATOM     16  C   UNL     1      34.658 -17.766 -21.849  0.00  0.00    -0.022 C 
ATOM     17  C   UNL     1      34.496 -16.383 -21.922  0.00  0.00    -0.004 C 
ATOM     18  C   UNL     1      34.132 -18.583 -22.850  0.00  0.00    -0.004 C 
ATOM     19  C   UNL     1      33.807 -15.816 -22.994  0.00  0.00    -0.000 C 
ATOM     20  C   UNL     1      33.443 -18.016 -23.923  0.00  0.00    -0.000 C 
ATOM     21  C   UNL     1      33.280 -16.632 -23.994  0.00  0.00    -0.000 C 
ENDBRANCH  15  16
ENDBRANCH  14  15
ENDBRANCH  12  14
ENDBRANCH   8  11
BRANCH   1  22
ATOM     22  C   UNL     1      34.858 -23.006 -13.577  0.00  0.00    +0.097 C 
BRANCH  22  23
ATOM     23  C   UNL     1      34.808 -23.195 -12.056  0.00  0.00    +0.040 C 
BRANCH  23  24
ATOM     24  C   UNL     1      35.103 -24.629 -11.562  0.00  0.00    +0.091 C 
BRANCH  24  25
ATOM     25  N   UNL     1      36.070 -25.354 -12.403  0.00  0.00    -0.246 NA
ATOM     26  N   UNL     1      37.018 -26.813 -13.783  0.00  0.00    -0.251 NA
ATOM     27  C   UNL     1      37.393 -25.037 -12.590  0.00  0.00    +0.125 C 
ATOM     28  C   UNL     1      35.877 -26.428 -13.135  0.00  0.00    +0.201 C 
ATOM     29  C   UNL     1      38.002 -25.928 -13.442  0.00  0.00    +0.124 C 
BRANCH  29  32
ATOM     30  O   UNL     1      39.728 -25.481 -14.994  0.00  0.00    -0.269 OA
ATOM     31  N   UNL     1      40.309 -26.567 -13.076  0.00  0.00    -0.324 N 
ATOM     32  C   UNL     1      39.349 -25.969 -13.902  0.00  0.00    +0.257 C 
ATOM     33  H   UNL     1      41.249 -26.611 -13.365  0.00  0.00    +0.145 HD
ATOM     34  H   UNL     1      40.043 -26.944 -12.206  0.00  0.00    +0.145 HD
ENDBRANCH  29  32
ENDBRANCH  24  25
BRANCH  24  35
ATOM     35  C   UNL     1      35.571 -24.612 -10.098  0.00  0.00    +0.153 C 
BRANCH  35  36
ATOM     36  O   UNL     1      34.459 -24.825  -9.236  0.00  0.00    -0.381 OA
ATOM     37  H   UNL     1      33.663 -24.437  -9.633  0.00  0.00    +0.210 HD
ENDBRANCH  35  36
ENDBRANCH  24  35
ENDBRANCH  23  24
ENDBRANCH  22  23
ENDBRANCH   1  22
TORSDOF 11
ENDMDL
MODEL 9
REMARK VINA RESULT:     -10.3      2.994      5.452
REMARK  Name = 448903
REMARK  11 active torsions:
REMARK  status: ('A' for Active; 'I' for Inactive)
REMARK    1  A    between atoms: N_1  and  C_22
REMARK    2  A    between atoms: C_8  and  N_11
REMARK    3  A    between atoms: C_12  and  C_14
REMARK    4  A    between atoms: C_14  and  C_15
REMARK    5  A    between atoms: C_15  and  C_16
REMARK    6  A    between atoms: C_22  and  C_23
REMARK    7  A    between atoms: C_23  and  C_24
REMARK    8  A    between atoms: C_24  and  N_25
REMARK    9  A    between atoms: C_24  and  C_35
REMARK   10  A    between atoms: C_29  and  C_32
REMARK   11  A    between atoms: C_35  and  O_36
REMARK                            x       y       z     vdW  Elec       q    Type
REMARK                         _______ _______ _______ _____ _____    ______ ____
ROOT
ATOM      1  N   UNL     1      34.384 -21.887 -17.276  0.00  0.00    -0.286 N 
ATOM      2  C   UNL     1      33.827 -21.192 -18.325  0.00  0.00    +0.053 C 
ATOM      3  C   UNL     1      32.458 -21.471 -18.321  0.00  0.00    +0.015 C 
ATOM      4  C   UNL     1      33.419 -22.592 -16.610  0.00  0.00    +0.065 C 
ATOM      5  C   UNL     1      32.216 -22.355 -17.233  0.00  0.00    +0.017 C 
ATOM      6  C   UNL     1      34.423 -20.347 -19.268  0.00  0.00    +0.029 C 
ATOM      7  C   UNL     1      31.642 -20.878 -19.306  0.00  0.00    +0.003 C 
ATOM      8  C   UNL     1      33.593 -19.770 -20.235  0.00  0.00    +0.052 C 
ATOM      9  C   UNL     1      32.224 -20.030 -20.255  0.00  0.00    +0.015 C 
ENDROOT
BRANCH   8  11
ATOM     10  O   UNL     1      34.294 -16.850 -20.080  0.00  0.00    -0.275 OA
ATOM     11  N   UNL     1      34.147 -18.919 -21.193  0.00  0.00    -0.284 N 
ATOM     12  C   UNL     1      34.468 -17.562 -21.065  0.00  0.00    +0.226 C 
ATOM     13  H   UNL     1      34.336 -19.325 -22.070  0.00  0.00    +0.155 HD
BRANCH  12  14
ATOM     14  C   UNL     1      35.058 -16.980 -22.340  0.00  0.00    +0.090 C 
BRANCH  14  15
ATOM     15  C   UNL     1      33.993 -16.794 -23.421  0.00  0.00    +0.036 C 
BRANCH  15  16
ATOM     16  C   UNL     1      33.559 -15.359 -23.593  0.00  0.00    -0.022 C 
ATOM     17  C   UNL     1      32.847 -14.976 -24.730  0.00  0.00    -0.004 C 
ATOM     18  C   UNL     1      33.869 -14.414 -22.614  0.00  0.00    -0.004 C 
ATOM     19  C   UNL     1      32.447 -13.650 -24.889  0.00  0.00    -0.000 C 
ATOM     20  C   UNL     1      33.469 -13.088 -22.774  0.00  0.00    -0.000 C 
ATOM     21  C   UNL     1      32.758 -12.705 -23.911  0.00  0.00    -0.000 C 
ENDBRANCH  15  16
ENDBRANCH  14  15
ENDBRANCH  12  14
ENDBRANCH   8  11
BRANCH   1  22
ATOM     22  C   UNL     1      35.786 -21.883 -16.915  0.00  0.00    +0.097 C 
BRANCH  22  23
ATOM     23  C   UNL     1      36.077 -21.327 -15.515  0.00  0.00    +0.040 C 
BRANCH  23  24
ATOM     24  C   UNL     1      36.798 -22.303 -14.558  0.00  0.00    +0.091 C 
BRANCH  24  25
ATOM     25  N   UNL     1      35.909 -22.900 -13.547  0.00  0.00    -0.246 NA
ATOM     26  N   UNL     1      34.189 -23.875 -12.533  0.00  0.00    -0.251 NA
ATOM     27  C   UNL     1      36.171 -23.046 -12.208  0.00  0.00    +0.125 C 
ATOM     28  C   UNL     1      34.708 -23.410 -13.711  0.00  0.00    +0.201 C 
ATOM     29  C   UNL     1      35.119 -23.647 -11.558  0.00  0.00    +0.124 C 
BRANCH  29  32
ATOM     30  O   UNL     1      34.349 -24.991  -9.772  0.00  0.00    -0.269 OA
ATOM     31  N   UNL     1      35.585 -23.154  -9.234  0.00  0.00    -0.324 N 
ATOM     32  C   UNL     1      34.974 -23.984 -10.181  0.00  0.00    +0.257 C 
ATOM     33  H   UNL     1      35.504 -23.359  -8.274  0.00  0.00    +0.145 HD
ATOM     34  H   UNL     1      36.096 -22.364  -9.526  0.00  0.00    +0.145 HD
ENDBRANCH  29  32
ENDBRANCH  24  25
BRANCH  24  35
ATOM     35  C   UNL     1      37.524 -23.402 -15.351  0.00  0.00    +0.153 C 
BRANCH  35  36
ATOM     36  O   UNL     1      38.542 -23.983 -14.544  0.00  0.00    -0.381 OA
ATOM     37  H   UNL     1      39.250 -23.336 -14.402  0.00  0.00    +0.210 HD
ENDBRANCH  35  36
ENDBRANCH  24  35
ENDBRANCH  23  24
ENDBRANCH  22  23
ENDBRANCH   1  22
TORSDOF 11
ENDMDL
