MODEL 1
REMARK VINA RESULT:     -11.0      0.000      0.000
REMARK  Name = 657131
REMARK  7 active torsions:
REMARK  status: ('A' for Active; 'I' for Inactive)
REMARK    1  A    between atoms: C_1  and  CA_2
REMARK    2  A    between atoms: C_1  and  C_3
REMARK    3  A    between atoms: CA_2  and  C_28
REMARK    4  A    between atoms: C_4  and  O_9
REMARK    5  A    between atoms: O_9  and  C_11
REMARK    6  A    between atoms: C_19  and  C_21
REMARK    7  A    between atoms: C_28  and  O_29
REMARK                            x       y       z     vdW  Elec       q    Type
REMARK                         _______ _______ _______ _____ _____    ______ ____
ROOT
ATOM      1  C   UNL     1      34.213 -14.792 -22.118  0.00  0.00    +0.074 C 
ENDROOT
BRANCH   1   2
ATOM      2  C   UNL     1      33.266 -13.726 -21.836  0.00  0.00    -0.016 C 
ATOM      3  C   UNL     1      31.450 -11.678 -21.297  0.00  0.00    +0.145 C 
ATOM      4  C   UNL     1      32.491 -13.768 -20.678  0.00  0.00    -0.001 C 
ATOM      5  C   UNL     1      33.134 -12.659 -22.725  0.00  0.00    -0.001 C 
ATOM      6  C   UNL     1      31.583 -12.744 -20.408  0.00  0.00    +0.037 C 
ATOM      7  C   UNL     1      32.226 -11.635 -22.456  0.00  0.00    +0.037 C 
BRANCH   3   8
ATOM      8  O   UNL     1      30.565 -10.679 -21.034  0.00  0.00    -0.453 OA
BRANCH   8  10
ATOM      9 BR   UNL     1      30.729  -9.841 -18.031  0.00  0.00    -0.046 Br
ATOM     10  C   UNL     1      31.069  -9.401 -20.855  0.00  0.00    +0.151 C 
ATOM     11  C   UNL     1      31.210  -8.869 -19.585  0.00  0.00    +0.069 C 
ATOM     12  C   UNL     1      31.424  -8.684 -21.985  0.00  0.00    +0.038 C 
ATOM     13  C   UNL     1      31.722  -7.579 -19.441  0.00  0.00    +0.010 C 
ATOM     14  C   UNL     1      31.936  -7.395 -21.840  0.00  0.00    +0.003 C 
ATOM     15  C   UNL     1      32.084  -6.842 -20.568  0.00  0.00    +0.001 C 
ENDBRANCH   8  10
ENDBRANCH   3   8
ENDBRANCH   1   2
BRANCH   1  16
ATOM     16  CA  UNL     1      33.907 -16.076 -22.419  0.00  0.00    +0.108 C 
ATOM     17  O   UNL     1      33.287 -18.816 -22.925  0.00  0.00    -0.270 OA
ATOM     18  N   UNL     1      33.967 -17.098 -21.513  0.00  0.00    -0.278 N 
ATOM     19  C   UNL     1      33.652 -18.412 -21.823  0.00  0.00    +0.249 C 
ATOM     20  H   UNL     1      34.248 -16.890 -20.593  0.00  0.00    +0.155 HD
BRANCH  19  21
ATOM     21  C   UNL     1      33.800 -19.386 -20.712  0.00  0.00    +0.054 C 
ATOM     22  C   UNL     1      32.664 -19.931 -20.149  0.00  0.00    +0.005 C 
ATOM     23  C   UNL     1      35.067 -19.717 -20.280  0.00  0.00    +0.005 C 
ATOM     24  C   UNL     1      32.802 -20.846 -19.106  0.00  0.00    +0.000 C 
ATOM     25  C   UNL     1      35.205 -20.633 -19.237  0.00  0.00    +0.000 C 
ATOM     26  C   UNL     1      34.072 -21.197 -18.650  0.00  0.00    +0.000 C 
ENDBRANCH  19  21
BRANCH  16  28
ATOM     27  OXT UNL     1      34.261 -16.622 -24.740  0.00  0.00    -0.244 OA
ATOM     28  C   UNL     1      33.499 -16.393 -23.813  0.00  0.00    +0.348 C 
BRANCH  28  29
ATOM     29  O   UNL     1      32.150 -16.394 -23.934  0.00  0.00    -0.476 OA
ATOM     30  H   UNL     1      31.708 -17.158 -24.247  0.00  0.00    +0.295 HD
ENDBRANCH  28  29
ENDBRANCH  16  28
ENDBRANCH   1  16
TORSDOF 7
ENDMDL
MODEL 2
REMARK VINA RESULT:     -11.0      3.010      9.984
REMARK  Name = 657131
REMARK  7 active torsions:
REMARK  status: ('A' for Active; 'I' for Inactive)
REMARK    1  A    between atoms: C_1  and  CA_2
REMARK    2  A    between atoms: C_1  and  C_3
REMARK    3  A    between atoms: CA_2  and  C_28
REMARK    4  A    between atoms: C_4  and  O_9
REMARK    5  A    between atoms: O_9  and  C_11
REMARK    6  A    between atoms: C_19  and  C_21
REMARK    7  A    between atoms: C_28  and  O_29
REMARK                            x       y       z     vdW  Elec       q    Type
REMARK                         _______ _______ _______ _____ _____    ______ ____
ROOT
ATOM      1  C   UNL     1      30.753 -11.464 -20.590  0.00  0.00    +0.074 C 
ENDROOT
BRANCH   1   2
ATOM      2  C   UNL     1      31.754 -12.426 -21.020  0.00  0.00    -0.016 C 
ATOM      3  C   UNL     1      33.677 -14.272 -21.843  0.00  0.00    +0.145 C 
ATOM      4  C   UNL     1      32.335 -12.313 -22.283  0.00  0.00    -0.001 C 
ATOM      5  C   UNL     1      32.136 -13.463 -20.168  0.00  0.00    -0.001 C 
ATOM      6  C   UNL     1      33.296 -13.236 -22.695  0.00  0.00    +0.037 C 
ATOM      7  C   UNL     1      33.097 -14.386 -20.580  0.00  0.00    +0.037 C 
BRANCH   3   8
ATOM      8  O   UNL     1      34.615 -15.172 -22.245  0.00  0.00    -0.453 OA
BRANCH   8  10
ATOM      9 BR   UNL     1      32.943 -16.359 -24.599  0.00  0.00    -0.046 Br
ATOM     10  C   UNL     1      34.330 -16.518 -22.081  0.00  0.00    +0.151 C 
ATOM     11  C   UNL     1      33.596 -17.204 -23.033  0.00  0.00    +0.069 C 
ATOM     12  C   UNL     1      34.803 -17.143 -20.941  0.00  0.00    +0.038 C 
ATOM     13  C   UNL     1      33.326 -18.559 -22.837  0.00  0.00    +0.010 C 
ATOM     14  C   UNL     1      34.533 -18.498 -20.746  0.00  0.00    +0.003 C 
ATOM     15  C   UNL     1      33.795 -19.205 -21.694  0.00  0.00    +0.001 C 
ENDBRANCH   8  10
ENDBRANCH   3   8
ENDBRANCH   1   2
BRANCH   1  16
ATOM     16  CA  UNL     1      30.981 -10.184 -20.216  0.00  0.00    +0.108 C 
ATOM     17  O   UNL     1      31.507  -7.457 -19.554  0.00  0.00    -0.270 OA
ATOM     18  N   UNL     1      31.495  -9.234 -21.055  0.00  0.00    -0.278 N 
ATOM     19  C   UNL     1      31.728  -7.923 -20.670  0.00  0.00    +0.249 C 
ATOM     20  H   UNL     1      31.711  -9.495 -21.979  0.00  0.00    +0.155 HD
BRANCH  19  21
ATOM     21  C   UNL     1      32.313  -7.042 -21.715  0.00  0.00    +0.054 C 
ATOM     22  C   UNL     1      33.567  -7.338 -22.208  0.00  0.00    +0.005 C 
ATOM     23  C   UNL     1      31.582  -5.962 -22.160  0.00  0.00    +0.005 C 
ATOM     24  C   UNL     1      34.116  -6.512 -23.188  0.00  0.00    +0.000 C 
ATOM     25  C   UNL     1      32.131  -5.136 -23.142  0.00  0.00    +0.000 C 
ATOM     26  C   UNL     1      33.398  -5.411 -23.656  0.00  0.00    +0.000 C 
ENDBRANCH  19  21
BRANCH  16  28
ATOM     27  OXT UNL     1      29.554  -9.582 -18.368  0.00  0.00    -0.244 OA
ATOM     28  C   UNL     1      30.672  -9.794 -18.815  0.00  0.00    +0.348 C 
BRANCH  28  29
ATOM     29  O   UNL     1      31.804  -9.699 -18.078  0.00  0.00    -0.476 OA
ATOM     30  H   UNL     1      32.237 -10.475 -17.781  0.00  0.00    +0.295 HD
ENDBRANCH  28  29
ENDBRANCH  16  28
ENDBRANCH   1  16
TORSDOF 7
ENDMDL
MODEL 3
REMARK VINA RESULT:     -10.9      4.104      9.895
REMARK  Name = 657131
REMARK  7 active torsions:
REMARK  status: ('A' for Active; 'I' for Inactive)
REMARK    1  A    between atoms: C_1  and  CA_2
REMARK    2  A    between atoms: C_1  and  C_3
REMARK    3  A    between atoms: CA_2  and  C_28
REMARK    4  A    between atoms: C_4  and  O_9
REMARK    5  A    between atoms: O_9  and  C_11
REMARK    6  A    between atoms: C_19  and  C_21
REMARK    7  A    between atoms: C_28  and  O_29
REMARK                            x       y       z     vdW  Elec       q    Type
REMARK                         _______ _______ _______ _____ _____    ______ ____
ROOT
ATOM      1  C   UNL     1      34.599 -18.079 -20.813  0.00  0.00    +0.074 C 
ENDROOT
BRANCH   1   2
ATOM      2  C   UNL     1      34.361 -19.304 -20.069  0.00  0.00    -0.016 C 
ATOM      3  C   UNL     1      33.907 -21.657 -18.640  0.00  0.00    +0.145 C 
ATOM      4  C   UNL     1      33.057 -19.750 -19.855  0.00  0.00    -0.001 C 
ATOM      5  C   UNL     1      35.439 -20.036 -19.569  0.00  0.00    -0.001 C 
ATOM      6  C   UNL     1      32.829 -20.927 -19.140  0.00  0.00    +0.037 C 
ATOM      7  C   UNL     1      35.211 -21.213 -18.854  0.00  0.00    +0.037 C 
BRANCH   3   8
ATOM      8  O   UNL     1      33.685 -22.805 -17.944  0.00  0.00    -0.453 OA
BRANCH   8  10
ATOM      9 BR   UNL     1      35.530 -22.573 -15.436  0.00  0.00    -0.046 Br
ATOM     10  C   UNL     1      32.977 -22.713 -16.758  0.00  0.00    +0.151 C 
ATOM     11  C   UNL     1      33.638 -22.604 -15.547  0.00  0.00    +0.069 C 
ATOM     12  C   UNL     1      31.595 -22.735 -16.830  0.00  0.00    +0.038 C 
ATOM     13  C   UNL     1      32.894 -22.513 -14.371  0.00  0.00    +0.010 C 
ATOM     14  C   UNL     1      30.850 -22.643 -15.653  0.00  0.00    +0.003 C 
ATOM     15  C   UNL     1      31.500 -22.533 -14.424  0.00  0.00    +0.001 C 
ENDBRANCH   8  10
ENDBRANCH   3   8
ENDBRANCH   1   2
BRANCH   1  16
ATOM     16  CA  UNL     1      34.088 -17.768 -22.028  0.00  0.00    +0.108 C 
ATOM     17  O   UNL     1      33.024 -16.981 -24.557  0.00  0.00    -0.270 OA
ATOM     18  N   UNL     1      33.879 -16.485 -22.452  0.00  0.00    -0.278 N 
ATOM     19  C   UNL     1      33.357 -16.169 -23.696  0.00  0.00    +0.249 C 
ATOM     20  H   UNL     1      34.111 -15.749 -21.842  0.00  0.00    +0.155 HD
BRANCH  19  21
ATOM     21  C   UNL     1      33.180 -14.719 -23.968  0.00  0.00    +0.054 C 
ATOM     22  C   UNL     1      33.475 -13.814 -22.969  0.00  0.00    +0.005 C 
ATOM     23  C   UNL     1      32.730 -14.325 -25.210  0.00  0.00    +0.005 C 
ATOM     24  C   UNL     1      33.310 -12.454 -23.224  0.00  0.00    +0.000 C 
ATOM     25  C   UNL     1      32.565 -12.963 -25.465  0.00  0.00    +0.000 C 
ATOM     26  C   UNL     1      32.855 -12.027 -24.471  0.00  0.00    +0.000 C 
ENDBRANCH  19  21
BRANCH  16  28
ATOM     27  OXT UNL     1      34.508 -19.554 -23.592  0.00  0.00    -0.244 OA
ATOM     28  C   UNL     1      33.722 -18.882 -22.942  0.00  0.00    +0.348 C 
BRANCH  28  29
ATOM     29  O   UNL     1      32.379 -19.063 -22.969  0.00  0.00    -0.476 OA
ATOM     30  H   UNL     1      31.857 -18.607 -23.598  0.00  0.00    +0.295 HD
ENDBRANCH  28  29
ENDBRANCH  16  28
ENDBRANCH   1  16
TORSDOF 7
ENDMDL
MODEL 4
REMARK VINA RESULT:     -10.4      3.936      9.919
REMARK  Name = 657131
REMARK  7 active torsions:
REMARK  status: ('A' for Active; 'I' for Inactive)
REMARK    1  A    between atoms: C_1  and  CA_2
REMARK    2  A    between atoms: C_1  and  C_3
REMARK    3  A    between atoms: CA_2  and  C_28
REMARK    4  A    between atoms: C_4  and  O_9
REMARK    5  A    between atoms: O_9  and  C_11
REMARK    6  A    between atoms: C_19  and  C_21
REMARK    7  A    between atoms: C_28  and  O_29
REMARK                            x       y       z     vdW  Elec       q    Type
REMARK                         _______ _______ _______ _____ _____    ______ ____
ROOT
ATOM      1  C   UNL     1      34.607 -18.640 -20.926  0.00  0.00    +0.074 C 
ENDROOT
BRANCH   1   2
ATOM      2  C   UNL     1      34.011 -19.681 -20.105  0.00  0.00    -0.016 C 
ATOM      3  C   UNL     1      32.864 -21.676 -18.528  0.00  0.00    +0.145 C 
ATOM      4  C   UNL     1      34.820 -20.635 -19.489  0.00  0.00    -0.001 C 
ATOM      5  C   UNL     1      32.627 -19.724 -19.931  0.00  0.00    -0.001 C 
ATOM      6  C   UNL     1      34.247 -21.633 -18.700  0.00  0.00    +0.037 C 
ATOM      7  C   UNL     1      32.054 -20.723 -19.143  0.00  0.00    +0.037 C 
BRANCH   3   8
ATOM      8  O   UNL     1      32.305 -22.650 -17.758  0.00  0.00    -0.453 OA
BRANCH   8  10
ATOM      9 BR   UNL     1      29.922 -22.792 -15.746  0.00  0.00    -0.046 Br
ATOM     10  C   UNL     1      32.716 -22.743 -16.439  0.00  0.00    +0.151 C 
ATOM     11  C   UNL     1      31.788 -22.816 -15.414  0.00  0.00    +0.069 C 
ATOM     12  C   UNL     1      34.077 -22.761 -16.188  0.00  0.00    +0.038 C 
ATOM     13  C   UNL     1      32.236 -22.909 -14.096  0.00  0.00    +0.010 C 
ATOM     14  C   UNL     1      34.524 -22.855 -14.869  0.00  0.00    +0.003 C 
ATOM     15  C   UNL     1      33.604 -22.929 -13.824  0.00  0.00    +0.001 C 
ENDBRANCH   8  10
ENDBRANCH   3   8
ENDBRANCH   1   2
BRANCH   1  16
ATOM     16  CA  UNL     1      34.108 -18.151 -22.085  0.00  0.00    +0.108 C 
ATOM     17  O   UNL     1      33.070 -16.995 -24.480  0.00  0.00    -0.270 OA
ATOM     18  N   UNL     1      33.931 -16.817 -22.327  0.00  0.00    -0.278 N 
ATOM     19  C   UNL     1      33.421 -16.319 -23.515  0.00  0.00    +0.249 C 
ATOM     20  H   UNL     1      34.180 -16.179 -21.620  0.00  0.00    +0.155 HD
BRANCH  19  21
ATOM     21  C   UNL     1      33.281 -14.841 -23.583  0.00  0.00    +0.054 C 
ATOM     22  C   UNL     1      32.833 -14.268 -24.755  0.00  0.00    +0.005 C 
ATOM     23  C   UNL     1      33.601 -14.090 -22.472  0.00  0.00    +0.005 C 
ATOM     24  C   UNL     1      32.700 -12.882 -24.819  0.00  0.00    +0.000 C 
ATOM     25  C   UNL     1      33.469 -12.703 -22.535  0.00  0.00    +0.000 C 
ATOM     26  C   UNL     1      33.018 -12.099 -23.710  0.00  0.00    +0.000 C 
ENDBRANCH  19  21
BRANCH  16  28
ATOM     27  OXT UNL     1      34.490 -19.767 -23.833  0.00  0.00    -0.244 OA
ATOM     28  C   UNL     1      33.717 -19.118 -23.145  0.00  0.00    +0.348 C 
BRANCH  28  29
ATOM     29  O   UNL     1      32.368 -19.192 -23.258  0.00  0.00    -0.476 OA
ATOM     30  H   UNL     1      31.821 -18.782 -22.618  0.00  0.00    +0.295 HD
ENDBRANCH  28  29
ENDBRANCH  16  28
ENDBRANCH   1  16
TORSDOF 7
ENDMDL
MODEL 5
REMARK VINA RESULT:     -10.4      4.331      7.479
REMARK  Name = 657131
REMARK  7 active torsions:
REMARK  status: ('A' for Active; 'I' for Inactive)
REMARK    1  A    between atoms: C_1  and  CA_2
REMARK    2  A    between atoms: C_1  and  C_3
REMARK    3  A    between atoms: CA_2  and  C_28
REMARK    4  A    between atoms: C_4  and  O_9
REMARK    5  A    between atoms: O_9  and  C_11
REMARK    6  A    between atoms: C_19  and  C_21
REMARK    7  A    between atoms: C_28  and  O_29
REMARK                            x       y       z     vdW  Elec       q    Type
REMARK                         _______ _______ _______ _____ _____    ______ ____
ROOT
ATOM      1  C   UNL     1      35.233 -21.267 -18.606  0.00  0.00    +0.074 C 
ENDROOT
BRANCH   1   2
ATOM      2  C   UNL     1      35.034 -20.183 -19.553  0.00  0.00    -0.016 C 
ATOM      3  C   UNL     1      34.653 -18.101 -21.371  0.00  0.00    +0.145 C 
ATOM      4  C   UNL     1      33.796 -20.017 -20.175  0.00  0.00    -0.001 C 
ATOM      5  C   UNL     1      36.081 -19.307 -19.840  0.00  0.00    -0.001 C 
ATOM      6  C   UNL     1      33.606 -18.976 -21.084  0.00  0.00    +0.037 C 
ATOM      7  C   UNL     1      35.891 -18.266 -20.749  0.00  0.00    +0.037 C 
BRANCH   3   8
ATOM      8  O   UNL     1      34.467 -17.085 -22.256  0.00  0.00    -0.453 OA
BRANCH   8  10
ATOM      9 BR   UNL     1      33.258 -15.307 -24.520  0.00  0.00    -0.046 Br
ATOM     10  C   UNL     1      33.908 -15.910 -21.782  0.00  0.00    +0.151 C 
ATOM     11  C   UNL     1      33.326 -15.003 -22.651  0.00  0.00    +0.069 C 
ATOM     12  C   UNL     1      33.953 -15.681 -20.417  0.00  0.00    +0.038 C 
ATOM     13  C   UNL     1      32.772 -13.830 -22.139  0.00  0.00    +0.010 C 
ATOM     14  C   UNL     1      33.398 -14.507 -19.906  0.00  0.00    +0.003 C 
ATOM     15  C   UNL     1      32.808 -13.582 -20.767  0.00  0.00    +0.001 C 
ENDBRANCH   8  10
ENDBRANCH   3   8
ENDBRANCH   1   2
BRANCH   1  16
ATOM     16  CA  UNL     1      34.292 -21.806 -17.796  0.00  0.00    +0.108 C 
ATOM     17  O   UNL     1      32.398 -22.944 -15.989  0.00  0.00    -0.270 OA
ATOM     18  N   UNL     1      34.523 -22.145 -16.492  0.00  0.00    -0.278 N 
ATOM     19  C   UNL     1      33.557 -22.696 -15.664  0.00  0.00    +0.249 C 
ATOM     20  H   UNL     1      35.422 -21.989 -16.122  0.00  0.00    +0.155 HD
BRANCH  19  21
ATOM     21  C   UNL     1      34.004 -23.019 -14.284  0.00  0.00    +0.054 C 
ATOM     22  C   UNL     1      33.122 -23.650 -13.431  0.00  0.00    +0.005 C 
ATOM     23  C   UNL     1      35.284 -22.681 -13.903  0.00  0.00    +0.005 C 
ATOM     24  C   UNL     1      33.541 -23.954 -12.136  0.00  0.00    +0.000 C 
ATOM     25  C   UNL     1      35.704 -22.985 -12.608  0.00  0.00    +0.000 C 
ATOM     26  C   UNL     1      34.831 -23.622 -11.724  0.00  0.00    +0.000 C 
ENDBRANCH  19  21
BRANCH  16  28
ATOM     27  OXT UNL     1      32.009 -21.265 -18.352  0.00  0.00    -0.244 OA
ATOM     28  C   UNL     1      32.939 -22.057 -18.361  0.00  0.00    +0.348 C 
BRANCH  28  29
ATOM     29  O   UNL     1      32.862 -23.299 -18.897  0.00  0.00    -0.476 OA
ATOM     30  H   UNL     1      32.193 -23.499 -19.521  0.00  0.00    +0.295 HD
ENDBRANCH  28  29
ENDBRANCH  16  28
ENDBRANCH   1  16
TORSDOF 7
ENDMDL
MODEL 6
REMARK VINA RESULT:     -10.3      3.228      9.442
REMARK  Name = 657131
REMARK  7 active torsions:
REMARK  status: ('A' for Active; 'I' for Inactive)
REMARK    1  A    between atoms: C_1  and  CA_2
REMARK    2  A    between atoms: C_1  and  C_3
REMARK    3  A    between atoms: CA_2  and  C_28
REMARK    4  A    between atoms: C_4  and  O_9
REMARK    5  A    between atoms: O_9  and  C_11
REMARK    6  A    between atoms: C_19  and  C_21
REMARK    7  A    between atoms: C_28  and  O_29
REMARK                            x       y       z     vdW  Elec       q    Type
REMARK                         _______ _______ _______ _____ _____    ______ ____
ROOT
ATOM      1  C   UNL     1      35.151 -17.282 -21.806  0.00  0.00    +0.074 C 
ENDROOT
BRANCH   1   2
ATOM      2  C   UNL     1      34.814 -18.433 -20.985  0.00  0.00    -0.016 C 
ATOM      3  C   UNL     1      34.166 -20.641 -19.408  0.00  0.00    +0.145 C 
ATOM      4  C   UNL     1      35.814 -19.110 -20.287  0.00  0.00    -0.001 C 
ATOM      5  C   UNL     1      33.489 -18.860 -20.893  0.00  0.00    -0.001 C 
ATOM      6  C   UNL     1      35.490 -20.214 -19.498  0.00  0.00    +0.037 C 
ATOM      7  C   UNL     1      33.165 -19.964 -20.105  0.00  0.00    +0.037 C 
BRANCH   3   8
ATOM      8  O   UNL     1      33.850 -21.718 -18.638  0.00  0.00    -0.453 OA
BRANCH   8  10
ATOM      9 BR   UNL     1      31.993 -22.924 -16.438  0.00  0.00    -0.046 Br
ATOM     10  C   UNL     1      34.475 -21.836 -17.408  0.00  0.00    +0.151 C 
ATOM     11  C   UNL     1      33.796 -22.353 -16.318  0.00  0.00    +0.069 C 
ATOM     12  C   UNL     1      35.791 -21.421 -17.311  0.00  0.00    +0.038 C 
ATOM     13  C   UNL     1      34.455 -22.458 -15.093  0.00  0.00    +0.010 C 
ATOM     14  C   UNL     1      36.451 -21.526 -16.086  0.00  0.00    +0.003 C 
ATOM     15  C   UNL     1      35.782 -22.045 -14.977  0.00  0.00    +0.001 C 
ENDBRANCH   8  10
ENDBRANCH   3   8
ENDBRANCH   1   2
BRANCH   1  16
ATOM     16  CA  UNL     1      34.274 -16.442 -22.404  0.00  0.00    +0.108 C 
ATOM     17  O   UNL     1      32.416 -14.601 -23.548  0.00  0.00    -0.270 OA
ATOM     18  N   UNL     1      33.681 -15.390 -21.763  0.00  0.00    -0.278 N 
ATOM     19  C   UNL     1      32.784 -14.530 -22.377  0.00  0.00    +0.249 C 
ATOM     20  H   UNL     1      33.903 -15.236 -20.816  0.00  0.00    +0.155 HD
BRANCH  19  21
ATOM     21  C   UNL     1      32.226 -13.459 -21.511  0.00  0.00    +0.054 C 
ATOM     22  C   UNL     1      31.927 -13.755 -20.197  0.00  0.00    +0.005 C 
ATOM     23  C   UNL     1      32.028 -12.205 -22.047  0.00  0.00    +0.005 C 
ATOM     24  C   UNL     1      31.405 -12.751 -19.384  0.00  0.00    +0.000 C 
ATOM     25  C   UNL     1      31.505 -11.200 -21.233  0.00  0.00    +0.000 C 
ATOM     26  C   UNL     1      31.193 -11.473 -19.901  0.00  0.00    +0.000 C 
ENDBRANCH  19  21
BRANCH  16  28
ATOM     27  OXT UNL     1      33.141 -17.530 -24.233  0.00  0.00    -0.244 OA
ATOM     28  C   UNL     1      33.927 -16.686 -23.829  0.00  0.00    +0.348 C 
BRANCH  28  29
ATOM     29  O   UNL     1      34.603 -15.840 -24.643  0.00  0.00    -0.476 OA
ATOM     30  H   UNL     1      34.407 -14.924 -24.634  0.00  0.00    +0.295 HD
ENDBRANCH  28  29
ENDBRANCH  16  28
ENDBRANCH   1  16
TORSDOF 7
ENDMDL
MODEL 7
REMARK VINA RESULT:     -10.3      6.769     10.979
REMARK  Name = 657131
REMARK  7 active torsions:
REMARK  status: ('A' for Active; 'I' for Inactive)
REMARK    1  A    between atoms: C_1  and  CA_2
REMARK    2  A    between atoms: C_1  and  C_3
REMARK    3  A    between atoms: CA_2  and  C_28
REMARK    4  A    between atoms: C_4  and  O_9
REMARK    5  A    between atoms: O_9  and  C_11
REMARK    6  A    between atoms: C_19  and  C_21
REMARK    7  A    between atoms: C_28  and  O_29
REMARK                            x       y       z     vdW  Elec       q    Type
REMARK                         _______ _______ _______ _____ _____    ______ ____
ROOT
ATOM      1  C   UNL     1      34.834 -22.455 -14.118  0.00  0.00    +0.074 C 
ENDROOT
BRANCH   1   2
ATOM      2  C   UNL     1      34.833 -22.176 -15.544  0.00  0.00    -0.016 C 
ATOM      3  C   UNL     1      34.834 -21.639 -18.282  0.00  0.00    +0.145 C 
ATOM      4  C   UNL     1      33.721 -22.501 -16.320  0.00  0.00    -0.001 C 
ATOM      5  C   UNL     1      35.947 -21.580 -16.139  0.00  0.00    -0.001 C 
ATOM      6  C   UNL     1      33.720 -22.233 -17.689  0.00  0.00    +0.037 C 
ATOM      7  C   UNL     1      35.946 -21.312 -17.508  0.00  0.00    +0.037 C 
BRANCH   3   8
ATOM      8  O   UNL     1      34.833 -21.376 -19.617  0.00  0.00    -0.453 OA
BRANCH   8  10
ATOM      9 BR   UNL     1      31.973 -20.154 -19.886  0.00  0.00    -0.046 Br
ATOM     10  C   UNL     1      34.846 -20.049 -20.013  0.00  0.00    +0.151 C 
ATOM     11  C   UNL     1      33.663 -19.350 -20.182  0.00  0.00    +0.069 C 
ATOM     12  C   UNL     1      36.077 -19.454 -20.232  0.00  0.00    +0.038 C 
ATOM     13  C   UNL     1      33.713 -18.014 -20.581  0.00  0.00    +0.010 C 
ATOM     14  C   UNL     1      36.126 -18.118 -20.631  0.00  0.00    +0.003 C 
ATOM     15  C   UNL     1      34.944 -17.399 -20.806  0.00  0.00    +0.001 C 
ENDBRANCH   8  10
ENDBRANCH   3   8
ENDBRANCH   1   2
BRANCH   1  16
ATOM     16  CA  UNL     1      33.889 -23.143 -13.436  0.00  0.00    +0.108 C 
ATOM     17  O   UNL     1      31.804 -24.555 -12.092  0.00  0.00    -0.270 OA
ATOM     18  N   UNL     1      32.576 -23.197 -13.814  0.00  0.00    -0.278 N 
ATOM     19  C   UNL     1      31.610 -23.903 -13.116  0.00  0.00    +0.249 C 
ATOM     20  H   UNL     1      32.304 -22.709 -14.625  0.00  0.00    +0.155 HD
BRANCH  19  21
ATOM     21  C   UNL     1      30.233 -23.825 -13.668  0.00  0.00    +0.054 C 
ATOM     22  C   UNL     1      29.824 -22.652 -14.270  0.00  0.00    +0.005 C 
ATOM     23  C   UNL     1      29.410 -24.926 -13.565  0.00  0.00    +0.005 C 
ATOM     24  C   UNL     1      28.532 -22.578 -14.789  0.00  0.00    +0.000 C 
ATOM     25  C   UNL     1      28.117 -24.851 -14.085  0.00  0.00    +0.000 C 
ATOM     26  C   UNL     1      27.678 -23.677 -14.697  0.00  0.00    +0.000 C 
ENDBRANCH  19  21
BRANCH  16  28
ATOM     27  OXT UNL     1      34.903 -24.926 -12.170  0.00  0.00    -0.244 OA
ATOM     28  C   UNL     1      34.298 -23.865 -12.203  0.00  0.00    +0.348 C 
BRANCH  28  29
ATOM     29  O   UNL     1      33.908 -23.190 -11.095  0.00  0.00    -0.476 OA
ATOM     30  H   UNL     1      34.549 -22.861 -10.496  0.00  0.00    +0.295 HD
ENDBRANCH  28  29
ENDBRANCH  16  28
ENDBRANCH   1  16
TORSDOF 7
ENDMDL
MODEL 8
REMARK VINA RESULT:     -10.3      5.585      9.392
REMARK  Name = 657131
REMARK  7 active torsions:
REMARK  status: ('A' for Active; 'I' for Inactive)
REMARK    1  A    between atoms: C_1  and  CA_2
REMARK    2  A    between atoms: C_1  and  C_3
REMARK    3  A    between atoms: CA_2  and  C_28
REMARK    4  A    between atoms: C_4  and  O_9
REMARK    5  A    between atoms: O_9  and  C_11
REMARK    6  A    between atoms: C_19  and  C_21
REMARK    7  A    between atoms: C_28  and  O_29
REMARK                            x       y       z     vdW  Elec       q    Type
REMARK                         _______ _______ _______ _____ _____    ______ ____
ROOT
ATOM      1  C   UNL     1      31.791 -22.274 -17.168  0.00  0.00    +0.074 C 
ENDROOT
BRANCH   1   2
ATOM      2  C   UNL     1      32.653 -21.555 -18.092  0.00  0.00    -0.016 C 
ATOM      3  C   UNL     1      34.305 -20.176 -19.867  0.00  0.00    +0.145 C 
ATOM      4  C   UNL     1      34.037 -21.723 -18.032  0.00  0.00    -0.001 C 
ATOM      5  C   UNL     1      32.096 -20.697 -19.040  0.00  0.00    -0.001 C 
ATOM      6  C   UNL     1      34.863 -21.034 -18.919  0.00  0.00    +0.037 C 
ATOM      7  C   UNL     1      32.922 -20.007 -19.928  0.00  0.00    +0.037 C 
BRANCH   3   8
ATOM      8  O   UNL     1      35.111 -19.503 -20.733  0.00  0.00    -0.453 OA
BRANCH   8  10
ATOM      9 BR   UNL     1      34.226 -19.665 -23.722  0.00  0.00    -0.046 Br
ATOM     10  C   UNL     1      34.657 -18.293 -21.229  0.00  0.00    +0.151 C 
ATOM     11  C   UNL     1      34.224 -18.184 -22.539  0.00  0.00    +0.069 C 
ATOM     12  C   UNL     1      34.653 -17.206 -20.372  0.00  0.00    +0.038 C 
ATOM     13  C   UNL     1      33.773 -16.950 -23.007  0.00  0.00    +0.010 C 
ATOM     14  C   UNL     1      34.200 -15.972 -20.840  0.00  0.00    +0.003 C 
ATOM     15  C   UNL     1      33.761 -15.844 -22.157  0.00  0.00    +0.001 C 
ENDBRANCH   8  10
ENDBRANCH   3   8
ENDBRANCH   1   2
BRANCH   1  16
ATOM     16  CA  UNL     1      32.157 -22.795 -15.973  0.00  0.00    +0.108 C 
ATOM     17  O   UNL     1      33.055 -23.901 -13.499  0.00  0.00    -0.270 OA
ATOM     18  N   UNL     1      33.436 -23.173 -15.675  0.00  0.00    -0.278 N 
ATOM     19  C   UNL     1      33.809 -23.705 -14.450  0.00  0.00    +0.249 C 
ATOM     20  H   UNL     1      34.128 -23.061 -16.366  0.00  0.00    +0.155 HD
BRANCH  19  21
ATOM     21  C   UNL     1      35.241 -24.078 -14.322  0.00  0.00    +0.054 C 
ATOM     22  C   UNL     1      35.562 -25.338 -13.860  0.00  0.00    +0.005 C 
ATOM     23  C   UNL     1      36.203 -23.154 -14.672  0.00  0.00    +0.005 C 
ATOM     24  C   UNL     1      36.906 -25.688 -13.740  0.00  0.00    +0.000 C 
ATOM     25  C   UNL     1      37.548 -23.505 -14.552  0.00  0.00    +0.000 C 
ATOM     26  C   UNL     1      37.899 -24.773 -14.086  0.00  0.00    +0.000 C 
ENDBRANCH  19  21
BRANCH  16  28
ATOM     27  OXT UNL     1      30.274 -23.873 -14.922  0.00  0.00    -0.244 OA
ATOM     28  C   UNL     1      31.107 -22.979 -14.936  0.00  0.00    +0.348 C 
BRANCH  28  29
ATOM     29  O   UNL     1      31.187 -22.014 -13.989  0.00  0.00    -0.476 OA
ATOM     30  H   UNL     1      30.445 -21.823 -13.450  0.00  0.00    +0.295 HD
ENDBRANCH  28  29
ENDBRANCH  16  28
ENDBRANCH   1  16
TORSDOF 7
ENDMDL
MODEL 9
REMARK VINA RESULT:     -10.3      5.225      8.866
REMARK  Name = 657131
REMARK  7 active torsions:
REMARK  status: ('A' for Active; 'I' for Inactive)
REMARK    1  A    between atoms: C_1  and  CA_2
REMARK    2  A    between atoms: C_1  and  C_3
REMARK    3  A    between atoms: CA_2  and  C_28
REMARK    4  A    between atoms: C_4  and  O_9
REMARK    5  A    between atoms: O_9  and  C_11
REMARK    6  A    between atoms: C_19  and  C_21
REMARK    7  A    between atoms: C_28  and  O_29
REMARK                            x       y       z     vdW  Elec       q    Type
REMARK                         _______ _______ _______ _____ _____    ______ ____
ROOT
ATOM      1  C   UNL     1      33.683 -22.573 -18.194  0.00  0.00    +0.074 C 
ENDROOT
BRANCH   1   2
ATOM      2  C   UNL     1      34.009 -21.328 -18.869  0.00  0.00    -0.016 C 
ATOM      3  C   UNL     1      34.631 -18.938 -20.166  0.00  0.00    +0.145 C 
ATOM      4  C   UNL     1      35.335 -20.905 -18.953  0.00  0.00    -0.001 C 
ATOM      5  C   UNL     1      32.993 -20.556 -19.434  0.00  0.00    -0.001 C 
ATOM      6  C   UNL     1      35.646 -19.710 -19.602  0.00  0.00    +0.037 C 
ATOM      7  C   UNL     1      33.305 -19.361 -20.082  0.00  0.00    +0.037 C 
BRANCH   3   8
ATOM      8  O   UNL     1      34.935 -17.773 -20.799  0.00  0.00    -0.453 OA
BRANCH   8  10
ATOM      9 BR   UNL     1      33.876 -14.842 -20.988  0.00  0.00    -0.046 Br
ATOM     10  C   UNL     1      34.295 -17.504 -21.998  0.00  0.00    +0.151 C 
ATOM     11  C   UNL     1      33.763 -16.251 -22.250  0.00  0.00    +0.069 C 
ATOM     12  C   UNL     1      34.208 -18.528 -22.925  0.00  0.00    +0.038 C 
ATOM     13  C   UNL     1      33.125 -16.015 -23.468  0.00  0.00    +0.010 C 
ATOM     14  C   UNL     1      33.570 -18.291 -24.143  0.00  0.00    +0.003 C 
ATOM     15  C   UNL     1      33.029 -17.035 -24.414  0.00  0.00    +0.001 C 
ENDBRANCH   8  10
ENDBRANCH   3   8
ENDBRANCH   1   2
BRANCH   1  16
ATOM     16  CA  UNL     1      33.241 -22.702 -16.921  0.00  0.00    +0.108 C 
ATOM     17  O   UNL     1      32.184 -22.986 -14.285  0.00  0.00    -0.270 OA
ATOM     18  N   UNL     1      31.925 -22.875 -16.593  0.00  0.00    -0.278 N 
ATOM     19  C   UNL     1      31.475 -23.007 -15.289  0.00  0.00    +0.249 C 
ATOM     20  H   UNL     1      31.264 -22.907 -17.321  0.00  0.00    +0.155 HD
BRANCH  19  21
ATOM     21  C   UNL     1      30.006 -23.163 -15.130  0.00  0.00    +0.054 C 
ATOM     22  C   UNL     1      29.172 -22.218 -15.691  0.00  0.00    +0.005 C 
ATOM     23  C   UNL     1      29.524 -24.249 -14.430  0.00  0.00    +0.005 C 
ATOM     24  C   UNL     1      27.794 -22.365 -15.543  0.00  0.00    +0.000 C 
ATOM     25  C   UNL     1      28.144 -24.395 -14.283  0.00  0.00    +0.000 C 
ATOM     26  C   UNL     1      27.279 -23.453 -14.839  0.00  0.00    +0.000 C 
ENDBRANCH  19  21
BRANCH  16  28
ATOM     27  OXT UNL     1      34.759 -21.615 -15.395  0.00  0.00    -0.244 OA
ATOM     28  C   UNL     1      34.239 -22.636 -15.820  0.00  0.00    +0.348 C 
BRANCH  28  29
ATOM     29  O   UNL     1      34.509 -23.872 -15.337  0.00  0.00    -0.476 OA
ATOM     30  H   UNL     1      34.129 -24.152 -14.527  0.00  0.00    +0.295 HD
ENDBRANCH  28  29
ENDBRANCH  16  28
ENDBRANCH   1  16
TORSDOF 7
ENDMDL
