MODEL 1
REMARK VINA RESULT:     -12.3      0.000      0.000
REMARK  Name = 10156987
REMARK  5 active torsions:
REMARK  status: ('A' for Active; 'I' for Inactive)
REMARK    1  A    between atoms: C_2  and  C_23
REMARK    2  A    between atoms: C_9  and  C_13
REMARK    3  A    between atoms: C_23  and  N_24
REMARK    4  A    between atoms: C_25  and  C_31
REMARK    5  A    between atoms: C_31  and  N_32
REMARK                            x       y       z     vdW  Elec       q    Type
REMARK                         _______ _______ _______ _____ _____    ______ ____
ROOT
ATOM      1  N   UNL     1      34.257 -21.404 -17.849  0.00  0.00    -0.312 N 
ATOM      2  C   UNL     1      34.433 -19.253 -21.351  0.00  0.00    -0.043 C 
ATOM      3  C   UNL     1      33.233 -19.716 -20.809  0.00  0.00    -0.005 C 
ATOM      4  C   UNL     1      35.650 -19.496 -20.727  0.00  0.00    -0.005 C 
ATOM      5  C   UNL     1      33.267 -20.445 -19.603  0.00  0.00    +0.014 C 
ATOM      6  C   UNL     1      34.502 -20.679 -18.995  0.00  0.00    +0.048 C 
ATOM      7  C   UNL     1      35.708 -20.218 -19.532  0.00  0.00    +0.014 C 
ATOM      8  C   UNL     1      32.276 -21.054 -18.785  0.00  0.00    +0.016 C 
ATOM      9  C   UNL     1      32.915 -21.635 -17.714  0.00  0.00    +0.053 C 
ATOM     10  H   UNL     1      34.948 -21.711 -17.219  0.00  0.00    +0.152 HD
ENDROOT
BRANCH   9  13
ATOM     11  O   UNL     1      34.679 -22.814 -15.801  0.00  0.00    -0.270 OA
ATOM     12  N   UNL     1      32.958 -23.646 -14.536  0.00  0.00    -0.280 N 
ATOM     13  C   UNL     1      32.469 -22.378 -16.577  0.00  0.00    +0.067 C 
ATOM     14  C   UNL     1      31.152 -22.552 -16.371  0.00  0.00    +0.007 C 
ATOM     15  C   UNL     1      33.470 -22.954 -15.617  0.00  0.00    +0.251 C 
ATOM     16  C   UNL     1      30.661 -23.298 -15.214  0.00  0.00    +0.014 C 
ATOM     17  C   UNL     1      31.585 -23.833 -14.311  0.00  0.00    +0.051 C 
ATOM     18  C   UNL     1      29.295 -23.487 -14.990  0.00  0.00    +0.001 C 
ATOM     19  C   UNL     1      31.154 -24.550 -13.192  0.00  0.00    +0.015 C 
ATOM     20  C   UNL     1      28.862 -24.203 -13.872  0.00  0.00    +0.000 C 
ATOM     21  C   UNL     1      29.789 -24.734 -12.976  0.00  0.00    +0.001 C 
ATOM     22  H   UNL     1      33.592 -24.029 -13.887  0.00  0.00    +0.155 HD
ENDBRANCH   9  13
BRANCH   2  23
ATOM     23  C   UNL     1      34.404 -18.477 -22.635  0.00  0.00    -0.050 C 
BRANCH  23  24
ATOM     24  N   UNL     1      33.776 -17.166 -22.468  0.00  0.00    +0.390 N 
ATOM     25  C   UNL     1      33.715 -14.234 -22.488  0.00  0.00    -0.026 C 
ATOM     26  C   UNL     1      33.778 -15.047 -21.190  0.00  0.00    -0.025 C 
ATOM     27  C   UNL     1      33.076 -15.078 -23.596  0.00  0.00    -0.025 C 
ATOM     28  C   UNL     1      34.456 -16.400 -21.414  0.00  0.00    -0.077 C 
ATOM     29  C   UNL     1      33.776 -16.431 -23.740  0.00  0.00    -0.077 C 
ATOM     30  H   UNL     1      32.807 -17.301 -22.183  0.00  0.00    -0.079 HD
BRANCH  25  31
ATOM     31  C   UNL     1      32.949 -12.929 -22.282  0.00  0.00    -0.086 C 
BRANCH  31  32
ATOM     32  N   UNL     1      33.491 -11.872 -23.121  0.00  0.00    +0.380 N 
ATOM     33  H   UNL     1      34.051 -11.239 -22.551  0.00  0.00    -0.089 HD
ATOM     34  H   UNL     1      32.724 -11.353 -23.551  0.00  0.00    -0.089 HD
ATOM     35  H   UNL     1      34.075 -12.281 -23.851  0.00  0.00    -0.089 HD
ENDBRANCH  31  32
ENDBRANCH  25  31
ENDBRANCH  23  24
ENDBRANCH   2  23
TORSDOF 5
ENDMDL
MODEL 2
REMARK VINA RESULT:     -11.9      3.199     11.063
REMARK  Name = 10156987
REMARK  5 active torsions:
REMARK  status: ('A' for Active; 'I' for Inactive)
REMARK    1  A    between atoms: C_2  and  C_23
REMARK    2  A    between atoms: C_9  and  C_13
REMARK    3  A    between atoms: C_23  and  N_24
REMARK    4  A    between atoms: C_25  and  C_31
REMARK    5  A    between atoms: C_31  and  N_32
REMARK                            x       y       z     vdW  Elec       q    Type
REMARK                         _______ _______ _______ _____ _____    ______ ____
ROOT
ATOM      1  N   UNL     1      33.163 -14.532 -22.851  0.00  0.00    -0.312 N 
ATOM      2  C   UNL     1      34.792 -18.027 -21.419  0.00  0.00    -0.043 C 
ATOM      3  C   UNL     1      34.540 -16.922 -20.605  0.00  0.00    -0.005 C 
ATOM      4  C   UNL     1      34.501 -18.006 -22.777  0.00  0.00    -0.005 C 
ATOM      5  C   UNL     1      33.979 -15.764 -21.180  0.00  0.00    +0.014 C 
ATOM      6  C   UNL     1      33.696 -15.765 -22.548  0.00  0.00    +0.048 C 
ATOM      7  C   UNL     1      33.945 -16.869 -23.371  0.00  0.00    +0.014 C 
ATOM      8  C   UNL     1      33.599 -14.490 -20.676  0.00  0.00    +0.016 C 
ATOM      9  C   UNL     1      33.101 -13.755 -21.726  0.00  0.00    +0.053 C 
ATOM     10  H   UNL     1      32.870 -14.250 -23.748  0.00  0.00    +0.152 HD
ENDROOT
BRANCH   9  13
ATOM     11  O   UNL     1      31.024 -12.719 -20.060  0.00  0.00    -0.270 OA
ATOM     12  N   UNL     1      31.041 -10.672 -21.091  0.00  0.00    -0.280 N 
ATOM     13  C   UNL     1      32.573 -12.432 -21.848  0.00  0.00    +0.067 C 
ATOM     14  C   UNL     1      33.058 -11.605 -22.791  0.00  0.00    +0.007 C 
ATOM     15  C   UNL     1      31.487 -11.969 -20.919  0.00  0.00    +0.251 C 
ATOM     16  C   UNL     1      32.548 -10.244 -22.936  0.00  0.00    +0.014 C 
ATOM     17  C   UNL     1      31.541  -9.801 -22.072  0.00  0.00    +0.051 C 
ATOM     18  C   UNL     1      33.044  -9.376 -23.913  0.00  0.00    +0.001 C 
ATOM     19  C   UNL     1      31.030  -8.506 -22.179  0.00  0.00    +0.015 C 
ATOM     20  C   UNL     1      32.534  -8.080 -24.021  0.00  0.00    +0.000 C 
ATOM     21  C   UNL     1      31.529  -7.647 -23.157  0.00  0.00    +0.001 C 
ATOM     22  H   UNL     1      30.333 -10.341 -20.492  0.00  0.00    +0.155 HD
ENDBRANCH   9  13
BRANCH   2  23
ATOM     23  C   UNL     1      35.390 -19.262 -20.812  0.00  0.00    -0.050 C 
BRANCH  23  24
ATOM     24  N   UNL     1      34.558 -19.803 -19.738  0.00  0.00    +0.390 N 
ATOM     25  C   UNL     1      32.894 -21.842 -18.444  0.00  0.00    -0.026 C 
ATOM     26  C   UNL     1      32.300 -20.593 -19.103  0.00  0.00    -0.025 C 
ATOM     27  C   UNL     1      34.337 -21.562 -18.012  0.00  0.00    -0.025 C 
ATOM     28  C   UNL     1      33.199 -20.076 -20.228  0.00  0.00    -0.077 C 
ATOM     29  C   UNL     1      35.170 -21.013 -19.173  0.00  0.00    -0.077 C 
ATOM     30  H   UNL     1      34.490 -19.108 -18.995  0.00  0.00    -0.079 HD
BRANCH  25  31
ATOM     31  C   UNL     1      32.045 -22.294 -17.258  0.00  0.00    -0.086 C 
BRANCH  31  32
ATOM     32  N   UNL     1      32.882 -22.819 -16.191  0.00  0.00    +0.380 N 
ATOM     33  H   UNL     1      33.854 -22.837 -16.498  0.00  0.00    -0.089 HD
ATOM     34  H   UNL     1      32.582 -23.765 -15.957  0.00  0.00    -0.089 HD
ATOM     35  H   UNL     1      32.797 -22.222 -15.367  0.00  0.00    -0.089 HD
ENDBRANCH  31  32
ENDBRANCH  25  31
ENDBRANCH  23  24
ENDBRANCH   2  23
TORSDOF 5
ENDMDL
MODEL 3
REMARK VINA RESULT:     -11.8      2.173      3.183
REMARK  Name = 10156987
REMARK  5 active torsions:
REMARK  status: ('A' for Active; 'I' for Inactive)
REMARK    1  A    between atoms: C_2  and  C_23
REMARK    2  A    between atoms: C_9  and  C_13
REMARK    3  A    between atoms: C_23  and  N_24
REMARK    4  A    between atoms: C_25  and  C_31
REMARK    5  A    between atoms: C_31  and  N_32
REMARK                            x       y       z     vdW  Elec       q    Type
REMARK                         _______ _______ _______ _____ _____    ______ ____
ROOT
ATOM      1  N   UNL     1      35.331 -20.172 -19.087  0.00  0.00    -0.312 N 
ATOM      2  C   UNL     1      34.233 -18.190 -22.519  0.00  0.00    -0.043 C 
ATOM      3  C   UNL     1      33.347 -18.982 -21.789  0.00  0.00    -0.005 C 
ATOM      4  C   UNL     1      35.553 -18.024 -22.120  0.00  0.00    -0.005 C 
ATOM      5  C   UNL     1      33.809 -19.625 -20.624  0.00  0.00    +0.014 C 
ATOM      6  C   UNL     1      35.140 -19.446 -20.242  0.00  0.00    +0.048 C 
ATOM      7  C   UNL     1      36.035 -18.653 -20.968  0.00  0.00    +0.014 C 
ATOM      8  C   UNL     1      33.210 -20.483 -19.660  0.00  0.00    +0.016 C 
ATOM      9  C   UNL     1      34.170 -20.802 -18.728  0.00  0.00    +0.053 C 
ATOM     10  H   UNL     1      36.180 -20.230 -18.592  0.00  0.00    +0.152 HD
ENDROOT
BRANCH   9  13
ATOM     11  O   UNL     1      31.917 -22.312 -17.830  0.00  0.00    -0.270 OA
ATOM     12  N   UNL     1      33.037 -23.145 -16.012  0.00  0.00    -0.280 N 
ATOM     13  C   UNL     1      34.176 -21.609 -17.548  0.00  0.00    +0.067 C 
ATOM     14  C   UNL     1      35.288 -21.680 -16.795  0.00  0.00    +0.007 C 
ATOM     15  C   UNL     1      32.946 -22.378 -17.158  0.00  0.00    +0.251 C 
ATOM     16  C   UNL     1      35.332 -22.501 -15.588  0.00  0.00    +0.014 C 
ATOM     17  C   UNL     1      34.194 -23.226 -15.220  0.00  0.00    +0.051 C 
ATOM     18  C   UNL     1      36.481 -22.581 -14.797  0.00  0.00    +0.001 C 
ATOM     19  C   UNL     1      34.198 -24.025 -14.074  0.00  0.00    +0.015 C 
ATOM     20  C   UNL     1      36.487 -23.380 -13.651  0.00  0.00    +0.000 C 
ATOM     21  C   UNL     1      35.349 -24.099 -13.290  0.00  0.00    +0.001 C 
ATOM     22  H   UNL     1      32.247 -23.665 -15.737  0.00  0.00    +0.155 HD
ENDBRANCH   9  13
BRANCH   2  23
ATOM     23  C   UNL     1      33.747 -17.503 -23.762  0.00  0.00    -0.050 C 
BRANCH  23  24
ATOM     24  N   UNL     1      33.798 -16.046 -23.639  0.00  0.00    +0.390 N 
ATOM     25  C   UNL     1      32.722 -13.403 -22.965  0.00  0.00    -0.026 C 
ATOM     26  C   UNL     1      32.850 -13.895 -24.411  0.00  0.00    -0.025 C 
ATOM     27  C   UNL     1      33.743 -14.125 -22.081  0.00  0.00    -0.025 C 
ATOM     28  C   UNL     1      32.775 -15.421 -24.488  0.00  0.00    -0.077 C 
ATOM     29  C   UNL     1      33.639 -15.644 -22.234  0.00  0.00    -0.077 C 
ATOM     30  H   UNL     1      34.712 -15.723 -23.957  0.00  0.00    -0.079 HD
BRANCH  25  31
ATOM     31  C   UNL     1      32.898 -11.889 -22.883  0.00  0.00    -0.086 C 
BRANCH  31  32
ATOM     32  N   UNL     1      33.264 -11.338 -24.178  0.00  0.00    +0.380 N 
ATOM     33  H   UNL     1      34.260 -11.122 -24.187  0.00  0.00    -0.089 HD
ATOM     34  H   UNL     1      32.731 -10.485 -24.348  0.00  0.00    -0.089 HD
ATOM     35  H   UNL     1      33.057 -12.019 -24.909  0.00  0.00    -0.089 HD
ENDBRANCH  31  32
ENDBRANCH  25  31
ENDBRANCH  23  24
ENDBRANCH   2  23
TORSDOF 5
ENDMDL
MODEL 4
REMARK VINA RESULT:     -11.7      2.472      3.613
REMARK  Name = 10156987
REMARK  5 active torsions:
REMARK  status: ('A' for Active; 'I' for Inactive)
REMARK    1  A    between atoms: C_2  and  C_23
REMARK    2  A    between atoms: C_9  and  C_13
REMARK    3  A    between atoms: C_23  and  N_24
REMARK    4  A    between atoms: C_25  and  C_31
REMARK    5  A    between atoms: C_31  and  N_32
REMARK                            x       y       z     vdW  Elec       q    Type
REMARK                         _______ _______ _______ _____ _____    ______ ____
ROOT
ATOM      1  N   UNL     1      33.574 -21.933 -17.078  0.00  0.00    -0.312 N 
ATOM      2  C   UNL     1      34.292 -19.755 -20.493  0.00  0.00    -0.043 C 
ATOM      3  C   UNL     1      35.307 -20.142 -19.617  0.00  0.00    -0.005 C 
ATOM      4  C   UNL     1      32.964 -20.091 -20.255  0.00  0.00    -0.005 C 
ATOM      5  C   UNL     1      34.970 -20.888 -18.470  0.00  0.00    +0.014 C 
ATOM      6  C   UNL     1      33.629 -21.213 -18.251  0.00  0.00    +0.048 C 
ATOM      7  C   UNL     1      32.606 -20.828 -19.124  0.00  0.00    +0.014 C 
ATOM      8  C   UNL     1      35.714 -21.437 -17.389  0.00  0.00    +0.016 C 
ATOM      9  C   UNL     1      34.829 -22.073 -16.550  0.00  0.00    +0.053 C 
ATOM     10  H   UNL     1      32.750 -22.294 -16.677  0.00  0.00    +0.152 HD
ENDROOT
BRANCH   9  13
ATOM     11  O   UNL     1      32.666 -22.582 -14.754  0.00  0.00    -0.270 OA
ATOM     12  N   UNL     1      33.989 -23.745 -13.287  0.00  0.00    -0.280 N 
ATOM     13  C   UNL     1      34.970 -22.796 -15.325  0.00  0.00    +0.067 C 
ATOM     14  C   UNL     1      36.175 -23.273 -14.968  0.00  0.00    +0.007 C 
ATOM     15  C   UNL     1      33.773 -23.024 -14.447  0.00  0.00    +0.251 C 
ATOM     16  C   UNL     1      36.352 -24.023 -13.727  0.00  0.00    +0.014 C 
ATOM     17  C   UNL     1      35.243 -24.248 -12.906  0.00  0.00    +0.051 C 
ATOM     18  C   UNL     1      37.600 -24.523 -13.345  0.00  0.00    +0.001 C 
ATOM     19  C   UNL     1      35.372 -24.963 -11.713  0.00  0.00    +0.015 C 
ATOM     20  C   UNL     1      37.732 -25.239 -12.153  0.00  0.00    +0.000 C 
ATOM     21  C   UNL     1      36.621 -25.457 -11.339  0.00  0.00    +0.001 C 
ATOM     22  H   UNL     1      33.220 -23.914 -12.696  0.00  0.00    +0.155 HD
ENDBRANCH   9  13
BRANCH   2  23
ATOM     23  C   UNL     1      34.644 -18.960 -21.716  0.00  0.00    -0.050 C 
BRANCH  23  24
ATOM     24  N   UNL     1      33.968 -17.663 -21.740  0.00  0.00    +0.390 N 
ATOM     25  C   UNL     1      33.836 -14.746 -22.011  0.00  0.00    -0.026 C 
ATOM     26  C   UNL     1      33.751 -15.451 -20.652  0.00  0.00    -0.025 C 
ATOM     27  C   UNL     1      33.368 -15.697 -23.117  0.00  0.00    -0.025 C 
ATOM     28  C   UNL     1      34.485 -16.792 -20.675  0.00  0.00    -0.077 C 
ATOM     29  C   UNL     1      34.115 -17.031 -23.058  0.00  0.00    -0.077 C 
ATOM     30  H   UNL     1      32.973 -17.810 -21.571  0.00  0.00    -0.079 HD
BRANCH  25  31
ATOM     31  C   UNL     1      33.018 -13.457 -22.013  0.00  0.00    -0.086 C 
BRANCH  31  32
ATOM     32  N   UNL     1      33.644 -12.447 -22.850  0.00  0.00    +0.380 N 
ATOM     33  H   UNL     1      34.449 -12.852 -23.328  0.00  0.00    -0.089 HD
ATOM     34  H   UNL     1      33.951 -11.666 -22.269  0.00  0.00    -0.089 HD
ATOM     35  H   UNL     1      32.972 -12.112 -23.541  0.00  0.00    -0.089 HD
ENDBRANCH  31  32
ENDBRANCH  25  31
ENDBRANCH  23  24
ENDBRANCH   2  23
TORSDOF 5
ENDMDL
MODEL 5
REMARK VINA RESULT:     -11.1      4.762     12.790
REMARK  Name = 10156987
REMARK  5 active torsions:
REMARK  status: ('A' for Active; 'I' for Inactive)
REMARK    1  A    between atoms: C_2  and  C_23
REMARK    2  A    between atoms: C_9  and  C_13
REMARK    3  A    between atoms: C_23  and  N_24
REMARK    4  A    between atoms: C_25  and  C_31
REMARK    5  A    between atoms: C_31  and  N_32
REMARK                            x       y       z     vdW  Elec       q    Type
REMARK                         _______ _______ _______ _____ _____    ______ ____
ROOT
ATOM      1  N   UNL     1      33.009 -11.682 -21.629  0.00  0.00    -0.312 N 
ATOM      2  C   UNL     1      33.844 -15.660 -22.261  0.00  0.00    -0.043 C 
ATOM      3  C   UNL     1      33.729 -14.738 -23.302  0.00  0.00    -0.005 C 
ATOM      4  C   UNL     1      33.682 -15.278 -20.935  0.00  0.00    -0.005 C 
ATOM      5  C   UNL     1      33.440 -13.394 -22.993  0.00  0.00    +0.014 C 
ATOM      6  C   UNL     1      33.280 -13.032 -21.654  0.00  0.00    +0.048 C 
ATOM      7  C   UNL     1      33.395 -13.950 -20.605  0.00  0.00    +0.014 C 
ATOM      8  C   UNL     1      33.255 -12.216 -23.769  0.00  0.00    +0.016 C 
ATOM      9  C   UNL     1      32.991 -11.181 -22.902  0.00  0.00    +0.053 C 
ATOM     10  H   UNL     1      32.849 -11.155 -20.813  0.00  0.00    +0.152 HD
ENDROOT
BRANCH   9  13
ATOM     11  O   UNL     1      30.998  -9.757 -21.431  0.00  0.00    -0.270 OA
ATOM     12  N   UNL     1      31.472  -7.767 -22.465  0.00  0.00    -0.280 N 
ATOM     13  C   UNL     1      32.723  -9.787 -23.076  0.00  0.00    +0.067 C 
ATOM     14  C   UNL     1      33.428  -9.080 -23.975  0.00  0.00    +0.007 C 
ATOM     15  C   UNL     1      31.661  -9.119 -22.249  0.00  0.00    +0.251 C 
ATOM     16  C   UNL     1      33.185  -7.653 -24.171  0.00  0.00    +0.014 C 
ATOM     17  C   UNL     1      32.204  -7.020 -23.402  0.00  0.00    +0.051 C 
ATOM     18  C   UNL     1      33.912  -6.908 -25.105  0.00  0.00    +0.001 C 
ATOM     19  C   UNL     1      31.945  -5.656 -23.559  0.00  0.00    +0.015 C 
ATOM     20  C   UNL     1      33.654  -5.544 -25.263  0.00  0.00    +0.000 C 
ATOM     21  C   UNL     1      32.674  -4.920 -24.493  0.00  0.00    +0.001 C 
ATOM     22  H   UNL     1      30.787  -7.302 -21.933  0.00  0.00    +0.155 HD
ENDBRANCH   9  13
BRANCH   2  23
ATOM     23  C   UNL     1      34.150 -17.093 -22.583  0.00  0.00    -0.050 C 
BRANCH  23  24
ATOM     24  N   UNL     1      34.368 -17.891 -21.377  0.00  0.00    +0.390 N 
ATOM     25  C   UNL     1      35.124 -20.307 -19.896  0.00  0.00    -0.026 C 
ATOM     26  C   UNL     1      33.664 -19.885 -20.090  0.00  0.00    -0.025 C 
ATOM     27  C   UNL     1      36.034 -19.078 -19.985  0.00  0.00    -0.025 C 
ATOM     28  C   UNL     1      33.487 -19.068 -21.371  0.00  0.00    -0.077 C 
ATOM     29  C   UNL     1      35.779 -18.287 -21.269  0.00  0.00    -0.077 C 
ATOM     30  H   UNL     1      34.138 -17.323 -20.562  0.00  0.00    -0.079 HD
BRANCH  25  31
ATOM     31  C   UNL     1      35.313 -21.035 -18.568  0.00  0.00    -0.086 C 
BRANCH  31  32
ATOM     32  N   UNL     1      34.089 -21.712 -18.168  0.00  0.00    +0.380 N 
ATOM     33  H   UNL     1      33.319 -21.397 -18.757  0.00  0.00    -0.089 HD
ATOM     34  H   UNL     1      33.882 -21.493 -17.193  0.00  0.00    -0.089 HD
ATOM     35  H   UNL     1      34.207 -22.720 -18.273  0.00  0.00    -0.089 HD
ENDBRANCH  31  32
ENDBRANCH  25  31
ENDBRANCH  23  24
ENDBRANCH   2  23
TORSDOF 5
ENDMDL
MODEL 6
REMARK VINA RESULT:     -10.9      6.348     10.789
REMARK  Name = 10156987
REMARK  5 active torsions:
REMARK  status: ('A' for Active; 'I' for Inactive)
REMARK    1  A    between atoms: C_2  and  C_23
REMARK    2  A    between atoms: C_9  and  C_13
REMARK    3  A    between atoms: C_23  and  N_24
REMARK    4  A    between atoms: C_25  and  C_31
REMARK    5  A    between atoms: C_31  and  N_32
REMARK                            x       y       z     vdW  Elec       q    Type
REMARK                         _______ _______ _______ _____ _____    ______ ____
ROOT
ATOM      1  N   UNL     1      34.025 -12.136 -24.029  0.00  0.00    -0.312 N 
ATOM      2  C   UNL     1      32.631  -8.304 -23.489  0.00  0.00    -0.043 C 
ATOM      3  C   UNL     1      32.072  -9.408 -22.845  0.00  0.00    -0.005 C 
ATOM      4  C   UNL     1      33.706  -8.441 -24.359  0.00  0.00    -0.005 C 
ATOM      5  C   UNL     1      32.614 -10.686 -23.089  0.00  0.00    +0.014 C 
ATOM      6  C   UNL     1      33.693 -10.801 -23.968  0.00  0.00    +0.048 C 
ATOM      7  C   UNL     1      34.259  -9.698 -24.617  0.00  0.00    +0.014 C 
ATOM      8  C   UNL     1      32.311 -11.997 -22.626  0.00  0.00    +0.016 C 
ATOM      9  C   UNL     1      33.195 -12.866 -23.222  0.00  0.00    +0.053 C 
ATOM     10  H   UNL     1      34.753 -12.511 -24.576  0.00  0.00    +0.152 HD
ENDROOT
BRANCH   9  13
ATOM     11  O   UNL     1      32.804 -14.622 -25.442  0.00  0.00    -0.270 OA
ATOM     12  N   UNL     1      33.393 -16.482 -24.239  0.00  0.00    -0.280 N 
ATOM     13  C   UNL     1      33.390 -14.281 -23.157  0.00  0.00    +0.067 C 
ATOM     14  C   UNL     1      33.775 -14.848 -22.000  0.00  0.00    +0.007 C 
ATOM     15  C   UNL     1      33.170 -15.126 -24.380  0.00  0.00    +0.251 C 
ATOM     16  C   UNL     1      33.991 -16.290 -21.902  0.00  0.00    +0.014 C 
ATOM     17  C   UNL     1      33.796 -17.084 -23.036  0.00  0.00    +0.051 C 
ATOM     18  C   UNL     1      34.390 -16.890 -20.704  0.00  0.00    +0.001 C 
ATOM     19  C   UNL     1      33.995 -18.466 -22.981  0.00  0.00    +0.015 C 
ATOM     20  C   UNL     1      34.590 -18.272 -20.648  0.00  0.00    +0.000 C 
ATOM     21  C   UNL     1      34.393 -19.057 -21.783  0.00  0.00    +0.001 C 
ATOM     22  H   UNL     1      33.262 -17.059 -25.026  0.00  0.00    +0.155 HD
ENDBRANCH   9  13
BRANCH   2  23
ATOM     23  C   UNL     1      32.058  -6.941 -23.234  0.00  0.00    -0.050 C 
BRANCH  23  24
ATOM     24  N   UNL     1      31.562  -6.803 -21.865  0.00  0.00    +0.390 N 
ATOM     25  C   UNL     1      31.448  -5.597 -19.194  0.00  0.00    -0.026 C 
ATOM     26  C   UNL     1      32.130  -6.943 -19.460  0.00  0.00    -0.025 C 
ATOM     27  C   UNL     1      30.377  -5.340 -20.259  0.00  0.00    -0.025 C 
ATOM     28  C   UNL     1      32.645  -7.031 -20.898  0.00  0.00    -0.077 C 
ATOM     29  C   UNL     1      30.949  -5.481 -21.671  0.00  0.00    -0.077 C 
ATOM     30  H   UNL     1      30.843  -7.509 -21.705  0.00  0.00    -0.079 HD
BRANCH  25  31
ATOM     31  C   UNL     1      30.848  -5.553 -17.791  0.00  0.00    -0.086 C 
BRANCH  31  32
ATOM     32  N   UNL     1      31.498  -4.535 -16.981  0.00  0.00    +0.380 N 
ATOM     33  H   UNL     1      31.510  -4.833 -16.006  0.00  0.00    -0.089 HD
ATOM     34  H   UNL     1      30.984  -3.657 -17.061  0.00  0.00    -0.089 HD
ATOM     35  H   UNL     1      32.455  -4.399 -17.307  0.00  0.00    -0.089 HD
ENDBRANCH  31  32
ENDBRANCH  25  31
ENDBRANCH  23  24
ENDBRANCH   2  23
TORSDOF 5
ENDMDL
MODEL 7
REMARK VINA RESULT:     -10.8      4.505     12.246
REMARK  Name = 10156987
REMARK  5 active torsions:
REMARK  status: ('A' for Active; 'I' for Inactive)
REMARK    1  A    between atoms: C_2  and  C_23
REMARK    2  A    between atoms: C_9  and  C_13
REMARK    3  A    between atoms: C_23  and  N_24
REMARK    4  A    between atoms: C_25  and  C_31
REMARK    5  A    between atoms: C_31  and  N_32
REMARK                            x       y       z     vdW  Elec       q    Type
REMARK                         _______ _______ _______ _____ _____    ______ ____
ROOT
ATOM      1  N   UNL     1      33.025 -12.151 -21.531  0.00  0.00    -0.312 N 
ATOM      2  C   UNL     1      34.087 -16.101 -21.967  0.00  0.00    -0.043 C 
ATOM      3  C   UNL     1      33.991 -15.222 -23.047  0.00  0.00    -0.005 C 
ATOM      4  C   UNL     1      33.827 -15.683 -20.668  0.00  0.00    -0.005 C 
ATOM      5  C   UNL     1      33.620 -13.884 -22.805  0.00  0.00    +0.014 C 
ATOM      6  C   UNL     1      33.362 -13.486 -21.491  0.00  0.00    +0.048 C 
ATOM      7  C   UNL     1      33.457 -14.362 -20.404  0.00  0.00    +0.014 C 
ATOM      8  C   UNL     1      33.426 -12.743 -23.632  0.00  0.00    +0.016 C 
ATOM      9  C   UNL     1      33.060 -11.694 -22.821  0.00  0.00    +0.053 C 
ATOM     10  H   UNL     1      32.791 -11.605 -20.746  0.00  0.00    +0.152 HD
ENDROOT
BRANCH   9  13
ATOM     11  O   UNL     1      34.381 -10.070 -24.766  0.00  0.00    -0.270 OA
ATOM     12  N   UNL     1      33.096  -8.233 -24.293  0.00  0.00    -0.280 N 
ATOM     13  C   UNL     1      32.736 -10.322 -23.060  0.00  0.00    +0.067 C 
ATOM     14  C   UNL     1      31.762  -9.734 -22.345  0.00  0.00    +0.007 C 
ATOM     15  C   UNL     1      33.478  -9.548 -24.112  0.00  0.00    +0.251 C 
ATOM     16  C   UNL     1      31.399  -8.336 -22.570  0.00  0.00    +0.014 C 
ATOM     17  C   UNL     1      32.079  -7.609 -23.552  0.00  0.00    +0.051 C 
ATOM     18  C   UNL     1      30.389  -7.713 -21.831  0.00  0.00    +0.001 C 
ATOM     19  C   UNL     1      31.759  -6.271 -23.798  0.00  0.00    +0.015 C 
ATOM     20  C   UNL     1      30.067  -6.376 -22.076  0.00  0.00    +0.000 C 
ATOM     21  C   UNL     1      30.751  -5.657 -23.056  0.00  0.00    +0.001 C 
ATOM     22  H   UNL     1      33.562  -7.703 -24.981  0.00  0.00    +0.155 HD
ENDBRANCH   9  13
BRANCH   2  23
ATOM     23  C   UNL     1      34.481 -17.527 -22.219  0.00  0.00    -0.050 C 
BRANCH  23  24
ATOM     24  N   UNL     1      34.472 -18.322 -20.991  0.00  0.00    +0.390 N 
ATOM     25  C   UNL     1      34.724 -20.791 -19.429  0.00  0.00    -0.026 C 
ATOM     26  C   UNL     1      33.366 -20.158 -19.753  0.00  0.00    -0.025 C 
ATOM     27  C   UNL     1      35.814 -19.716 -19.449  0.00  0.00    -0.025 C 
ATOM     28  C   UNL     1      33.425 -19.352 -21.052  0.00  0.00    -0.077 C 
ATOM     29  C   UNL     1      35.792 -18.923 -20.758  0.00  0.00    -0.077 C 
ATOM     30  H   UNL     1      34.263 -17.708 -20.205  0.00  0.00    -0.079 HD
BRANCH  25  31
ATOM     31  C   UNL     1      34.687 -21.510 -18.083  0.00  0.00    -0.086 C 
BRANCH  31  32
ATOM     32  N   UNL     1      35.874 -21.208 -17.300  0.00  0.00    +0.380 N 
ATOM     33  H   UNL     1      36.548 -21.967 -17.398  0.00  0.00    -0.089 HD
ATOM     34  H   UNL     1      35.617 -21.106 -16.318  0.00  0.00    -0.089 HD
ATOM     35  H   UNL     1      36.291 -20.338 -17.635  0.00  0.00    -0.089 HD
ENDBRANCH  31  32
ENDBRANCH  25  31
ENDBRANCH  23  24
ENDBRANCH   2  23
TORSDOF 5
ENDMDL
MODEL 8
REMARK VINA RESULT:     -10.8      7.177     12.033
REMARK  Name = 10156987
REMARK  5 active torsions:
REMARK  status: ('A' for Active; 'I' for Inactive)
REMARK    1  A    between atoms: C_2  and  C_23
REMARK    2  A    between atoms: C_9  and  C_13
REMARK    3  A    between atoms: C_23  and  N_24
REMARK    4  A    between atoms: C_25  and  C_31
REMARK    5  A    between atoms: C_31  and  N_32
REMARK                            x       y       z     vdW  Elec       q    Type
REMARK                         _______ _______ _______ _____ _____    ______ ____
ROOT
ATOM      1  N   UNL     1      33.841 -10.997 -23.929  0.00  0.00    -0.312 N 
ATOM      2  C   UNL     1      32.721  -7.248 -22.659  0.00  0.00    -0.043 C 
ATOM      3  C   UNL     1      32.135  -8.417 -22.171  0.00  0.00    -0.005 C 
ATOM      4  C   UNL     1      33.731  -7.289 -23.612  0.00  0.00    -0.005 C 
ATOM      5  C   UNL     1      32.581  -9.660 -22.663  0.00  0.00    +0.014 C 
ATOM      6  C   UNL     1      33.596  -9.677 -23.622  0.00  0.00    +0.048 C 
ATOM      7  C   UNL     1      34.189  -8.509 -24.115  0.00  0.00    +0.014 C 
ATOM      8  C   UNL     1      32.227 -11.013 -22.407  0.00  0.00    +0.016 C 
ATOM      9  C   UNL     1      33.018 -11.812 -23.199  0.00  0.00    +0.053 C 
ATOM     10  H   UNL     1      34.511 -11.309 -24.580  0.00  0.00    +0.152 HD
ENDROOT
BRANCH   9  13
ATOM     11  O   UNL     1      32.197 -13.164 -25.579  0.00  0.00    -0.270 OA
ATOM     12  N   UNL     1      32.833 -15.218 -24.785  0.00  0.00    -0.280 N 
ATOM     13  C   UNL     1      33.128 -13.225 -23.386  0.00  0.00    +0.067 C 
ATOM     14  C   UNL     1      33.640 -13.988 -22.405  0.00  0.00    +0.007 C 
ATOM     15  C   UNL     1      32.680 -13.848 -24.677  0.00  0.00    +0.251 C 
ATOM     16  C   UNL     1      33.775 -15.434 -22.566  0.00  0.00    +0.014 C 
ATOM     17  C   UNL     1      33.367 -16.023 -23.766  0.00  0.00    +0.051 C 
ATOM     18  C   UNL     1      34.304 -16.238 -21.552  0.00  0.00    +0.001 C 
ATOM     19  C   UNL     1      33.482 -17.403 -23.959  0.00  0.00    +0.015 C 
ATOM     20  C   UNL     1      34.421 -17.617 -21.743  0.00  0.00    +0.000 C 
ATOM     21  C   UNL     1      34.011 -18.197 -22.942  0.00  0.00    +0.001 C 
ATOM     22  H   UNL     1      32.552 -15.652 -25.623  0.00  0.00    +0.155 HD
ENDBRANCH   9  13
BRANCH   2  23
ATOM     23  C   UNL     1      32.250  -5.922 -22.140  0.00  0.00    -0.050 C 
BRANCH  23  24
ATOM     24  N   UNL     1      31.570  -5.140 -23.172  0.00  0.00    +0.390 N 
ATOM     25  C   UNL     1      29.310  -3.672 -24.330  0.00  0.00    -0.026 C 
ATOM     26  C   UNL     1      29.699  -5.080 -24.791  0.00  0.00    -0.025 C 
ATOM     27  C   UNL     1      30.534  -2.965 -23.738  0.00  0.00    -0.025 C 
ATOM     28  C   UNL     1      30.391  -5.861 -23.673  0.00  0.00    -0.077 C 
ATOM     29  C   UNL     1      31.199  -3.816 -22.654  0.00  0.00    -0.077 C 
ATOM     30  H   UNL     1      32.210  -5.003 -23.954  0.00  0.00    -0.079 HD
BRANCH  25  31
ATOM     31  C   UNL     1      28.712  -2.863 -25.477  0.00  0.00    -0.086 C 
BRANCH  31  32
ATOM     32  N   UNL     1      27.450  -2.257 -25.082  0.00  0.00    +0.380 N 
ATOM     33  H   UNL     1      27.202  -1.525 -25.748  0.00  0.00    -0.089 HD
ATOM     34  H   UNL     1      27.545  -1.851 -24.151  0.00  0.00    -0.089 HD
ATOM     35  H   UNL     1      26.719  -2.968 -25.071  0.00  0.00    -0.089 HD
ENDBRANCH  31  32
ENDBRANCH  25  31
ENDBRANCH  23  24
ENDBRANCH   2  23
TORSDOF 5
ENDMDL
MODEL 9
REMARK VINA RESULT:     -10.8      3.587      6.862
REMARK  Name = 10156987
REMARK  5 active torsions:
REMARK  status: ('A' for Active; 'I' for Inactive)
REMARK    1  A    between atoms: C_2  and  C_23
REMARK    2  A    between atoms: C_9  and  C_13
REMARK    3  A    between atoms: C_23  and  N_24
REMARK    4  A    between atoms: C_25  and  C_31
REMARK    5  A    between atoms: C_31  and  N_32
REMARK                            x       y       z     vdW  Elec       q    Type
REMARK                         _______ _______ _______ _____ _____    ______ ____
ROOT
ATOM      1  N   UNL     1      33.224 -17.059 -23.239  0.00  0.00    -0.312 N 
ATOM      2  C   UNL     1      32.946 -13.296 -24.875  0.00  0.00    -0.043 C 
ATOM      3  C   UNL     1      33.618 -13.551 -23.680  0.00  0.00    -0.005 C 
ATOM      4  C   UNL     1      32.326 -14.314 -25.589  0.00  0.00    -0.005 C 
ATOM      5  C   UNL     1      33.664 -14.873 -23.192  0.00  0.00    +0.014 C 
ATOM      6  C   UNL     1      33.033 -15.880 -23.925  0.00  0.00    +0.048 C 
ATOM      7  C   UNL     1      32.357 -15.632 -25.125  0.00  0.00    +0.014 C 
ATOM      8  C   UNL     1      34.238 -15.488 -22.045  0.00  0.00    +0.016 C 
ATOM      9  C   UNL     1      33.951 -16.832 -22.102  0.00  0.00    +0.053 C 
ATOM     10  H   UNL     1      32.886 -17.939 -23.526  0.00  0.00    +0.152 HD
ENDROOT
BRANCH   9  13
ATOM     11  O   UNL     1      36.605 -17.616 -21.392  0.00  0.00    -0.270 OA
ATOM     12  N   UNL     1      35.880 -19.360 -20.093  0.00  0.00    -0.280 N 
ATOM     13  C   UNL     1      34.249 -17.946 -21.257  0.00  0.00    +0.067 C 
ATOM     14  C   UNL     1      33.246 -18.687 -20.754  0.00  0.00    +0.007 C 
ATOM     15  C   UNL     1      35.676 -18.278 -20.929  0.00  0.00    +0.251 C 
ATOM     16  C   UNL     1      33.515 -19.826 -19.880  0.00  0.00    +0.014 C 
ATOM     17  C   UNL     1      34.840 -20.140 -19.563  0.00  0.00    +0.051 C 
ATOM     18  C   UNL     1      32.481 -20.605 -19.352  0.00  0.00    +0.001 C 
ATOM     19  C   UNL     1      35.137 -21.220 -18.728  0.00  0.00    +0.015 C 
ATOM     20  C   UNL     1      32.775 -21.685 -18.517  0.00  0.00    +0.000 C 
ATOM     21  C   UNL     1      34.099 -21.992 -18.206  0.00  0.00    +0.001 C 
ATOM     22  H   UNL     1      36.806 -19.596 -19.857  0.00  0.00    +0.155 HD
ENDBRANCH   9  13
BRANCH   2  23
ATOM     23  C   UNL     1      32.893 -11.890 -25.399  0.00  0.00    -0.050 C 
BRANCH  23  24
ATOM     24  N   UNL     1      33.253 -10.910 -24.374  0.00  0.00    +0.390 N 
ATOM     25  C   UNL     1      33.640  -8.204 -23.314  0.00  0.00    -0.026 C 
ATOM     26  C   UNL     1      34.811  -9.097 -23.737  0.00  0.00    -0.025 C 
ATOM     27  C   UNL     1      32.439  -9.074 -22.930  0.00  0.00    -0.025 C 
ATOM     28  C   UNL     1      34.389 -10.092 -24.820  0.00  0.00    -0.077 C 
ATOM     29  C   UNL     1      32.095 -10.070 -24.039  0.00  0.00    -0.077 C 
ATOM     30  H   UNL     1      33.535 -11.408 -23.530  0.00  0.00    -0.079 HD
BRANCH  25  31
ATOM     31  C   UNL     1      34.040  -7.282 -22.165  0.00  0.00    -0.086 C 
BRANCH  31  32
ATOM     32  N   UNL     1      32.886  -6.939 -21.349  0.00  0.00    +0.380 N 
ATOM     33  H   UNL     1      32.774  -7.632 -20.610  0.00  0.00    -0.089 HD
ATOM     34  H   UNL     1      32.049  -6.926 -21.933  0.00  0.00    -0.089 HD
ATOM     35  H   UNL     1      33.024  -6.017 -20.934  0.00  0.00    -0.089 HD
ENDBRANCH  31  32
ENDBRANCH  25  31
ENDBRANCH  23  24
ENDBRANCH   2  23
TORSDOF 5
ENDMDL
