MODEL 1
REMARK VINA RESULT:     -11.8      0.000      0.000
REMARK  Name = 9911830
REMARK  5 active torsions:
REMARK  status: ('A' for Active; 'I' for Inactive)
REMARK    1  A    between atoms: C_2  and  O_20
REMARK    2  A    between atoms: C_3  and  N_10
REMARK    3  A    between atoms: O_20  and  C_24
REMARK    4  A    between atoms: C_26  and  O_31
REMARK    5  A    between atoms: C_28  and  O_33
REMARK                            x       y       z     vdW  Elec       q    Type
REMARK                         _______ _______ _______ _____ _____    ______ ____
ROOT
ATOM      1 CL   UNL     1      36.587 -18.760 -20.556  0.00  0.00    -0.081 Cl
ATOM      2  C   UNL     1      34.250 -21.372 -18.679  0.00  0.00    +0.146 C 
ATOM      3  C   UNL     1      33.909 -19.275 -20.452  0.00  0.00    +0.062 C 
ATOM      4  C   UNL     1      35.360 -20.674 -19.121  0.00  0.00    +0.050 C 
ATOM      5  C   UNL     1      32.973 -21.046 -19.103  0.00  0.00    +0.039 C 
ATOM      6  C   UNL     1      35.189 -19.618 -20.015  0.00  0.00    +0.074 C 
ATOM      7  C   UNL     1      32.802 -19.990 -19.997  0.00  0.00    +0.019 C 
ENDROOT
BRANCH   3  10
ATOM      8  O   UNL     1      33.691 -12.636 -22.116  0.00  0.00    -0.357 OA
ATOM      9  O   UNL     1      34.121 -16.324 -20.043  0.00  0.00    -0.252 OA
ATOM     10  N   UNL     1      33.703 -18.222 -21.350  0.00  0.00    -0.267 N 
ATOM     11  N   UNL     1      33.522 -16.126 -22.294  0.00  0.00    -0.251 N 
ATOM     12  N   UNL     1      33.809 -13.885 -21.520  0.00  0.00    -0.062 NA
ATOM     13  C   UNL     1      33.815 -16.832 -21.117  0.00  0.00    +0.309 C 
ATOM     14  C   UNL     1      33.517 -14.724 -22.492  0.00  0.00    +0.177 C 
ATOM     15  C   UNL     1      33.211 -14.126 -23.703  0.00  0.00    +0.073 C 
ATOM     16  C   UNL     1      33.335 -12.792 -23.417  0.00  0.00    +0.156 C 
ATOM     17  C   UNL     1      33.165 -11.564 -24.203  0.00  0.00    +0.075 C 
ATOM     18  H   UNL     1      33.448 -18.484 -22.264  0.00  0.00    +0.156 HD
ATOM     19  H   UNL     1      33.291 -16.673 -23.080  0.00  0.00    +0.158 HD
ENDBRANCH   3  10
BRANCH   2  20
ATOM     20  O   UNL     1      34.418 -22.419 -17.791  0.00  0.00    -0.453 OA
BRANCH  20  24
ATOM     21  N   UNL     1      31.578 -22.800 -14.793  0.00  0.00    -0.244 NA
ATOM     22  C   UNL     1      33.894 -22.753 -15.457  0.00  0.00    +0.055 C 
ATOM     23  C   UNL     1      32.886 -22.876 -14.479  0.00  0.00    +0.087 C 
ATOM     24  C   UNL     1      33.502 -22.547 -16.787  0.00  0.00    +0.148 C 
ATOM     25  C   UNL     1      35.249 -22.838 -15.094  0.00  0.00    +0.045 C 
ATOM     26  C   UNL     1      35.611 -23.042 -13.766  0.00  0.00    +0.173 C 
ATOM     27  C   UNL     1      33.276 -23.081 -13.158  0.00  0.00    +0.059 C 
ATOM     28  C   UNL     1      34.623 -23.164 -12.797  0.00  0.00    +0.174 C 
ATOM     29  C   UNL     1      32.156 -22.469 -17.113  0.00  0.00    +0.058 C 
ATOM     30  C   UNL     1      31.242 -22.601 -16.088  0.00  0.00    +0.102 C 
BRANCH  26  31
ATOM     31  O   UNL     1      36.929 -23.121 -13.430  0.00  0.00    -0.468 OA
ATOM     32  C   UNL     1      37.622 -24.312 -13.799  0.00  0.00    +0.253 C 
ENDBRANCH  26  31
BRANCH  28  33
ATOM     33  O   UNL     1      34.954 -23.365 -11.490  0.00  0.00    -0.468 OA
ATOM     34  C   UNL     1      35.029 -24.715 -11.041  0.00  0.00    +0.253 C 
ENDBRANCH  28  33
ENDBRANCH  20  24
ENDBRANCH   2  20
TORSDOF 5
ENDMDL
MODEL 2
REMARK VINA RESULT:     -11.5      1.384      1.522
REMARK  Name = 9911830
REMARK  5 active torsions:
REMARK  status: ('A' for Active; 'I' for Inactive)
REMARK    1  A    between atoms: C_2  and  O_20
REMARK    2  A    between atoms: C_3  and  N_10
REMARK    3  A    between atoms: O_20  and  C_24
REMARK    4  A    between atoms: C_26  and  O_31
REMARK    5  A    between atoms: C_28  and  O_33
REMARK                            x       y       z     vdW  Elec       q    Type
REMARK                         _______ _______ _______ _____ _____    ______ ____
ROOT
ATOM      1 CL   UNL     1      36.604 -19.022 -19.927  0.00  0.00    -0.081 Cl
ATOM      2  C   UNL     1      33.826 -21.580 -18.684  0.00  0.00    +0.146 C 
ATOM      3  C   UNL     1      33.886 -19.201 -20.097  0.00  0.00    +0.062 C 
ATOM      4  C   UNL     1      35.043 -20.968 -18.924  0.00  0.00    +0.050 C 
ATOM      5  C   UNL     1      32.638 -21.031 -19.134  0.00  0.00    +0.039 C 
ATOM      6  C   UNL     1      35.074 -19.770 -19.637  0.00  0.00    +0.074 C 
ATOM      7  C   UNL     1      32.669 -19.833 -19.847  0.00  0.00    +0.019 C 
ENDROOT
BRANCH   3  10
ATOM      8  O   UNL     1      32.420 -15.396 -25.598  0.00  0.00    -0.357 OA
ATOM      9  O   UNL     1      32.822 -18.591 -22.820  0.00  0.00    -0.252 OA
ATOM     10  N   UNL     1      33.882 -18.002 -20.816  0.00  0.00    -0.267 N 
ATOM     11  N   UNL     1      33.569 -16.406 -22.452  0.00  0.00    -0.251 N 
ATOM     12  N   UNL     1      32.593 -16.379 -24.632  0.00  0.00    -0.062 NA
ATOM     13  C   UNL     1      33.365 -17.752 -22.109  0.00  0.00    +0.309 C 
ATOM     14  C   UNL     1      33.204 -15.747 -23.650  0.00  0.00    +0.177 C 
ATOM     15  C   UNL     1      33.455 -14.406 -23.890  0.00  0.00    +0.073 C 
ATOM     16  C   UNL     1      32.937 -14.225 -25.145  0.00  0.00    +0.156 C 
ATOM     17  C   UNL     1      32.838 -13.072 -26.048  0.00  0.00    +0.075 C 
ATOM     18  H   UNL     1      34.292 -17.230 -20.363  0.00  0.00    +0.156 HD
ATOM     19  H   UNL     1      34.022 -15.852 -21.776  0.00  0.00    +0.158 HD
ENDBRANCH   3  10
BRANCH   2  20
ATOM     20  O   UNL     1      33.794 -22.768 -17.976  0.00  0.00    -0.453 OA
BRANCH  20  24
ATOM     21  N   UNL     1      31.571 -22.822 -14.476  0.00  0.00    -0.244 NA
ATOM     22  C   UNL     1      33.719 -22.892 -15.565  0.00  0.00    +0.055 C 
ATOM     23  C   UNL     1      32.913 -22.906 -14.409  0.00  0.00    +0.087 C 
ATOM     24  C   UNL     1      33.083 -22.788 -16.811  0.00  0.00    +0.148 C 
ATOM     25  C   UNL     1      35.117 -22.981 -15.458  0.00  0.00    +0.045 C 
ATOM     26  C   UNL     1      35.722 -23.083 -14.209  0.00  0.00    +0.173 C 
ATOM     27  C   UNL     1      33.544 -23.009 -13.172  0.00  0.00    +0.059 C 
ATOM     28  C   UNL     1      34.934 -23.097 -13.065  0.00  0.00    +0.174 C 
ATOM     29  C   UNL     1      31.701 -22.702 -16.884  0.00  0.00    +0.058 C 
ATOM     30  C   UNL     1      30.997 -22.723 -15.697  0.00  0.00    +0.102 C 
BRANCH  26  31
ATOM     31  O   UNL     1      37.079 -23.168 -14.122  0.00  0.00    -0.468 OA
ATOM     32  C   UNL     1      37.641 -24.473 -13.997  0.00  0.00    +0.253 C 
ENDBRANCH  26  31
BRANCH  28  33
ATOM     33  O   UNL     1      35.505 -23.196 -11.831  0.00  0.00    -0.468 OA
ATOM     34  C   UNL     1      35.118 -24.306 -11.024  0.00  0.00    +0.253 C 
ENDBRANCH  28  33
ENDBRANCH  20  24
ENDBRANCH   2  20
TORSDOF 5
ENDMDL
MODEL 3
REMARK VINA RESULT:     -11.5      2.236      3.313
REMARK  Name = 9911830
REMARK  5 active torsions:
REMARK  status: ('A' for Active; 'I' for Inactive)
REMARK    1  A    between atoms: C_2  and  O_20
REMARK    2  A    between atoms: C_3  and  N_10
REMARK    3  A    between atoms: O_20  and  C_24
REMARK    4  A    between atoms: C_26  and  O_31
REMARK    5  A    between atoms: C_28  and  O_33
REMARK                            x       y       z     vdW  Elec       q    Type
REMARK                         _______ _______ _______ _____ _____    ______ ____
ROOT
ATOM      1 CL   UNL     1      36.689 -18.588 -20.544  0.00  0.00    -0.081 Cl
ATOM      2  C   UNL     1      34.113 -21.195 -19.002  0.00  0.00    +0.146 C 
ATOM      3  C   UNL     1      33.973 -18.788 -20.361  0.00  0.00    +0.062 C 
ATOM      4  C   UNL     1      35.284 -20.567 -19.386  0.00  0.00    +0.050 C 
ATOM      5  C   UNL     1      32.872 -20.647 -19.281  0.00  0.00    +0.039 C 
ATOM      6  C   UNL     1      35.214 -19.355 -20.072  0.00  0.00    +0.074 C 
ATOM      7  C   UNL     1      32.802 -19.434 -19.967  0.00  0.00    +0.019 C 
ENDROOT
BRANCH   3  10
ATOM      8  O   UNL     1      32.307 -14.994 -25.813  0.00  0.00    -0.357 OA
ATOM      9  O   UNL     1      32.946 -18.211 -23.105  0.00  0.00    -0.252 OA
ATOM     10  N   UNL     1      33.868 -17.574 -21.048  0.00  0.00    -0.267 N 
ATOM     11  N   UNL     1      33.446 -15.972 -22.653  0.00  0.00    -0.251 N 
ATOM     12  N   UNL     1      32.549 -15.981 -24.866  0.00  0.00    -0.062 NA
ATOM     13  C   UNL     1      33.373 -17.341 -22.352  0.00  0.00    +0.309 C 
ATOM     14  C   UNL     1      33.056 -15.319 -23.846  0.00  0.00    +0.177 C 
ATOM     15  C   UNL     1      33.172 -13.953 -24.041  0.00  0.00    +0.073 C 
ATOM     16  C   UNL     1      32.682 -13.789 -25.310  0.00  0.00    +0.156 C 
ATOM     17  C   UNL     1      32.493 -12.626 -26.185  0.00  0.00    +0.075 C 
ATOM     18  H   UNL     1      34.178 -16.778 -20.560  0.00  0.00    +0.156 HD
ATOM     19  H   UNL     1      33.814 -15.393 -21.945  0.00  0.00    +0.158 HD
ENDBRANCH   3  10
BRANCH   2  20
ATOM     20  O   UNL     1      34.180 -22.396 -18.321  0.00  0.00    -0.453 OA
BRANCH  20  24
ATOM     21  N   UNL     1      35.067 -22.234 -14.273  0.00  0.00    -0.244 NA
ATOM     22  C   UNL     1      33.460 -22.618 -16.027  0.00  0.00    +0.055 C 
ATOM     23  C   UNL     1      33.818 -22.548 -14.665  0.00  0.00    +0.087 C 
ATOM     24  C   UNL     1      34.448 -22.349 -16.983  0.00  0.00    +0.148 C 
ATOM     25  C   UNL     1      32.145 -22.949 -16.399  0.00  0.00    +0.045 C 
ATOM     26  C   UNL     1      31.184 -23.211 -15.429  0.00  0.00    +0.173 C 
ATOM     27  C   UNL     1      32.836 -22.815 -13.714  0.00  0.00    +0.059 C 
ATOM     28  C   UNL     1      31.529 -23.144 -14.085  0.00  0.00    +0.174 C 
ATOM     29  C   UNL     1      35.737 -22.025 -16.583  0.00  0.00    +0.058 C 
ATOM     30  C   UNL     1      35.992 -21.981 -15.228  0.00  0.00    +0.102 C 
BRANCH  26  31
ATOM     31  O   UNL     1      29.915 -23.531 -15.807  0.00  0.00    -0.468 OA
ATOM     32  C   UNL     1      28.924 -22.512 -15.684  0.00  0.00    +0.253 C 
ENDBRANCH  26  31
BRANCH  28  33
ATOM     33  O   UNL     1      30.603 -23.398 -13.117  0.00  0.00    -0.468 OA
ATOM     34  C   UNL     1      30.382 -24.764 -12.774  0.00  0.00    +0.253 C 
ENDBRANCH  28  33
ENDBRANCH  20  24
ENDBRANCH   2  20
TORSDOF 5
ENDMDL
MODEL 4
REMARK VINA RESULT:     -11.4      1.498      2.381
REMARK  Name = 9911830
REMARK  5 active torsions:
REMARK  status: ('A' for Active; 'I' for Inactive)
REMARK    1  A    between atoms: C_2  and  O_20
REMARK    2  A    between atoms: C_3  and  N_10
REMARK    3  A    between atoms: O_20  and  C_24
REMARK    4  A    between atoms: C_26  and  O_31
REMARK    5  A    between atoms: C_28  and  O_33
REMARK                            x       y       z     vdW  Elec       q    Type
REMARK                         _______ _______ _______ _____ _____    ______ ____
ROOT
ATOM      1 CL   UNL     1      36.442 -19.094 -20.425  0.00  0.00    -0.081 Cl
ATOM      2  C   UNL     1      33.904 -21.454 -18.476  0.00  0.00    +0.146 C 
ATOM      3  C   UNL     1      33.732 -19.402 -20.325  0.00  0.00    +0.062 C 
ATOM      4  C   UNL     1      35.066 -20.858 -18.934  0.00  0.00    +0.050 C 
ATOM      5  C   UNL     1      32.658 -21.048 -18.922  0.00  0.00    +0.039 C 
ATOM      6  C   UNL     1      34.979 -19.824 -19.865  0.00  0.00    +0.074 C 
ATOM      7  C   UNL     1      32.571 -20.015 -19.854  0.00  0.00    +0.019 C 
ENDROOT
BRANCH   3  10
ATOM      8  O   UNL     1      33.728 -12.803 -22.155  0.00  0.00    -0.357 OA
ATOM      9  O   UNL     1      33.947 -16.444 -19.969  0.00  0.00    -0.252 OA
ATOM     10  N   UNL     1      33.610 -18.369 -21.260  0.00  0.00    -0.267 N 
ATOM     11  N   UNL     1      33.531 -16.294 -22.264  0.00  0.00    -0.251 N 
ATOM     12  N   UNL     1      33.783 -14.038 -21.522  0.00  0.00    -0.062 NA
ATOM     13  C   UNL     1      33.721 -16.975 -21.051  0.00  0.00    +0.309 C 
ATOM     14  C   UNL     1      33.559 -14.898 -22.495  0.00  0.00    +0.177 C 
ATOM     15  C   UNL     1      33.357 -14.326 -23.740  0.00  0.00    +0.073 C 
ATOM     16  C   UNL     1      33.474 -12.987 -23.476  0.00  0.00    +0.156 C 
ATOM     17  C   UNL     1      33.383 -11.777 -24.302  0.00  0.00    +0.075 C 
ATOM     18  H   UNL     1      33.426 -18.650 -22.185  0.00  0.00    +0.156 HD
ATOM     19  H   UNL     1      33.356 -16.858 -23.054  0.00  0.00    +0.158 HD
ENDBRANCH   3  10
BRANCH   2  20
ATOM     20  O   UNL     1      33.988 -22.479 -17.551  0.00  0.00    -0.453 OA
BRANCH  20  24
ATOM     21  N   UNL     1      36.601 -21.913 -14.381  0.00  0.00    -0.244 NA
ATOM     22  C   UNL     1      34.513 -22.781 -15.213  0.00  0.00    +0.055 C 
ATOM     23  C   UNL     1      35.439 -22.561 -14.173  0.00  0.00    +0.087 C 
ATOM     24  C   UNL     1      34.832 -22.304 -16.492  0.00  0.00    +0.148 C 
ATOM     25  C   UNL     1      33.309 -23.462 -14.960  0.00  0.00    +0.045 C 
ATOM     26  C   UNL     1      33.018 -23.925 -13.681  0.00  0.00    +0.173 C 
ATOM     27  C   UNL     1      35.122 -23.035 -12.902  0.00  0.00    +0.059 C 
ATOM     28  C   UNL     1      33.925 -23.711 -12.651  0.00  0.00    +0.174 C 
ATOM     29  C   UNL     1      36.028 -21.636 -16.709  0.00  0.00    +0.058 C 
ATOM     30  C   UNL     1      36.871 -21.468 -15.629  0.00  0.00    +0.102 C 
BRANCH  26  31
ATOM     31  O   UNL     1      31.847 -24.583 -13.453  0.00  0.00    -0.468 OA
ATOM     32  C   UNL     1      30.685 -23.784 -13.237  0.00  0.00    +0.253 C 
ENDBRANCH  26  31
BRANCH  28  33
ATOM     33  O   UNL     1      33.661 -24.157 -11.391  0.00  0.00    -0.468 OA
ATOM     34  C   UNL     1      34.754 -24.203 -10.476  0.00  0.00    +0.253 C 
ENDBRANCH  28  33
ENDBRANCH  20  24
ENDBRANCH   2  20
TORSDOF 5
ENDMDL
MODEL 5
REMARK VINA RESULT:     -11.2      2.509     11.155
REMARK  Name = 9911830
REMARK  5 active torsions:
REMARK  status: ('A' for Active; 'I' for Inactive)
REMARK    1  A    between atoms: C_2  and  O_20
REMARK    2  A    between atoms: C_3  and  N_10
REMARK    3  A    between atoms: O_20  and  C_24
REMARK    4  A    between atoms: C_26  and  O_31
REMARK    5  A    between atoms: C_28  and  O_33
REMARK                            x       y       z     vdW  Elec       q    Type
REMARK                         _______ _______ _______ _____ _____    ______ ____
ROOT
ATOM      1 CL   UNL     1      32.338 -20.973 -19.021  0.00  0.00    -0.081 Cl
ATOM      2  C   UNL     1      35.155 -18.660 -20.611  0.00  0.00    +0.146 C 
ATOM      3  C   UNL     1      35.032 -20.665 -18.707  0.00  0.00    +0.062 C 
ATOM      4  C   UNL     1      33.934 -19.244 -20.323  0.00  0.00    +0.050 C 
ATOM      5  C   UNL     1      36.316 -19.055 -19.969  0.00  0.00    +0.039 C 
ATOM      6  C   UNL     1      33.872 -20.255 -19.364  0.00  0.00    +0.074 C 
ATOM      7  C   UNL     1      36.254 -20.066 -19.010  0.00  0.00    +0.019 C 
ENDROOT
BRANCH   3  10
ATOM      8  O   UNL     1      36.915 -23.454 -12.743  0.00  0.00    -0.357 OA
ATOM      9  O   UNL     1      36.461 -20.873 -16.093  0.00  0.00    -0.252 OA
ATOM     10  N   UNL     1      35.004 -21.677 -17.742  0.00  0.00    -0.267 N 
ATOM     11  N   UNL     1      35.383 -22.933 -15.845  0.00  0.00    -0.251 N 
ATOM     12  N   UNL     1      36.706 -22.675 -13.873  0.00  0.00    -0.062 NA
ATOM     13  C   UNL     1      35.698 -21.738 -16.510  0.00  0.00    +0.309 C 
ATOM     14  C   UNL     1      35.859 -23.384 -14.591  0.00  0.00    +0.177 C 
ATOM     15  C   UNL     1      35.483 -24.589 -14.020  0.00  0.00    +0.073 C 
ATOM     16  C   UNL     1      36.180 -24.592 -12.841  0.00  0.00    +0.156 C 
ATOM     17  C   UNL     1      36.283 -25.538 -11.723  0.00  0.00    +0.075 C 
ATOM     18  H   UNL     1      34.425 -22.446 -17.945  0.00  0.00    +0.156 HD
ATOM     19  H   UNL     1      34.752 -23.532 -16.307  0.00  0.00    +0.158 HD
ENDBRANCH   3  10
BRANCH   2  20
ATOM     20  O   UNL     1      35.218 -17.657 -21.560  0.00  0.00    -0.453 OA
BRANCH  20  24
ATOM     21  N   UNL     1      32.529 -17.900 -24.708  0.00  0.00    -0.244 NA
ATOM     22  C   UNL     1      33.739 -16.553 -23.119  0.00  0.00    +0.055 C 
ATOM     23  C   UNL     1      32.833 -16.695 -24.189  0.00  0.00    +0.087 C 
ATOM     24  C   UNL     1      34.330 -17.712 -22.596  0.00  0.00    +0.148 C 
ATOM     25  C   UNL     1      34.033 -15.279 -22.601  0.00  0.00    +0.045 C 
ATOM     26  C   UNL     1      33.433 -14.145 -23.140  0.00  0.00    +0.173 C 
ATOM     27  C   UNL     1      32.246 -15.543 -24.708  0.00  0.00    +0.059 C 
ATOM     28  C   UNL     1      32.539 -14.278 -24.194  0.00  0.00    +0.174 C 
ATOM     29  C   UNL     1      34.019 -18.954 -23.128  0.00  0.00    +0.058 C 
ATOM     30  C   UNL     1      33.120 -18.993 -24.175  0.00  0.00    +0.102 C 
BRANCH  26  31
ATOM     31  O   UNL     1      33.729 -12.918 -22.627  0.00  0.00    -0.468 OA
ATOM     32  C   UNL     1      32.788 -12.351 -21.717  0.00  0.00    +0.253 C 
ENDBRANCH  26  31
BRANCH  28  33
ATOM     33  O   UNL     1      31.940 -13.181 -24.737  0.00  0.00    -0.468 OA
ATOM     34  C   UNL     1      32.613 -12.544 -25.821  0.00  0.00    +0.253 C 
ENDBRANCH  28  33
ENDBRANCH  20  24
ENDBRANCH   2  20
TORSDOF 5
ENDMDL
MODEL 6
REMARK VINA RESULT:     -11.0      3.518     10.599
REMARK  Name = 9911830
REMARK  5 active torsions:
REMARK  status: ('A' for Active; 'I' for Inactive)
REMARK    1  A    between atoms: C_2  and  O_20
REMARK    2  A    between atoms: C_3  and  N_10
REMARK    3  A    between atoms: O_20  and  C_24
REMARK    4  A    between atoms: C_26  and  O_31
REMARK    5  A    between atoms: C_28  and  O_33
REMARK                            x       y       z     vdW  Elec       q    Type
REMARK                         _______ _______ _______ _____ _____    ______ ____
ROOT
ATOM      1 CL   UNL     1      35.945 -21.747 -17.245  0.00  0.00    -0.081 Cl
ATOM      2  C   UNL     1      34.639 -19.483 -20.241  0.00  0.00    +0.146 C 
ATOM      3  C   UNL     1      33.528 -21.231 -18.404  0.00  0.00    +0.062 C 
ATOM      4  C   UNL     1      35.460 -20.103 -19.317  0.00  0.00    +0.050 C 
ATOM      5  C   UNL     1      33.274 -19.715 -20.268  0.00  0.00    +0.039 C 
ATOM      6  C   UNL     1      34.902 -20.983 -18.391  0.00  0.00    +0.074 C 
ATOM      7  C   UNL     1      32.715 -20.596 -19.342  0.00  0.00    +0.019 C 
ENDROOT
BRANCH   3  10
ATOM      8  O   UNL     1      28.228 -23.553 -14.742  0.00  0.00    -0.357 OA
ATOM      9  O   UNL     1      30.724 -21.342 -17.383  0.00  0.00    -0.252 OA
ATOM     10  N   UNL     1      32.936 -22.106 -17.489  0.00  0.00    -0.267 N 
ATOM     11  N   UNL     1      31.426 -23.175 -16.111  0.00  0.00    -0.251 N 
ATOM     12  N   UNL     1      29.115 -22.889 -15.581  0.00  0.00    -0.062 NA
ATOM     13  C   UNL     1      31.598 -22.127 -17.029  0.00  0.00    +0.309 C 
ATOM     14  C   UNL     1      30.247 -23.543 -15.420  0.00  0.00    +0.177 C 
ATOM     15  C   UNL     1      30.184 -24.601 -14.529  0.00  0.00    +0.073 C 
ATOM     16  C   UNL     1      28.877 -24.571 -14.121  0.00  0.00    +0.156 C 
ATOM     17  C   UNL     1      28.083 -25.383 -13.190  0.00  0.00    +0.075 C 
ATOM     18  H   UNL     1      33.527 -22.799 -17.116  0.00  0.00    +0.156 HD
ATOM     19  H   UNL     1      32.223 -23.723 -15.926  0.00  0.00    +0.158 HD
ENDBRANCH   3  10
BRANCH   2  20
ATOM     20  O   UNL     1      35.192 -18.610 -21.160  0.00  0.00    -0.453 OA
BRANCH  20  24
ATOM     21  N   UNL     1      33.084 -17.999 -24.679  0.00  0.00    -0.244 NA
ATOM     22  C   UNL     1      34.042 -17.104 -22.657  0.00  0.00    +0.055 C 
ATOM     23  C   UNL     1      33.331 -16.955 -23.865  0.00  0.00    +0.087 C 
ATOM     24  C   UNL     1      34.496 -18.385 -22.313  0.00  0.00    +0.148 C 
ATOM     25  C   UNL     1      34.281 -15.992 -21.832  0.00  0.00    +0.045 C 
ATOM     26  C   UNL     1      33.819 -14.731 -22.198  0.00  0.00    +0.173 C 
ATOM     27  C   UNL     1      32.879 -15.683 -24.207  0.00  0.00    +0.059 C 
ATOM     28  C   UNL     1      33.117 -14.577 -23.387  0.00  0.00    +0.174 C 
ATOM     29  C   UNL     1      34.244 -19.463 -23.149  0.00  0.00    +0.058 C 
ATOM     30  C   UNL     1      33.540 -19.218 -24.311  0.00  0.00    +0.102 C 
BRANCH  26  31
ATOM     31  O   UNL     1      34.059 -13.664 -21.387  0.00  0.00    -0.468 OA
ATOM     32  C   UNL     1      33.452 -13.679 -20.096  0.00  0.00    +0.253 C 
ENDBRANCH  26  31
BRANCH  28  33
ATOM     33  O   UNL     1      32.656 -13.352 -23.765  0.00  0.00    -0.468 OA
ATOM     34  C   UNL     1      32.431 -13.145 -25.158  0.00  0.00    +0.253 C 
ENDBRANCH  28  33
ENDBRANCH  20  24
ENDBRANCH   2  20
TORSDOF 5
ENDMDL
MODEL 7
REMARK VINA RESULT:     -10.8      2.417     11.244
REMARK  Name = 9911830
REMARK  5 active torsions:
REMARK  status: ('A' for Active; 'I' for Inactive)
REMARK    1  A    between atoms: C_2  and  O_20
REMARK    2  A    between atoms: C_3  and  N_10
REMARK    3  A    between atoms: O_20  and  C_24
REMARK    4  A    between atoms: C_26  and  O_31
REMARK    5  A    between atoms: C_28  and  O_33
REMARK                            x       y       z     vdW  Elec       q    Type
REMARK                         _______ _______ _______ _____ _____    ______ ____
ROOT
ATOM      1 CL   UNL     1      31.951 -21.191 -18.898  0.00  0.00    -0.081 Cl
ATOM      2  C   UNL     1      34.318 -18.706 -20.906  0.00  0.00    +0.146 C 
ATOM      3  C   UNL     1      34.628 -20.667 -18.978  0.00  0.00    +0.062 C 
ATOM      4  C   UNL     1      33.201 -19.376 -20.439  0.00  0.00    +0.050 C 
ATOM      5  C   UNL     1      35.587 -18.994 -20.432  0.00  0.00    +0.039 C 
ATOM      6  C   UNL     1      33.357 -20.365 -19.468  0.00  0.00    +0.074 C 
ATOM      7  C   UNL     1      35.742 -19.982 -19.462  0.00  0.00    +0.019 C 
ENDROOT
BRANCH   3  10
ATOM      8  O   UNL     1      37.043 -22.935 -12.985  0.00  0.00    -0.357 OA
ATOM      9  O   UNL     1      36.051 -20.538 -16.355  0.00  0.00    -0.252 OA
ATOM     10  N   UNL     1      34.819 -21.655 -18.006  0.00  0.00    -0.267 N 
ATOM     11  N   UNL     1      35.455 -22.785 -16.099  0.00  0.00    -0.251 N 
ATOM     12  N   UNL     1      36.674 -22.227 -14.122  0.00  0.00    -0.062 NA
ATOM     13  C   UNL     1      35.501 -21.553 -16.771  0.00  0.00    +0.309 C 
ATOM     14  C   UNL     1      36.011 -23.111 -14.839  0.00  0.00    +0.177 C 
ATOM     15  C   UNL     1      35.907 -24.366 -14.262  0.00  0.00    +0.073 C 
ATOM     16  C   UNL     1      36.580 -24.208 -13.079  0.00  0.00    +0.156 C 
ATOM     17  C   UNL     1      36.883 -25.101 -11.954  0.00  0.00    +0.075 C 
ATOM     18  H   UNL     1      34.427 -22.534 -18.207  0.00  0.00    +0.156 HD
ATOM     19  H   UNL     1      34.976 -23.512 -16.560  0.00  0.00    +0.158 HD
ENDBRANCH   3  10
BRANCH   2  20
ATOM     20  O   UNL     1      34.164 -17.724 -21.868  0.00  0.00    -0.453 OA
BRANCH  20  24
ATOM     21  N   UNL     1      33.488 -13.873 -20.486  0.00  0.00    -0.244 NA
ATOM     22  C   UNL     1      33.539 -15.436 -22.319  0.00  0.00    +0.055 C 
ATOM     23  C   UNL     1      33.323 -14.145 -21.794  0.00  0.00    +0.087 C 
ATOM     24  C   UNL     1      33.936 -16.449 -21.436  0.00  0.00    +0.148 C 
ATOM     25  C   UNL     1      33.357 -15.684 -23.691  0.00  0.00    +0.045 C 
ATOM     26  C   UNL     1      32.961 -14.659 -24.545  0.00  0.00    +0.173 C 
ATOM     27  C   UNL     1      32.928 -13.138 -22.672  0.00  0.00    +0.059 C 
ATOM     28  C   UNL     1      32.747 -13.385 -24.034  0.00  0.00    +0.174 C 
ATOM     29  C   UNL     1      34.108 -16.172 -20.088  0.00  0.00    +0.058 C 
ATOM     30  C   UNL     1      33.873 -14.879 -19.667  0.00  0.00    +0.102 C 
BRANCH  26  31
ATOM     31  O   UNL     1      32.789 -14.916 -25.872  0.00  0.00    -0.468 OA
ATOM     32  C   UNL     1      31.478 -15.286 -26.296  0.00  0.00    +0.253 C 
ENDBRANCH  26  31
BRANCH  28  33
ATOM     33  O   UNL     1      32.359 -12.367 -24.853  0.00  0.00    -0.468 OA
ATOM     34  C   UNL     1      33.124 -11.164 -24.799  0.00  0.00    +0.253 C 
ENDBRANCH  28  33
ENDBRANCH  20  24
ENDBRANCH   2  20
TORSDOF 5
ENDMDL
MODEL 8
REMARK VINA RESULT:     -10.7      7.718     15.939
REMARK  Name = 9911830
REMARK  5 active torsions:
REMARK  status: ('A' for Active; 'I' for Inactive)
REMARK    1  A    between atoms: C_2  and  O_20
REMARK    2  A    between atoms: C_3  and  N_10
REMARK    3  A    between atoms: O_20  and  C_24
REMARK    4  A    between atoms: C_26  and  O_31
REMARK    5  A    between atoms: C_28  and  O_33
REMARK                            x       y       z     vdW  Elec       q    Type
REMARK                         _______ _______ _______ _____ _____    ______ ____
ROOT
ATOM      1 CL   UNL     1      35.234  -9.834 -25.126  0.00  0.00    -0.081 Cl
ATOM      2  C   UNL     1      33.175  -7.493 -22.658  0.00  0.00    +0.146 C 
ATOM      3  C   UNL     1      33.118 -10.150 -23.431  0.00  0.00    +0.062 C 
ATOM      4  C   UNL     1      34.099  -7.947 -23.582  0.00  0.00    +0.050 C 
ATOM      5  C   UNL     1      32.223  -8.337 -22.111  0.00  0.00    +0.039 C 
ATOM      6  C   UNL     1      34.071  -9.286 -23.972  0.00  0.00    +0.074 C 
ATOM      7  C   UNL     1      32.196  -9.675 -22.500  0.00  0.00    +0.019 C 
ENDROOT
BRANCH   3  10
ATOM      8  O   UNL     1      33.940 -16.839 -22.214  0.00  0.00    -0.357 OA
ATOM      9  O   UNL     1      33.819 -12.601 -21.875  0.00  0.00    -0.252 OA
ATOM     10  N   UNL     1      33.064 -11.498 -23.799  0.00  0.00    -0.267 N 
ATOM     11  N   UNL     1      33.202 -13.801 -23.785  0.00  0.00    -0.251 N 
ATOM     12  N   UNL     1      33.867 -15.451 -22.192  0.00  0.00    -0.062 NA
ATOM     13  C   UNL     1      33.405 -12.635 -23.030  0.00  0.00    +0.309 C 
ATOM     14  C   UNL     1      33.419 -15.143 -23.392  0.00  0.00    +0.177 C 
ATOM     15  C   UNL     1      33.185 -16.228 -24.221  0.00  0.00    +0.073 C 
ATOM     16  C   UNL     1      33.531 -17.290 -23.428  0.00  0.00    +0.156 C 
ATOM     17  C   UNL     1      33.544 -18.744 -23.625  0.00  0.00    +0.075 C 
ATOM     18  H   UNL     1      32.746 -11.680 -24.713  0.00  0.00    +0.156 HD
ATOM     19  H   UNL     1      32.865 -13.669 -24.701  0.00  0.00    +0.158 HD
ENDBRANCH   3  10
BRANCH   2  20
ATOM     20  O   UNL     1      33.201  -6.166 -22.272  0.00  0.00    -0.453 OA
BRANCH  20  24
ATOM     21  N   UNL     1      29.563  -4.266 -21.676  0.00  0.00    -0.244 NA
ATOM     22  C   UNL     1      31.290  -5.004 -23.185  0.00  0.00    +0.055 C 
ATOM     23  C   UNL     1      30.059  -4.369 -22.923  0.00  0.00    +0.087 C 
ATOM     24  C   UNL     1      32.002  -5.536 -22.100  0.00  0.00    +0.148 C 
ATOM     25  C   UNL     1      31.778  -5.094 -24.500  0.00  0.00    +0.045 C 
ATOM     26  C   UNL     1      31.051  -4.558 -25.558  0.00  0.00    +0.173 C 
ATOM     27  C   UNL     1      29.352  -3.841 -24.001  0.00  0.00    +0.059 C 
ATOM     28  C   UNL     1      29.837  -3.931 -25.308  0.00  0.00    +0.174 C 
ATOM     29  C   UNL     1      31.494  -5.431 -20.814  0.00  0.00    +0.058 C 
ATOM     30  C   UNL     1      30.280  -4.792 -20.657  0.00  0.00    +0.102 C 
BRANCH  26  31
ATOM     31  O   UNL     1      31.537  -4.653 -26.827  0.00  0.00    -0.468 OA
ATOM     32  C   UNL     1      31.269  -5.862 -27.536  0.00  0.00    +0.253 C 
ENDBRANCH  26  31
BRANCH  28  33
ATOM     33  O   UNL     1      29.108  -3.399 -26.330  0.00  0.00    -0.468 OA
ATOM     34  C   UNL     1      27.759  -3.035 -26.043  0.00  0.00    +0.253 C 
ENDBRANCH  28  33
ENDBRANCH  20  24
ENDBRANCH   2  20
TORSDOF 5
ENDMDL
MODEL 9
REMARK VINA RESULT:     -10.5      8.189     16.541
REMARK  Name = 9911830
REMARK  5 active torsions:
REMARK  status: ('A' for Active; 'I' for Inactive)
REMARK    1  A    between atoms: C_2  and  O_20
REMARK    2  A    between atoms: C_3  and  N_10
REMARK    3  A    between atoms: O_20  and  C_24
REMARK    4  A    between atoms: C_26  and  O_31
REMARK    5  A    between atoms: C_28  and  O_33
REMARK                            x       y       z     vdW  Elec       q    Type
REMARK                         _______ _______ _______ _____ _____    ______ ____
ROOT
ATOM      1 CL   UNL     1      31.206 -10.054 -21.680  0.00  0.00    -0.081 Cl
ATOM      2  C   UNL     1      33.095  -7.350 -23.899  0.00  0.00    +0.146 C 
ATOM      3  C   UNL     1      33.406 -10.033 -23.295  0.00  0.00    +0.062 C 
ATOM      4  C   UNL     1      32.191  -7.959 -23.048  0.00  0.00    +0.050 C 
ATOM      5  C   UNL     1      34.152  -8.050 -24.456  0.00  0.00    +0.039 C 
ATOM      6  C   UNL     1      32.346  -9.311 -22.744  0.00  0.00    +0.074 C 
ATOM      7  C   UNL     1      34.307  -9.402 -24.152  0.00  0.00    +0.019 C 
ENDROOT
BRANCH   3  10
ATOM      8  O   UNL     1      32.874 -16.696 -24.782  0.00  0.00    -0.357 OA
ATOM      9  O   UNL     1      32.683 -12.449 -24.895  0.00  0.00    -0.252 OA
ATOM     10  N   UNL     1      33.589 -11.390 -23.012  0.00  0.00    -0.267 N 
ATOM     11  N   UNL     1      33.599 -13.693 -23.139  0.00  0.00    -0.251 N 
ATOM     12  N   UNL     1      32.855 -15.308 -24.734  0.00  0.00    -0.062 NA
ATOM     13  C   UNL     1      33.233 -12.510 -23.799  0.00  0.00    +0.309 C 
ATOM     14  C   UNL     1      33.422 -15.027 -23.579  0.00  0.00    +0.177 C 
ATOM     15  C   UNL     1      33.822 -16.131 -22.845  0.00  0.00    +0.073 C 
ATOM     16  C   UNL     1      33.453 -17.175 -23.651  0.00  0.00    +0.156 C 
ATOM     17  C   UNL     1      33.557 -18.635 -23.535  0.00  0.00    +0.075 C 
ATOM     18  H   UNL     1      34.025 -11.593 -22.153  0.00  0.00    +0.156 HD
ATOM     19  H   UNL     1      34.033 -13.582 -22.262  0.00  0.00    +0.158 HD
ENDBRANCH   3  10
BRANCH   2  20
ATOM     20  O   UNL     1      32.943  -6.009 -24.200  0.00  0.00    -0.453 OA
BRANCH  20  24
ATOM     21  N   UNL     1      30.510  -5.071 -27.425  0.00  0.00    -0.244 NA
ATOM     22  C   UNL     1      31.021  -4.841 -25.082  0.00  0.00    +0.055 C 
ATOM     23  C   UNL     1      30.230  -4.556 -26.213  0.00  0.00    +0.087 C 
ATOM     24  C   UNL     1      32.128  -5.686 -25.247  0.00  0.00    +0.148 C 
ATOM     25  C   UNL     1      30.698  -4.286 -23.831  0.00  0.00    +0.045 C 
ATOM     26  C   UNL     1      29.594  -3.450 -23.696  0.00  0.00    +0.173 C 
ATOM     27  C   UNL     1      29.130  -3.717 -26.049  0.00  0.00    +0.059 C 
ATOM     28  C   UNL     1      28.810  -3.166 -24.806  0.00  0.00    +0.174 C 
ATOM     29  C   UNL     1      32.420  -6.218 -26.494  0.00  0.00    +0.058 C 
ATOM     30  C   UNL     1      31.587  -5.882 -27.542  0.00  0.00    +0.102 C 
BRANCH  26  31
ATOM     31  O   UNL     1      29.296  -2.921 -22.477  0.00  0.00    -0.468 OA
ATOM     32  C   UNL     1      29.694  -3.668 -21.329  0.00  0.00    +0.253 C 
ENDBRANCH  26  31
BRANCH  28  33
ATOM     33  O   UNL     1      27.724  -2.349 -24.696  0.00  0.00    -0.468 OA
ATOM     34  C   UNL     1      26.809  -2.337 -25.790  0.00  0.00    +0.253 C 
ENDBRANCH  28  33
ENDBRANCH  20  24
ENDBRANCH   2  20
TORSDOF 5
ENDMDL
