MODEL 1
REMARK VINA RESULT:      -8.6      0.000      0.000
REMARK  Name = 5327153
REMARK  6 active torsions:
REMARK  status: ('A' for Active; 'I' for Inactive)
REMARK    1  A    between atoms: C_3  and  C_15
REMARK    2  A    between atoms: C_10  and  O_24
REMARK    3  A    between atoms: C_11  and  N_18
REMARK    4  A    between atoms: N_18  and  S_20
REMARK    5  A    between atoms: O_24  and  C_25
REMARK    6  A    between atoms: C_25  and  C_26
REMARK                            x       y       z     vdW  Elec       q    Type
REMARK                         _______ _______ _______ _____ _____    ______ ____
ROOT
ATOM      1  O   UNL     1      31.148  -9.459 -19.449  0.00  0.00    -0.226 OA
ATOM      2  N   UNL     1      31.618  -8.416 -21.480  0.00  0.00    -0.235 N 
ATOM      3  C   UNL     1      31.721  -7.081 -20.890  0.00  0.00    +0.159 C 
ATOM      4  C   UNL     1      32.906  -6.290 -21.435  0.00  0.00    +0.055 C 
ATOM      5  C   UNL     1      31.712  -8.540 -22.942  0.00  0.00    +0.124 C 
ATOM      6  C   UNL     1      33.028  -6.367 -22.934  0.00  0.00    -0.022 C 
ATOM      7  C   UNL     1      32.476  -7.446 -23.640  0.00  0.00    -0.005 C 
ATOM      8  C   UNL     1      32.627  -7.504 -25.033  0.00  0.00    +0.013 C 
ATOM      9  C   UNL     1      33.745  -5.379 -23.625  0.00  0.00    -0.003 C 
ATOM     10  C   UNL     1      31.243  -9.503 -20.673  0.00  0.00    +0.406 C 
ATOM     11  C   UNL     1      33.330  -6.511 -25.714  0.00  0.00    +0.065 C 
ATOM     12  C   UNL     1      33.891  -5.450 -25.009  0.00  0.00    +0.016 C 
ENDROOT
BRANCH   3  15
ATOM     13  O   UNL     1      29.565  -6.855 -21.899  0.00  0.00    -0.273 OA
ATOM     14  N   UNL     1      30.292  -5.216 -20.413  0.00  0.00    -0.301 N 
ATOM     15  C   UNL     1      30.405  -6.395 -21.130  0.00  0.00    +0.241 C 
ATOM     16  C   UNL     1      29.132  -4.357 -20.487  0.00  0.00    +0.111 C 
ATOM     17  H   UNL     1      31.036  -4.951 -19.826  0.00  0.00    +0.150 HD
ENDBRANCH   3  15
BRANCH  11  18
ATOM     18  N   UNL     1      33.476  -6.585 -27.132  0.00  0.00    -0.213 N 
ATOM     19  H   UNL     1      34.232  -7.059 -27.550  0.00  0.00    +0.174 HD
BRANCH  18  20
ATOM     20  S   UNL     1      32.258  -5.802 -28.082  0.00  0.00    +0.091 S 
ATOM     21  O   UNL     1      32.430  -6.441 -29.573  0.00  0.00    -0.050 OA
ATOM     22  O   UNL     1      30.952  -6.193 -27.581  0.00  0.00    -0.050 OA
ATOM     23  O   UNL     1      32.604  -4.395 -28.177  0.00  0.00    -0.050 OA
ENDBRANCH  18  20
ENDBRANCH  11  18
BRANCH  10  24
ATOM     24  O   UNL     1      30.984 -10.633 -21.404  0.00  0.00    -0.430 OA
BRANCH  24  25
ATOM     25  C   UNL     1      30.867 -11.851 -20.661  0.00  0.00    +0.237 C 
BRANCH  25  26
ATOM     26  C   UNL     1      31.911 -12.818 -21.138  0.00  0.00    +0.021 C 
ATOM     27  C   UNL     1      32.486 -13.709 -20.239  0.00  0.00    -0.001 C 
ATOM     28  C   UNL     1      32.294 -12.814 -22.475  0.00  0.00    -0.001 C 
ATOM     29  C   UNL     1      33.456 -14.608 -20.682  0.00  0.00    -0.000 C 
ATOM     30  C   UNL     1      33.264 -13.713 -22.918  0.00  0.00    -0.000 C 
ATOM     31  C   UNL     1      33.846 -14.610 -22.022  0.00  0.00    -0.000 C 
ENDBRANCH  25  26
ENDBRANCH  24  25
ENDBRANCH  10  24
TORSDOF 6
ENDMDL
MODEL 2
REMARK VINA RESULT:      -8.6      3.113      5.088
REMARK  Name = 5327153
REMARK  6 active torsions:
REMARK  status: ('A' for Active; 'I' for Inactive)
REMARK    1  A    between atoms: C_3  and  C_15
REMARK    2  A    between atoms: C_10  and  O_24
REMARK    3  A    between atoms: C_11  and  N_18
REMARK    4  A    between atoms: N_18  and  S_20
REMARK    5  A    between atoms: O_24  and  C_25
REMARK    6  A    between atoms: C_25  and  C_26
REMARK                            x       y       z     vdW  Elec       q    Type
REMARK                         _______ _______ _______ _____ _____    ______ ____
ROOT
ATOM      1  O   UNL     1      31.716  -5.104 -20.163  0.00  0.00    -0.226 OA
ATOM      2  N   UNL     1      32.094  -6.835 -21.678  0.00  0.00    -0.235 N 
ATOM      3  C   UNL     1      33.059  -6.072 -22.469  0.00  0.00    +0.159 C 
ATOM      4  C   UNL     1      34.279  -6.900 -22.863  0.00  0.00    +0.055 C 
ATOM      5  C   UNL     1      31.699  -8.168 -22.158  0.00  0.00    +0.124 C 
ATOM      6  C   UNL     1      33.923  -8.267 -23.384  0.00  0.00    -0.022 C 
ATOM      7  C   UNL     1      32.706  -8.869 -23.031  0.00  0.00    -0.005 C 
ATOM      8  C   UNL     1      32.412 -10.153 -23.512  0.00  0.00    +0.013 C 
ATOM      9  C   UNL     1      34.836  -8.964 -24.188  0.00  0.00    -0.003 C 
ATOM     10  C   UNL     1      31.432  -6.214 -20.607  0.00  0.00    +0.406 C 
ATOM     11  C   UNL     1      33.320 -10.835 -24.321  0.00  0.00    +0.065 C 
ATOM     12  C   UNL     1      34.533 -10.241 -24.657  0.00  0.00    +0.016 C 
ENDROOT
BRANCH   3  15
ATOM     13  O   UNL     1      32.676  -5.768 -24.809  0.00  0.00    -0.273 OA
ATOM     14  N   UNL     1      31.237  -4.748 -23.289  0.00  0.00    -0.301 N 
ATOM     15  C   UNL     1      32.318  -5.531 -23.659  0.00  0.00    +0.241 C 
ATOM     16  C   UNL     1      30.374  -4.092 -24.245  0.00  0.00    +0.111 C 
ATOM     17  H   UNL     1      31.048  -4.632 -22.330  0.00  0.00    +0.150 HD
ENDBRANCH   3  15
BRANCH  11  18
ATOM     18  N   UNL     1      33.006 -12.143 -24.801  0.00  0.00    -0.213 N 
ATOM     19  H   UNL     1      32.857 -12.320 -25.759  0.00  0.00    +0.174 HD
BRANCH  18  20
ATOM     20  S   UNL     1      32.900 -13.402 -23.616  0.00  0.00    +0.091 S 
ATOM     21  O   UNL     1      33.007 -14.782 -24.478  0.00  0.00    -0.050 OA
ATOM     22  O   UNL     1      34.063 -13.329 -22.751  0.00  0.00    -0.050 OA
ATOM     23  O   UNL     1      31.567 -13.359 -23.041  0.00  0.00    -0.050 OA
ENDBRANCH  18  20
ENDBRANCH  11  18
BRANCH  10  24
ATOM     24  O   UNL     1      30.414  -6.983 -20.104  0.00  0.00    -0.430 OA
BRANCH  24  25
ATOM     25  C   UNL     1      30.714  -7.730 -18.920  0.00  0.00    +0.237 C 
BRANCH  25  26
ATOM     26  C   UNL     1      30.689  -9.194 -19.245  0.00  0.00    +0.021 C 
ATOM     27  C   UNL     1      29.945  -9.646 -20.330  0.00  0.00    -0.001 C 
ATOM     28  C   UNL     1      31.409 -10.087 -18.459  0.00  0.00    -0.001 C 
ATOM     29  C   UNL     1      29.922 -11.007 -20.633  0.00  0.00    -0.000 C 
ATOM     30  C   UNL     1      31.386 -11.448 -18.762  0.00  0.00    -0.000 C 
ATOM     31  C   UNL     1      30.642 -11.909 -19.849  0.00  0.00    -0.000 C 
ENDBRANCH  25  26
ENDBRANCH  24  25
ENDBRANCH  10  24
TORSDOF 6
ENDMDL
MODEL 3
REMARK VINA RESULT:      -8.2      2.935      5.633
REMARK  Name = 5327153
REMARK  6 active torsions:
REMARK  status: ('A' for Active; 'I' for Inactive)
REMARK    1  A    between atoms: C_3  and  C_15
REMARK    2  A    between atoms: C_10  and  O_24
REMARK    3  A    between atoms: C_11  and  N_18
REMARK    4  A    between atoms: N_18  and  S_20
REMARK    5  A    between atoms: O_24  and  C_25
REMARK    6  A    between atoms: C_25  and  C_26
REMARK                            x       y       z     vdW  Elec       q    Type
REMARK                         _______ _______ _______ _____ _____    ______ ____
ROOT
ATOM      1  O   UNL     1      32.680 -10.593 -25.347  0.00  0.00    -0.226 OA
ATOM      2  N   UNL     1      32.300  -8.763 -23.953  0.00  0.00    -0.235 N 
ATOM      3  C   UNL     1      32.013  -7.849 -25.058  0.00  0.00    +0.159 C 
ATOM      4  C   UNL     1      30.811  -6.951 -24.778  0.00  0.00    +0.055 C 
ATOM      5  C   UNL     1      32.354  -8.214 -22.590  0.00  0.00    +0.124 C 
ATOM      6  C   UNL     1      30.835  -6.344 -23.400  0.00  0.00    -0.022 C 
ATOM      7  C   UNL     1      31.554  -6.958 -22.364  0.00  0.00    -0.005 C 
ATOM      8  C   UNL     1      31.538  -6.383 -21.085  0.00  0.00    +0.013 C 
ATOM      9  C   UNL     1      30.093  -5.184 -23.138  0.00  0.00    -0.003 C 
ATOM     10  C   UNL     1      32.703 -10.079 -24.230  0.00  0.00    +0.406 C 
ATOM     11  C   UNL     1      30.807  -5.222 -20.835  0.00  0.00    +0.065 C 
ATOM     12  C   UNL     1      30.082  -4.624 -21.862  0.00  0.00    +0.016 C 
ENDROOT
BRANCH   3  15
ATOM     13  O   UNL     1      34.350  -7.402 -24.836  0.00  0.00    -0.273 OA
ATOM     14  N   UNL     1      33.045  -5.964 -26.120  0.00  0.00    -0.301 N 
ATOM     15  C   UNL     1      33.271  -7.069 -25.317  0.00  0.00    +0.241 C 
ATOM     16  C   UNL     1      34.088  -5.037 -26.499  0.00  0.00    +0.111 C 
ATOM     17  H   UNL     1      32.131  -5.801 -26.448  0.00  0.00    +0.150 HD
ENDBRANCH   3  15
BRANCH  11  18
ATOM     18  N   UNL     1      30.800  -4.651 -19.527  0.00  0.00    -0.213 N 
ATOM     19  H   UNL     1      30.518  -3.720 -19.371  0.00  0.00    +0.174 HD
BRANCH  18  20
ATOM     20  S   UNL     1      31.310  -5.677 -18.227  0.00  0.00    +0.091 S 
ATOM     21  O   UNL     1      31.600  -4.654 -16.991  0.00  0.00    -0.050 OA
ATOM     22  O   UNL     1      30.202  -6.532 -17.843  0.00  0.00    -0.050 OA
ATOM     23  O   UNL     1      32.583  -6.267 -18.601  0.00  0.00    -0.050 OA
ENDBRANCH  18  20
ENDBRANCH  11  18
BRANCH  10  24
ATOM     24  O   UNL     1      33.137 -10.741 -23.111  0.00  0.00    -0.430 OA
BRANCH  24  25
ATOM     25  C   UNL     1      33.203 -12.168 -23.209  0.00  0.00    +0.237 C 
BRANCH  25  26
ATOM     26  C   UNL     1      32.752 -12.769 -21.909  0.00  0.00    +0.021 C 
ATOM     27  C   UNL     1      33.508 -13.774 -21.317  0.00  0.00    -0.001 C 
ATOM     28  C   UNL     1      31.583 -12.314 -21.309  0.00  0.00    -0.001 C 
ATOM     29  C   UNL     1      33.089 -14.332 -20.109  0.00  0.00    -0.000 C 
ATOM     30  C   UNL     1      31.165 -12.872 -20.101  0.00  0.00    -0.000 C 
ATOM     31  C   UNL     1      31.918 -13.881 -19.501  0.00  0.00    -0.000 C 
ENDBRANCH  25  26
ENDBRANCH  24  25
ENDBRANCH  10  24
TORSDOF 6
ENDMDL
MODEL 4
REMARK VINA RESULT:      -8.1     12.888     17.392
REMARK  Name = 5327153
REMARK  6 active torsions:
REMARK  status: ('A' for Active; 'I' for Inactive)
REMARK    1  A    between atoms: C_3  and  C_15
REMARK    2  A    between atoms: C_10  and  O_24
REMARK    3  A    between atoms: C_11  and  N_18
REMARK    4  A    between atoms: N_18  and  S_20
REMARK    5  A    between atoms: O_24  and  C_25
REMARK    6  A    between atoms: C_25  and  C_26
REMARK                            x       y       z     vdW  Elec       q    Type
REMARK                         _______ _______ _______ _____ _____    ______ ____
ROOT
ATOM      1  O   UNL     1      32.291 -22.268 -19.185  0.00  0.00    -0.226 OA
ATOM      2  N   UNL     1      32.993 -22.417 -16.967  0.00  0.00    -0.235 N 
ATOM      3  C   UNL     1      31.990 -23.420 -16.608  0.00  0.00    +0.159 C 
ATOM      4  C   UNL     1      32.564 -24.537 -15.742  0.00  0.00    +0.055 C 
ATOM      5  C   UNL     1      33.850 -21.876 -15.901  0.00  0.00    +0.124 C 
ATOM      6  C   UNL     1      33.430 -24.030 -14.620  0.00  0.00    -0.022 C 
ATOM      7  C   UNL     1      34.051 -22.776 -14.710  0.00  0.00    -0.005 C 
ATOM      8  C   UNL     1      34.872 -22.340 -13.660  0.00  0.00    +0.013 C 
ATOM      9  C   UNL     1      33.659 -24.839 -13.497  0.00  0.00    -0.003 C 
ATOM     10  C   UNL     1      32.985 -21.860 -18.256  0.00  0.00    +0.406 C 
ATOM     11  C   UNL     1      35.085 -23.145 -12.542  0.00  0.00    +0.065 C 
ATOM     12  C   UNL     1      34.480 -24.396 -12.462  0.00  0.00    +0.016 C 
ENDROOT
BRANCH   3  15
ATOM     13  O   UNL     1      30.248 -21.787 -16.502  0.00  0.00    -0.273 OA
ATOM     14  N   UNL     1      30.640 -23.138 -14.647  0.00  0.00    -0.301 N 
ATOM     15  C   UNL     1      30.862 -22.688 -15.938  0.00  0.00    +0.241 C 
ATOM     16  C   UNL     1      29.626 -22.582 -13.780  0.00  0.00    +0.111 C 
ATOM     17  H   UNL     1      31.200 -23.871 -14.303  0.00  0.00    +0.150 HD
ENDBRANCH   3  15
BRANCH  11  18
ATOM     18  N   UNL     1      35.926 -22.687 -11.482  0.00  0.00    -0.213 N 
ATOM     19  H   UNL     1      35.707 -21.881 -10.961  0.00  0.00    +0.174 HD
BRANCH  18  20
ATOM     20  S   UNL     1      37.348 -23.622 -11.159  0.00  0.00    +0.091 S 
ATOM     21  O   UNL     1      37.838 -24.138 -12.627  0.00  0.00    -0.050 OA
ATOM     22  O   UNL     1      38.377 -22.741 -10.634  0.00  0.00    -0.050 OA
ATOM     23  O   UNL     1      36.947 -24.795 -10.405  0.00  0.00    -0.050 OA
ENDBRANCH  18  20
ENDBRANCH  11  18
BRANCH  10  24
ATOM     24  O   UNL     1      33.838 -20.793 -18.371  0.00  0.00    -0.430 OA
BRANCH  24  25
ATOM     25  C   UNL     1      34.931 -20.956 -19.282  0.00  0.00    +0.237 C 
BRANCH  25  26
ATOM     26  C   UNL     1      34.924 -19.820 -20.262  0.00  0.00    +0.021 C 
ATOM     27  C   UNL     1      36.056 -19.025 -20.403  0.00  0.00    -0.001 C 
ATOM     28  C   UNL     1      33.786 -19.571 -21.021  0.00  0.00    -0.001 C 
ATOM     29  C   UNL     1      36.051 -17.970 -21.314  0.00  0.00    -0.000 C 
ATOM     30  C   UNL     1      33.780 -18.515 -21.932  0.00  0.00    -0.000 C 
ATOM     31  C   UNL     1      34.912 -17.714 -22.079  0.00  0.00    -0.000 C 
ENDBRANCH  25  26
ENDBRANCH  24  25
ENDBRANCH  10  24
TORSDOF 6
ENDMDL
MODEL 5
REMARK VINA RESULT:      -8.0      3.105      5.581
REMARK  Name = 5327153
REMARK  6 active torsions:
REMARK  status: ('A' for Active; 'I' for Inactive)
REMARK    1  A    between atoms: C_3  and  C_15
REMARK    2  A    between atoms: C_10  and  O_24
REMARK    3  A    between atoms: C_11  and  N_18
REMARK    4  A    between atoms: N_18  and  S_20
REMARK    5  A    between atoms: O_24  and  C_25
REMARK    6  A    between atoms: C_25  and  C_26
REMARK                            x       y       z     vdW  Elec       q    Type
REMARK                         _______ _______ _______ _____ _____    ______ ____
ROOT
ATOM      1  O   UNL     1      33.134 -11.268 -25.125  0.00  0.00    -0.226 OA
ATOM      2  N   UNL     1      32.483  -9.503 -23.749  0.00  0.00    -0.235 N 
ATOM      3  C   UNL     1      32.433  -8.532 -24.843  0.00  0.00    +0.159 C 
ATOM      4  C   UNL     1      31.203  -7.632 -24.771  0.00  0.00    +0.055 C 
ATOM      5  C   UNL     1      32.257  -9.020 -22.378  0.00  0.00    +0.124 C 
ATOM      6  C   UNL     1      30.945  -7.092 -23.389  0.00  0.00    -0.022 C 
ATOM      7  C   UNL     1      31.432  -7.766 -22.259  0.00  0.00    -0.005 C 
ATOM      8  C   UNL     1      31.156  -7.253 -20.983  0.00  0.00    +0.013 C 
ATOM      9  C   UNL     1      30.169  -5.936 -23.227  0.00  0.00    -0.003 C 
ATOM     10  C   UNL     1      32.928 -10.810 -24.003  0.00  0.00    +0.406 C 
ATOM     11  C   UNL     1      30.394  -6.096 -20.831  0.00  0.00    +0.065 C 
ATOM     12  C   UNL     1      29.899  -5.438 -21.953  0.00  0.00    +0.016 C 
ENDROOT
BRANCH   3  15
ATOM     13  O   UNL     1      34.776  -8.278 -24.446  0.00  0.00    -0.273 OA
ATOM     14  N   UNL     1      33.550  -6.437 -25.172  0.00  0.00    -0.301 N 
ATOM     15  C   UNL     1      33.721  -7.759 -24.798  0.00  0.00    +0.241 C 
ATOM     16  C   UNL     1      34.630  -5.476 -25.192  0.00  0.00    +0.111 C 
ATOM     17  H   UNL     1      32.650  -6.136 -25.436  0.00  0.00    +0.150 HD
ENDBRANCH   3  15
BRANCH  11  18
ATOM     18  N   UNL     1      30.119  -5.588 -19.525  0.00  0.00    -0.213 N 
ATOM     19  H   UNL     1      29.401  -4.934 -19.365  0.00  0.00    +0.174 HD
BRANCH  18  20
ATOM     20  S   UNL     1      31.113  -6.181 -18.236  0.00  0.00    +0.091 S 
ATOM     21  O   UNL     1      30.681  -7.745 -18.074  0.00  0.00    -0.050 OA
ATOM     22  O   UNL     1      32.501  -6.148 -18.662  0.00  0.00    -0.050 OA
ATOM     23  O   UNL     1      30.715  -5.499 -17.018  0.00  0.00    -0.050 OA
ENDBRANCH  18  20
ENDBRANCH  11  18
BRANCH  10  24
ATOM     24  O   UNL     1      33.121 -11.531 -22.853  0.00  0.00    -0.430 OA
BRANCH  24  25
ATOM     25  C   UNL     1      32.168 -12.568 -22.593  0.00  0.00    +0.237 C 
BRANCH  25  26
ATOM     26  C   UNL     1      32.832 -13.900 -22.781  0.00  0.00    +0.021 C 
ATOM     27  C   UNL     1      33.550 -14.465 -21.733  0.00  0.00    -0.001 C 
ATOM     28  C   UNL     1      32.723 -14.558 -24.001  0.00  0.00    -0.001 C 
ATOM     29  C   UNL     1      34.166 -15.704 -21.907  0.00  0.00    -0.000 C 
ATOM     30  C   UNL     1      33.340 -15.797 -24.175  0.00  0.00    -0.000 C 
ATOM     31  C   UNL     1      34.062 -16.370 -23.129  0.00  0.00    -0.000 C 
ENDBRANCH  25  26
ENDBRANCH  24  25
ENDBRANCH  10  24
TORSDOF 6
ENDMDL
MODEL 6
REMARK VINA RESULT:      -8.0      3.335      7.569
REMARK  Name = 5327153
REMARK  6 active torsions:
REMARK  status: ('A' for Active; 'I' for Inactive)
REMARK    1  A    between atoms: C_3  and  C_15
REMARK    2  A    between atoms: C_10  and  O_24
REMARK    3  A    between atoms: C_11  and  N_18
REMARK    4  A    between atoms: N_18  and  S_20
REMARK    5  A    between atoms: O_24  and  C_25
REMARK    6  A    between atoms: C_25  and  C_26
REMARK                            x       y       z     vdW  Elec       q    Type
REMARK                         _______ _______ _______ _____ _____    ______ ____
ROOT
ATOM      1  O   UNL     1      29.858  -7.030 -22.664  0.00  0.00    -0.226 OA
ATOM      2  N   UNL     1      30.962  -8.968 -21.984  0.00  0.00    -0.235 N 
ATOM      3  C   UNL     1      30.306  -9.007 -20.677  0.00  0.00    +0.159 C 
ATOM      4  C   UNL     1      29.856 -10.412 -20.290  0.00  0.00    +0.055 C 
ATOM      5  C   UNL     1      32.011  -9.959 -22.268  0.00  0.00    +0.124 C 
ATOM      6  C   UNL     1      30.909 -11.460 -20.539  0.00  0.00    -0.022 C 
ATOM      7  C   UNL     1      31.916 -11.245 -21.491  0.00  0.00    -0.005 C 
ATOM      8  C   UNL     1      32.869 -12.249 -21.720  0.00  0.00    +0.013 C 
ATOM      9  C   UNL     1      30.852 -12.681 -19.851  0.00  0.00    -0.003 C 
ATOM     10  C   UNL     1      30.719  -7.888 -22.849  0.00  0.00    +0.406 C 
ATOM     11  C   UNL     1      32.813 -13.455 -21.023  0.00  0.00    +0.065 C 
ATOM     12  C   UNL     1      31.803 -13.671 -20.090  0.00  0.00    +0.016 C 
ENDROOT
BRANCH   3  15
ATOM     13  O   UNL     1      31.770  -9.083 -18.788  0.00  0.00    -0.273 OA
ATOM     14  N   UNL     1      31.486  -7.065 -19.914  0.00  0.00    -0.301 N 
ATOM     15  C   UNL     1      31.270  -8.414 -19.689  0.00  0.00    +0.241 C 
ATOM     16  C   UNL     1      32.353  -6.255 -19.088  0.00  0.00    +0.111 C 
ATOM     17  H   UNL     1      31.026  -6.636 -20.672  0.00  0.00    +0.150 HD
ENDBRANCH   3  15
BRANCH  11  18
ATOM     18  N   UNL     1      33.789 -14.468 -21.269  0.00  0.00    -0.213 N 
ATOM     19  H   UNL     1      34.475 -14.698 -20.600  0.00  0.00    +0.174 HD
BRANCH  18  20
ATOM     20  S   UNL     1      33.707 -15.271 -22.801  0.00  0.00    +0.091 S 
ATOM     21  O   UNL     1      33.756 -16.859 -22.432  0.00  0.00    -0.050 OA
ATOM     22  O   UNL     1      32.415 -14.997 -23.405  0.00  0.00    -0.050 OA
ATOM     23  O   UNL     1      34.925 -14.963 -23.530  0.00  0.00    -0.050 OA
ENDBRANCH  18  20
ENDBRANCH  11  18
BRANCH  10  24
ATOM     24  O   UNL     1      31.560  -7.884 -23.932  0.00  0.00    -0.430 OA
BRANCH  24  25
ATOM     25  C   UNL     1      31.178  -7.038 -25.022  0.00  0.00    +0.237 C 
BRANCH  25  26
ATOM     26  C   UNL     1      32.360  -6.212 -25.437  0.00  0.00    +0.021 C 
ATOM     27  C   UNL     1      32.522  -5.865 -26.774  0.00  0.00    -0.001 C 
ATOM     28  C   UNL     1      33.284  -5.802 -24.482  0.00  0.00    -0.001 C 
ATOM     29  C   UNL     1      33.620  -5.097 -27.160  0.00  0.00    -0.000 C 
ATOM     30  C   UNL     1      34.382  -5.034 -24.868  0.00  0.00    -0.000 C 
ATOM     31  C   UNL     1      34.551  -4.682 -26.207  0.00  0.00    -0.000 C 
ENDBRANCH  25  26
ENDBRANCH  24  25
ENDBRANCH  10  24
TORSDOF 6
ENDMDL
MODEL 7
REMARK VINA RESULT:      -8.0      3.771      8.220
REMARK  Name = 5327153
REMARK  6 active torsions:
REMARK  status: ('A' for Active; 'I' for Inactive)
REMARK    1  A    between atoms: C_3  and  C_15
REMARK    2  A    between atoms: C_10  and  O_24
REMARK    3  A    between atoms: C_11  and  N_18
REMARK    4  A    between atoms: N_18  and  S_20
REMARK    5  A    between atoms: O_24  and  C_25
REMARK    6  A    between atoms: C_25  and  C_26
REMARK                            x       y       z     vdW  Elec       q    Type
REMARK                         _______ _______ _______ _____ _____    ______ ____
ROOT
ATOM      1  O   UNL     1      33.823  -5.860 -27.468  0.00  0.00    -0.226 OA
ATOM      2  N   UNL     1      33.122  -6.126 -25.260  0.00  0.00    -0.235 N 
ATOM      3  C   UNL     1      31.933  -6.897 -25.621  0.00  0.00    +0.159 C 
ATOM      4  C   UNL     1      31.714  -8.099 -24.707  0.00  0.00    +0.055 C 
ATOM      5  C   UNL     1      33.315  -5.762 -23.848  0.00  0.00    +0.124 C 
ATOM      6  C   UNL     1      31.877  -7.769 -23.247  0.00  0.00    -0.022 C 
ATOM      7  C   UNL     1      32.651  -6.670 -22.847  0.00  0.00    -0.005 C 
ATOM      8  C   UNL     1      32.805  -6.401 -21.479  0.00  0.00    +0.013 C 
ATOM      9  C   UNL     1      31.290  -8.595 -22.278  0.00  0.00    -0.003 C 
ATOM     10  C   UNL     1      33.936  -5.593 -26.273  0.00  0.00    +0.406 C 
ATOM     11  C   UNL     1      32.209  -7.221 -20.521  0.00  0.00    +0.065 C 
ATOM     12  C   UNL     1      31.453  -8.319 -20.921  0.00  0.00    +0.016 C 
ENDROOT
BRANCH   3  15
ATOM     13  O   UNL     1      29.805  -6.106 -24.872  0.00  0.00    -0.273 OA
ATOM     14  N   UNL     1      30.936  -4.910 -26.519  0.00  0.00    -0.301 N 
ATOM     15  C   UNL     1      30.773  -5.941 -25.608  0.00  0.00    +0.241 C 
ATOM     16  C   UNL     1      29.952  -3.871 -26.718  0.00  0.00    +0.111 C 
ATOM     17  H   UNL     1      31.760  -4.884 -27.056  0.00  0.00    +0.150 HD
ENDBRANCH   3  15
BRANCH  11  18
ATOM     18  N   UNL     1      32.376  -6.934 -19.133  0.00  0.00    -0.213 N 
ATOM     19  H   UNL     1      33.140  -7.287 -18.621  0.00  0.00    +0.174 HD
BRANCH  18  20
ATOM     20  S   UNL     1      31.169  -5.935 -18.394  0.00  0.00    +0.091 S 
ATOM     21  O   UNL     1      30.376  -5.259 -19.649  0.00  0.00    -0.050 OA
ATOM     22  O   UNL     1      30.229  -6.785 -17.684  0.00  0.00    -0.050 OA
ATOM     23  O   UNL     1      31.849  -4.864 -17.689  0.00  0.00    -0.050 OA
ENDBRANCH  18  20
ENDBRANCH  11  18
BRANCH  10  24
ATOM     24  O   UNL     1      34.880  -4.726 -25.786  0.00  0.00    -0.430 OA
BRANCH  24  25
ATOM     25  C   UNL     1      35.447  -3.815 -26.733  0.00  0.00    +0.237 C 
BRANCH  25  26
ATOM     26  C   UNL     1      36.909  -4.117 -26.886  0.00  0.00    +0.021 C 
ATOM     27  C   UNL     1      37.832  -3.491 -26.055  0.00  0.00    -0.001 C 
ATOM     28  C   UNL     1      37.329  -5.019 -27.858  0.00  0.00    -0.001 C 
ATOM     29  C   UNL     1      39.190  -3.772 -26.197  0.00  0.00    -0.000 C 
ATOM     30  C   UNL     1      38.688  -5.300 -27.999  0.00  0.00    -0.000 C 
ATOM     31  C   UNL     1      39.619  -4.676 -27.169  0.00  0.00    -0.000 C 
ENDBRANCH  25  26
ENDBRANCH  24  25
ENDBRANCH  10  24
TORSDOF 6
ENDMDL
MODEL 8
REMARK VINA RESULT:      -7.7     13.246     17.969
REMARK  Name = 5327153
REMARK  6 active torsions:
REMARK  status: ('A' for Active; 'I' for Inactive)
REMARK    1  A    between atoms: C_3  and  C_15
REMARK    2  A    between atoms: C_10  and  O_24
REMARK    3  A    between atoms: C_11  and  N_18
REMARK    4  A    between atoms: N_18  and  S_20
REMARK    5  A    between atoms: O_24  and  C_25
REMARK    6  A    between atoms: C_25  and  C_26
REMARK                            x       y       z     vdW  Elec       q    Type
REMARK                         _______ _______ _______ _____ _____    ______ ____
ROOT
ATOM      1  O   UNL     1      31.901 -22.156 -17.858  0.00  0.00    -0.226 OA
ATOM      2  N   UNL     1      33.435 -22.835 -16.240  0.00  0.00    -0.235 N 
ATOM      3  C   UNL     1      32.476 -23.690 -15.540  0.00  0.00    +0.159 C 
ATOM      4  C   UNL     1      33.077 -25.032 -15.134  0.00  0.00    +0.055 C 
ATOM      5  C   UNL     1      34.773 -22.663 -15.654  0.00  0.00    +0.124 C 
ATOM      6  C   UNL     1      34.439 -24.904 -14.505  0.00  0.00    -0.022 C 
ATOM      7  C   UNL     1      35.244 -23.787 -14.770  0.00  0.00    -0.005 C 
ATOM      8  C   UNL     1      36.519 -23.707 -14.190  0.00  0.00    +0.013 C 
ATOM      9  C   UNL     1      34.927 -25.934 -13.688  0.00  0.00    -0.003 C 
ATOM     10  C   UNL     1      33.005 -22.057 -17.327  0.00  0.00    +0.406 C 
ATOM     11  C   UNL     1      36.992 -24.730 -13.368  0.00  0.00    +0.065 C 
ATOM     12  C   UNL     1      36.196 -25.844 -13.119  0.00  0.00    +0.016 C 
ENDROOT
BRANCH   3  15
ATOM     13  O   UNL     1      32.266 -21.724 -14.195  0.00  0.00    -0.273 OA
ATOM     14  N   UNL     1      31.170 -23.668 -13.531  0.00  0.00    -0.301 N 
ATOM     15  C   UNL     1      31.967 -22.903 -14.365  0.00  0.00    +0.241 C 
ATOM     16  C   UNL     1      30.575 -23.153 -12.318  0.00  0.00    +0.111 C 
ATOM     17  H   UNL     1      31.001 -24.606 -13.774  0.00  0.00    +0.150 HD
ENDBRANCH   3  15
BRANCH  11  18
ATOM     18  N   UNL     1      38.292 -24.634 -12.786  0.00  0.00    -0.213 N 
ATOM     19  H   UNL     1      38.426 -24.287 -11.874  0.00  0.00    +0.174 HD
BRANCH  18  20
ATOM     20  S   UNL     1      39.622 -25.158 -13.764  0.00  0.00    +0.091 S 
ATOM     21  O   UNL     1      40.304 -26.369 -12.909  0.00  0.00    -0.050 OA
ATOM     22  O   UNL     1      39.102 -25.725 -14.996  0.00  0.00    -0.050 OA
ATOM     23  O   UNL     1      40.588 -24.076 -13.818  0.00  0.00    -0.050 OA
ENDBRANCH  18  20
ENDBRANCH  11  18
BRANCH  10  24
ATOM     24  O   UNL     1      33.955 -21.158 -17.738  0.00  0.00    -0.430 OA
BRANCH  24  25
ATOM     25  C   UNL     1      34.618 -21.461 -18.970  0.00  0.00    +0.237 C 
BRANCH  25  26
ATOM     26  C   UNL     1      34.782 -20.196 -19.761  0.00  0.00    +0.021 C 
ATOM     27  C   UNL     1      33.694 -19.664 -20.442  0.00  0.00    -0.001 C 
ATOM     28  C   UNL     1      36.022 -19.567 -19.805  0.00  0.00    -0.001 C 
ATOM     29  C   UNL     1      33.846 -18.488 -21.177  0.00  0.00    -0.000 C 
ATOM     30  C   UNL     1      36.174 -18.391 -20.539  0.00  0.00    -0.000 C 
ATOM     31  C   UNL     1      35.087 -17.851 -21.225  0.00  0.00    -0.000 C 
ENDBRANCH  25  26
ENDBRANCH  24  25
ENDBRANCH  10  24
TORSDOF 6
ENDMDL
MODEL 9
REMARK VINA RESULT:      -7.6      2.531      3.407
REMARK  Name = 5327153
REMARK  6 active torsions:
REMARK  status: ('A' for Active; 'I' for Inactive)
REMARK    1  A    between atoms: C_3  and  C_15
REMARK    2  A    between atoms: C_10  and  O_24
REMARK    3  A    between atoms: C_11  and  N_18
REMARK    4  A    between atoms: N_18  and  S_20
REMARK    5  A    between atoms: O_24  and  C_25
REMARK    6  A    between atoms: C_25  and  C_26
REMARK                            x       y       z     vdW  Elec       q    Type
REMARK                         _______ _______ _______ _____ _____    ______ ____
ROOT
ATOM      1  O   UNL     1      34.242  -9.462 -22.944  0.00  0.00    -0.226 OA
ATOM      2  N   UNL     1      32.969  -7.773 -23.925  0.00  0.00    -0.235 N 
ATOM      3  C   UNL     1      33.552  -6.713 -23.103  0.00  0.00    +0.159 C 
ATOM      4  C   UNL     1      33.880  -5.460 -23.910  0.00  0.00    +0.055 C 
ATOM      5  C   UNL     1      31.867  -7.423 -24.834  0.00  0.00    +0.124 C 
ATOM      6  C   UNL     1      32.769  -5.048 -24.839  0.00  0.00    -0.022 C 
ATOM      7  C   UNL     1      31.829  -5.988 -25.287  0.00  0.00    -0.005 C 
ATOM      8  C   UNL     1      30.820  -5.580 -26.172  0.00  0.00    +0.013 C 
ATOM      9  C   UNL     1      32.703  -3.725 -25.300  0.00  0.00    -0.003 C 
ATOM     10  C   UNL     1      33.332  -9.109 -23.692  0.00  0.00    +0.406 C 
ATOM     11  C   UNL     1      30.754  -4.260 -26.616  0.00  0.00    +0.065 C 
ATOM     12  C   UNL     1      31.697  -3.333 -26.182  0.00  0.00    +0.016 C 
ENDROOT
BRANCH   3  15
ATOM     13  O   UNL     1      32.077  -5.340 -21.817  0.00  0.00    -0.273 OA
ATOM     14  N   UNL     1      32.375  -7.565 -21.196  0.00  0.00    -0.301 N 
ATOM     15  C   UNL     1      32.584  -6.446 -21.985  0.00  0.00    +0.241 C 
ATOM     16  C   UNL     1      31.506  -7.565 -20.042  0.00  0.00    +0.111 C 
ATOM     17  H   UNL     1      32.841  -8.399 -21.433  0.00  0.00    +0.150 HD
ENDBRANCH   3  15
BRANCH  11  18
ATOM     18  N   UNL     1      29.721  -3.862 -27.518  0.00  0.00    -0.213 N 
ATOM     19  H   UNL     1      28.865  -3.498 -27.195  0.00  0.00    +0.174 HD
BRANCH  18  20
ATOM     20  S   UNL     1      30.049  -4.050 -29.208  0.00  0.00    +0.091 S 
ATOM     21  O   UNL     1      31.252  -2.991 -29.510  0.00  0.00    -0.050 OA
ATOM     22  O   UNL     1      30.570  -5.386 -29.437  0.00  0.00    -0.050 OA
ATOM     23  O   UNL     1      28.883  -3.594 -29.942  0.00  0.00    -0.050 OA
ENDBRANCH  18  20
ENDBRANCH  11  18
BRANCH  10  24
ATOM     24  O   UNL     1      32.550  -9.994 -24.388  0.00  0.00    -0.430 OA
BRANCH  24  25
ATOM     25  C   UNL     1      33.241 -10.888 -25.269  0.00  0.00    +0.237 C 
BRANCH  25  26
ATOM     26  C   UNL     1      32.983 -12.300 -24.832  0.00  0.00    +0.021 C 
ATOM     27  C   UNL     1      32.569 -13.244 -25.765  0.00  0.00    -0.001 C 
ATOM     28  C   UNL     1      33.161 -12.653 -23.499  0.00  0.00    -0.001 C 
ATOM     29  C   UNL     1      32.331 -14.557 -25.360  0.00  0.00    -0.000 C 
ATOM     30  C   UNL     1      32.923 -13.966 -23.094  0.00  0.00    -0.000 C 
ATOM     31  C   UNL     1      32.507 -14.918 -24.024  0.00  0.00    -0.000 C 
ENDBRANCH  25  26
ENDBRANCH  24  25
ENDBRANCH  10  24
TORSDOF 6
ENDMDL
