MODEL 1
REMARK VINA RESULT:     -11.7      0.000      0.000
REMARK  Name = 46892373
REMARK  3 active torsions:
REMARK  status: ('A' for Active; 'I' for Inactive)
REMARK    1  A    between atoms: C_7  and  C_20
REMARK    2  A    between atoms: C_20  and  C_22
REMARK    3  A    between atoms: C_20  and  O_28
REMARK                            x       y       z     vdW  Elec       q    Type
REMARK                         _______ _______ _______ _____ _____    ______ ____
ROOT
ATOM      1  N   UNL     1      33.309 -23.424 -16.382  0.00  0.00    -0.326 NA
ATOM      2  N   UNL     1      33.919 -24.125 -14.220  0.00  0.00    -0.271 N 
ATOM      3  N   UNL     1      31.124 -22.499 -16.803  0.00  0.00    -0.345 NA
ATOM      4  N   UNL     1      37.338 -23.739 -14.683  0.00  0.00    -0.239 N 
ATOM      5  N   UNL     1      36.095 -23.478 -15.119  0.00  0.00    -0.166 NA
ATOM      6  C   UNL     1      31.707 -23.202 -14.585  0.00  0.00    +0.072 C 
ATOM      7  C   UNL     1      32.361 -22.891 -17.169  0.00  0.00    +0.146 C 
ATOM      8  C   UNL     1      32.951 -23.567 -15.092  0.00  0.00    +0.199 C 
ATOM      9  C   UNL     1      30.799 -22.656 -15.508  0.00  0.00    +0.129 C 
ATOM     10  C   UNL     1      31.357 -23.361 -13.234  0.00  0.00    +0.006 C 
ATOM     11  C   UNL     1      29.543 -22.278 -15.038  0.00  0.00    +0.086 C 
ATOM     12  C   UNL     1      35.323 -24.095 -14.220  0.00  0.00    +0.152 C 
ATOM     13  C   UNL     1      30.095 -22.976 -12.791  0.00  0.00    -0.004 C 
ATOM     14  C   UNL     1      29.188 -22.433 -13.695  0.00  0.00    -0.019 C 
ATOM     15  C   UNL     1      36.068 -24.744 -13.218  0.00  0.00    +0.048 C 
ATOM     16  C   UNL     1      37.378 -24.494 -13.548  0.00  0.00    +0.046 C 
ATOM     17  C   UNL     1      38.645 -24.889 -12.912  0.00  0.00    +0.049 C 
ATOM     18  H   UNL     1      33.533 -24.633 -13.471  0.00  0.00    +0.156 HD
ATOM     19  H   UNL     1      38.148 -23.414 -15.141  0.00  0.00    +0.174 HD
ENDROOT
BRANCH   7  20
ATOM     20  C   UNL     1      32.714 -22.714 -18.608  0.00  0.00    +0.243 C 
BRANCH  20  22
ATOM     21  F   UNL     1      36.543 -18.660 -19.536  0.00  0.00    -0.204 F 
ATOM     22  C   UNL     1      33.746 -21.621 -18.858  0.00  0.00    +0.021 C 
ATOM     23  C   UNL     1      33.481 -20.610 -19.782  0.00  0.00    +0.001 C 
ATOM     24  C   UNL     1      34.955 -21.632 -18.164  0.00  0.00    +0.001 C 
ATOM     25  C   UNL     1      34.425 -19.609 -20.011  0.00  0.00    +0.029 C 
ATOM     26  C   UNL     1      35.901 -20.631 -18.393  0.00  0.00    +0.029 C 
ATOM     27  C   UNL     1      35.635 -19.620 -19.317  0.00  0.00    +0.140 C 
ENDBRANCH  20  22
BRANCH  20  28
ATOM     28  O   UNL     1      33.164 -23.940 -19.213  0.00  0.00    -0.366 OA
ATOM     29  H   UNL     1      32.398 -24.458 -19.506  0.00  0.00    +0.212 HD
ENDBRANCH  20  28
ENDBRANCH   7  20
TORSDOF 3
ENDMDL
MODEL 2
REMARK VINA RESULT:     -11.4      2.950      7.150
REMARK  Name = 46892373
REMARK  3 active torsions:
REMARK  status: ('A' for Active; 'I' for Inactive)
REMARK    1  A    between atoms: C_7  and  C_20
REMARK    2  A    between atoms: C_20  and  C_22
REMARK    3  A    between atoms: C_20  and  O_28
REMARK                            x       y       z     vdW  Elec       q    Type
REMARK                         _______ _______ _______ _____ _____    ______ ____
ROOT
ATOM      1  N   UNL     1      32.280 -23.296 -14.866  0.00  0.00    -0.326 NA
ATOM      2  N   UNL     1      30.629 -22.585 -16.385  0.00  0.00    -0.271 N 
ATOM      3  N   UNL     1      34.617 -22.943 -15.337  0.00  0.00    -0.345 NA
ATOM      4  N   UNL     1      28.097 -22.281 -14.029  0.00  0.00    -0.239 N 
ATOM      5  N   UNL     1      29.411 -22.410 -14.277  0.00  0.00    -0.166 NA
ATOM      6  C   UNL     1      32.965 -22.204 -16.912  0.00  0.00    +0.072 C 
ATOM      7  C   UNL     1      33.589 -23.381 -14.582  0.00  0.00    +0.146 C 
ATOM      8  C   UNL     1      31.999 -22.700 -16.040  0.00  0.00    +0.199 C 
ATOM      9  C   UNL     1      34.301 -22.354 -16.504  0.00  0.00    +0.129 C 
ATOM     10  C   UNL     1      32.647 -21.587 -18.133  0.00  0.00    +0.006 C 
ATOM     11  C   UNL     1      35.297 -21.869 -17.349  0.00  0.00    +0.086 C 
ATOM     12  C   UNL     1      29.465 -22.456 -15.610  0.00  0.00    +0.152 C 
ATOM     13  C   UNL     1      33.661 -21.112 -18.958  0.00  0.00    -0.004 C 
ATOM     14  C   UNL     1      34.987 -21.254 -18.565  0.00  0.00    -0.019 C 
ATOM     15  C   UNL     1      28.195 -22.358 -16.209  0.00  0.00    +0.048 C 
ATOM     16  C   UNL     1      27.325 -22.245 -15.152  0.00  0.00    +0.046 C 
ATOM     17  C   UNL     1      25.861 -22.110 -15.093  0.00  0.00    +0.049 C 
ATOM     18  H   UNL     1      30.460 -22.600 -17.355  0.00  0.00    +0.156 HD
ATOM     19  H   UNL     1      27.726 -22.219 -13.118  0.00  0.00    +0.174 HD
ENDROOT
BRANCH   7  20
ATOM     20  C   UNL     1      33.948 -24.034 -13.289  0.00  0.00    +0.243 C 
BRANCH  20  22
ATOM     21  F   UNL     1      39.313 -25.797 -13.037  0.00  0.00    -0.204 F 
ATOM     22  C   UNL     1      35.395 -24.509 -13.222  0.00  0.00    +0.021 C 
ATOM     23  C   UNL     1      35.820 -25.565 -14.027  0.00  0.00    +0.001 C 
ATOM     24  C   UNL     1      36.293 -23.888 -12.353  0.00  0.00    +0.001 C 
ATOM     25  C   UNL     1      37.144 -26.000 -13.965  0.00  0.00    +0.029 C 
ATOM     26  C   UNL     1      37.617 -24.323 -12.290  0.00  0.00    +0.029 C 
ATOM     27  C   UNL     1      38.042 -25.380 -13.097  0.00  0.00    +0.140 C 
ENDBRANCH  20  22
BRANCH  20  28
ATOM     28  O   UNL     1      33.672 -23.189 -12.157  0.00  0.00    -0.366 OA
ATOM     29  H   UNL     1      34.325 -22.472 -12.121  0.00  0.00    +0.212 HD
ENDBRANCH  20  28
ENDBRANCH   7  20
TORSDOF 3
ENDMDL
MODEL 3
REMARK VINA RESULT:     -11.2      2.990      5.666
REMARK  Name = 46892373
REMARK  3 active torsions:
REMARK  status: ('A' for Active; 'I' for Inactive)
REMARK    1  A    between atoms: C_7  and  C_20
REMARK    2  A    between atoms: C_20  and  C_22
REMARK    3  A    between atoms: C_20  and  O_28
REMARK                            x       y       z     vdW  Elec       q    Type
REMARK                         _______ _______ _______ _____ _____    ______ ____
ROOT
ATOM      1  N   UNL     1      33.646 -23.481 -14.507  0.00  0.00    -0.326 NA
ATOM      2  N   UNL     1      35.897 -23.175 -15.120  0.00  0.00    -0.271 N 
ATOM      3  N   UNL     1      31.867 -22.693 -15.929  0.00  0.00    -0.345 NA
ATOM      4  N   UNL     1      37.126 -25.844 -13.272  0.00  0.00    -0.239 N 
ATOM      5  N   UNL     1      36.060 -25.224 -13.803  0.00  0.00    -0.166 NA
ATOM      6  C   UNL     1      34.149 -22.361 -16.590  0.00  0.00    +0.072 C 
ATOM      7  C   UNL     1      32.356 -23.295 -14.826  0.00  0.00    +0.146 C 
ATOM      8  C   UNL     1      34.521 -23.002 -15.412  0.00  0.00    +0.199 C 
ATOM      9  C   UNL     1      32.768 -22.226 -16.811  0.00  0.00    +0.129 C 
ATOM     10  C   UNL     1      35.081 -21.869 -17.519  0.00  0.00    +0.006 C 
ATOM     11  C   UNL     1      32.356 -21.590 -17.980  0.00  0.00    +0.086 C 
ATOM     12  C   UNL     1      36.598 -24.159 -14.404  0.00  0.00    +0.152 C 
ATOM     13  C   UNL     1      34.642 -21.237 -18.678  0.00  0.00    -0.004 C 
ATOM     14  C   UNL     1      33.278 -21.098 -18.909  0.00  0.00    -0.019 C 
ATOM     15  C   UNL     1      37.996 -24.100 -14.257  0.00  0.00    +0.048 C 
ATOM     16  C   UNL     1      38.310 -25.212 -13.514  0.00  0.00    +0.046 C 
ATOM     17  C   UNL     1      39.593 -25.731 -13.016  0.00  0.00    +0.049 C 
ATOM     18  H   UNL     1      36.474 -22.468 -15.490  0.00  0.00    +0.156 HD
ATOM     19  H   UNL     1      37.059 -26.679 -12.754  0.00  0.00    +0.174 HD
ENDROOT
BRANCH   7  20
ATOM     20  C   UNL     1      31.349 -23.811 -13.852  0.00  0.00    +0.243 C 
BRANCH  20  22
ATOM     21  F   UNL     1      25.999 -22.701 -15.304  0.00  0.00    -0.204 F 
ATOM     22  C   UNL     1      29.906 -23.512 -14.243  0.00  0.00    +0.021 C 
ATOM     23  C   UNL     1      29.118 -24.510 -14.816  0.00  0.00    +0.001 C 
ATOM     24  C   UNL     1      29.375 -22.240 -14.029  0.00  0.00    +0.001 C 
ATOM     25  C   UNL     1      27.798 -24.237 -15.174  0.00  0.00    +0.029 C 
ATOM     26  C   UNL     1      28.055 -21.966 -14.388  0.00  0.00    +0.029 C 
ATOM     27  C   UNL     1      27.266 -22.965 -14.960  0.00  0.00    +0.140 C 
ENDBRANCH  20  22
BRANCH  20  28
ATOM     28  O   UNL     1      31.494 -25.223 -13.614  0.00  0.00    -0.366 OA
ATOM     29  H   UNL     1      31.239 -25.713 -14.412  0.00  0.00    +0.212 HD
ENDBRANCH  20  28
ENDBRANCH   7  20
TORSDOF 3
ENDMDL
MODEL 4
REMARK VINA RESULT:     -11.2      3.060      6.708
REMARK  Name = 46892373
REMARK  3 active torsions:
REMARK  status: ('A' for Active; 'I' for Inactive)
REMARK    1  A    between atoms: C_7  and  C_20
REMARK    2  A    between atoms: C_20  and  C_22
REMARK    3  A    between atoms: C_20  and  O_28
REMARK                            x       y       z     vdW  Elec       q    Type
REMARK                         _______ _______ _______ _____ _____    ______ ____
ROOT
ATOM      1  N   UNL     1      34.558 -22.798 -15.543  0.00  0.00    -0.326 NA
ATOM      2  N   UNL     1      32.343 -23.026 -16.304  0.00  0.00    -0.271 N 
ATOM      3  N   UNL     1      36.168 -21.527 -16.808  0.00  0.00    -0.345 NA
ATOM      4  N   UNL     1      30.959 -23.598 -13.172  0.00  0.00    -0.239 N 
ATOM      5  N   UNL     1      32.012 -23.175 -13.890  0.00  0.00    -0.166 NA
ATOM      6  C   UNL     1      33.919 -21.735 -17.618  0.00  0.00    +0.072 C 
ATOM      7  C   UNL     1      35.778 -22.284 -15.763  0.00  0.00    +0.146 C 
ATOM      8  C   UNL     1      33.648 -22.505 -16.491  0.00  0.00    +0.199 C 
ATOM      9  C   UNL     1      35.234 -21.253 -17.737  0.00  0.00    +0.129 C 
ATOM     10  C   UNL     1      32.952 -21.443 -18.594  0.00  0.00    +0.006 C 
ATOM     11  C   UNL     1      35.544 -20.478 -18.851  0.00  0.00    +0.086 C 
ATOM     12  C   UNL     1      31.601 -23.331 -15.151  0.00  0.00    +0.152 C 
ATOM     13  C   UNL     1      33.289 -20.666 -19.698  0.00  0.00    -0.004 C 
ATOM     14  C   UNL     1      34.586 -20.183 -19.826  0.00  0.00    -0.019 C 
ATOM     15  C   UNL     1      30.296 -23.849 -15.237  0.00  0.00    +0.048 C 
ATOM     16  C   UNL     1      29.905 -24.013 -13.931  0.00  0.00    +0.046 C 
ATOM     17  C   UNL     1      28.657 -24.514 -13.334  0.00  0.00    +0.049 C 
ATOM     18  H   UNL     1      31.865 -23.211 -17.144  0.00  0.00    +0.156 HD
ATOM     19  H   UNL     1      30.949 -23.608 -12.187  0.00  0.00    +0.174 HD
ENDROOT
BRANCH   7  20
ATOM     20  C   UNL     1      36.821 -22.583 -14.737  0.00  0.00    +0.243 C 
BRANCH  20  22
ATOM     21  F   UNL     1      34.809 -25.154 -10.122  0.00  0.00    -0.204 F 
ATOM     22  C   UNL     1      36.278 -23.276 -13.493  0.00  0.00    +0.021 C 
ATOM     23  C   UNL     1      35.857 -22.518 -12.400  0.00  0.00    +0.001 C 
ATOM     24  C   UNL     1      36.203 -24.668 -13.446  0.00  0.00    +0.001 C 
ATOM     25  C   UNL     1      35.360 -23.152 -11.262  0.00  0.00    +0.029 C 
ATOM     26  C   UNL     1      35.708 -25.303 -12.307  0.00  0.00    +0.029 C 
ATOM     27  C   UNL     1      35.286 -24.544 -11.215  0.00  0.00    +0.140 C 
ENDBRANCH  20  22
BRANCH  20  28
ATOM     28  O   UNL     1      37.908 -23.357 -15.276  0.00  0.00    -0.366 OA
ATOM     29  H   UNL     1      37.569 -23.969 -15.947  0.00  0.00    +0.212 HD
ENDBRANCH  20  28
ENDBRANCH   7  20
TORSDOF 3
ENDMDL
MODEL 5
REMARK VINA RESULT:     -11.0      2.657      5.468
REMARK  Name = 46892373
REMARK  3 active torsions:
REMARK  status: ('A' for Active; 'I' for Inactive)
REMARK    1  A    between atoms: C_7  and  C_20
REMARK    2  A    between atoms: C_20  and  C_22
REMARK    3  A    between atoms: C_20  and  O_28
REMARK                            x       y       z     vdW  Elec       q    Type
REMARK                         _______ _______ _______ _____ _____    ______ ____
ROOT
ATOM      1  N   UNL     1      32.469 -23.202 -14.336  0.00  0.00    -0.326 NA
ATOM      2  N   UNL     1      31.473 -22.315 -16.275  0.00  0.00    -0.271 N 
ATOM      3  N   UNL     1      31.203 -24.593 -12.829  0.00  0.00    -0.345 NA
ATOM      4  N   UNL     1      34.433 -21.965 -18.056  0.00  0.00    -0.239 N 
ATOM      5  N   UNL     1      33.795 -22.503 -17.003  0.00  0.00    -0.166 NA
ATOM      6  C   UNL     1      30.150 -23.707 -14.795  0.00  0.00    +0.072 C 
ATOM      7  C   UNL     1      32.319 -23.953 -13.234  0.00  0.00    +0.146 C 
ATOM      8  C   UNL     1      31.364 -23.098 -15.098  0.00  0.00    +0.199 C 
ATOM      9  C   UNL     1      30.117 -24.467 -13.614  0.00  0.00    +0.129 C 
ATOM     10  C   UNL     1      29.010 -23.584 -15.607  0.00  0.00    +0.006 C 
ATOM     11  C   UNL     1      28.919 -25.094 -13.276  0.00  0.00    +0.086 C 
ATOM     12  C   UNL     1      32.550 -22.040 -17.133  0.00  0.00    +0.152 C 
ATOM     13  C   UNL     1      27.826 -24.220 -15.246  0.00  0.00    -0.004 C 
ATOM     14  C   UNL     1      27.782 -24.975 -14.080  0.00  0.00    -0.019 C 
ATOM     15  C   UNL     1      32.393 -21.212 -18.260  0.00  0.00    +0.048 C 
ATOM     16  C   UNL     1      33.638 -21.183 -18.840  0.00  0.00    +0.046 C 
ATOM     17  C   UNL     1      34.147 -20.502 -20.041  0.00  0.00    +0.049 C 
ATOM     18  H   UNL     1      30.632 -21.879 -16.541  0.00  0.00    +0.156 HD
ATOM     19  H   UNL     1      35.387 -22.121 -18.243  0.00  0.00    +0.174 HD
ENDROOT
BRANCH   7  20
ATOM     20  C   UNL     1      33.518 -24.096 -12.357  0.00  0.00    +0.243 C 
BRANCH  20  22
ATOM     21  F   UNL     1      38.429 -23.633 -15.119  0.00  0.00    -0.204 F 
ATOM     22  C   UNL     1      34.842 -23.972 -13.102  0.00  0.00    +0.021 C 
ATOM     23  C   UNL     1      35.618 -25.106 -13.339  0.00  0.00    +0.001 C 
ATOM     24  C   UNL     1      35.278 -22.723 -13.546  0.00  0.00    +0.001 C 
ATOM     25  C   UNL     1      36.830 -24.992 -14.021  0.00  0.00    +0.029 C 
ATOM     26  C   UNL     1      36.490 -22.608 -14.227  0.00  0.00    +0.029 C 
ATOM     27  C   UNL     1      37.266 -23.744 -14.465  0.00  0.00    +0.140 C 
ENDBRANCH  20  22
BRANCH  20  28
ATOM     28  O   UNL     1      33.503 -23.168 -11.258  0.00  0.00    -0.366 OA
ATOM     29  H   UNL     1      33.198 -23.620 -10.456  0.00  0.00    +0.212 HD
ENDBRANCH  20  28
ENDBRANCH   7  20
TORSDOF 3
ENDMDL
MODEL 6
REMARK VINA RESULT:     -10.8      2.909      5.819
REMARK  Name = 46892373
REMARK  3 active torsions:
REMARK  status: ('A' for Active; 'I' for Inactive)
REMARK    1  A    between atoms: C_7  and  C_20
REMARK    2  A    between atoms: C_20  and  C_22
REMARK    3  A    between atoms: C_20  and  O_28
REMARK                            x       y       z     vdW  Elec       q    Type
REMARK                         _______ _______ _______ _____ _____    ______ ____
ROOT
ATOM      1  N   UNL     1      32.580 -22.751 -15.933  0.00  0.00    -0.326 NA
ATOM      2  N   UNL     1      34.887 -22.733 -15.466  0.00  0.00    -0.271 N 
ATOM      3  N   UNL     1      31.723 -21.723 -17.937  0.00  0.00    -0.345 NA
ATOM      4  N   UNL     1      34.855 -25.561 -13.452  0.00  0.00    -0.239 N 
ATOM      5  N   UNL     1      34.215 -24.801 -14.356  0.00  0.00    -0.166 NA
ATOM      6  C   UNL     1      34.082 -21.682 -17.497  0.00  0.00    +0.072 C 
ATOM      7  C   UNL     1      31.598 -22.396 -16.776  0.00  0.00    +0.146 C 
ATOM      8  C   UNL     1      33.814 -22.380 -16.323  0.00  0.00    +0.199 C 
ATOM      9  C   UNL     1      32.970 -21.366 -18.296  0.00  0.00    +0.129 C 
ATOM     10  C   UNL     1      35.379 -21.304 -17.882  0.00  0.00    +0.006 C 
ATOM     11  C   UNL     1      33.197 -20.668 -19.480  0.00  0.00    +0.086 C 
ATOM     12  C   UNL     1      35.079 -23.808 -14.583  0.00  0.00    +0.152 C 
ATOM     13  C   UNL     1      35.578 -20.607 -19.070  0.00  0.00    -0.004 C 
ATOM     14  C   UNL     1      34.485 -20.290 -19.869  0.00  0.00    -0.019 C 
ATOM     15  C   UNL     1      36.261 -23.933 -13.830  0.00  0.00    +0.048 C 
ATOM     16  C   UNL     1      36.084 -25.085 -13.103  0.00  0.00    +0.046 C 
ATOM     17  C   UNL     1      36.943 -25.772 -12.125  0.00  0.00    +0.049 C 
ATOM     18  H   UNL     1      35.642 -22.103 -15.494  0.00  0.00    +0.156 HD
ATOM     19  H   UNL     1      34.471 -26.386 -13.075  0.00  0.00    +0.174 HD
ENDROOT
BRANCH   7  20
ATOM     20  C   UNL     1      30.212 -22.788 -16.384  0.00  0.00    +0.243 C 
BRANCH  20  22
ATOM     21  F   UNL     1      29.814 -24.807 -11.119  0.00  0.00    -0.204 F 
ATOM     22  C   UNL     1      30.105 -23.333 -14.965  0.00  0.00    +0.021 C 
ATOM     23  C   UNL     1      29.511 -24.574 -14.737  0.00  0.00    +0.001 C 
ATOM     24  C   UNL     1      30.599 -22.589 -13.893  0.00  0.00    +0.001 C 
ATOM     25  C   UNL     1      29.413 -25.073 -13.438  0.00  0.00    +0.029 C 
ATOM     26  C   UNL     1      30.500 -23.087 -12.593  0.00  0.00    +0.029 C 
ATOM     27  C   UNL     1      29.908 -24.329 -12.367  0.00  0.00    +0.140 C 
ENDBRANCH  20  22
BRANCH  20  28
ATOM     28  O   UNL     1      29.274 -21.709 -16.551  0.00  0.00    -0.366 OA
ATOM     29  H   UNL     1      28.408 -22.068 -16.800  0.00  0.00    +0.212 HD
ENDBRANCH  20  28
ENDBRANCH   7  20
TORSDOF 3
ENDMDL
MODEL 7
REMARK VINA RESULT:     -10.7      2.035      5.306
REMARK  Name = 46892373
REMARK  3 active torsions:
REMARK  status: ('A' for Active; 'I' for Inactive)
REMARK    1  A    between atoms: C_7  and  C_20
REMARK    2  A    between atoms: C_20  and  C_22
REMARK    3  A    between atoms: C_20  and  O_28
REMARK                            x       y       z     vdW  Elec       q    Type
REMARK                         _______ _______ _______ _____ _____    ______ ____
ROOT
ATOM      1  N   UNL     1      34.371 -22.312 -15.085  0.00  0.00    -0.326 NA
ATOM      2  N   UNL     1      32.652 -22.847 -13.570  0.00  0.00    -0.271 N 
ATOM      3  N   UNL     1      36.633 -23.044 -14.687  0.00  0.00    -0.345 NA
ATOM      4  N   UNL     1      30.071 -22.626 -15.883  0.00  0.00    -0.239 N 
ATOM      5  N   UNL     1      31.393 -22.714 -15.657  0.00  0.00    -0.166 NA
ATOM      6  C   UNL     1      34.908 -23.610 -13.118  0.00  0.00    +0.072 C 
ATOM      7  C   UNL     1      35.674 -22.412 -15.393  0.00  0.00    +0.146 C 
ATOM      8  C   UNL     1      34.019 -22.924 -13.939  0.00  0.00    +0.199 C 
ATOM      9  C   UNL     1      36.246 -23.644 -13.547  0.00  0.00    +0.129 C 
ATOM     10  C   UNL     1      34.516 -24.241 -11.925  0.00  0.00    +0.006 C 
ATOM     11  C   UNL     1      37.167 -24.323 -12.752  0.00  0.00    +0.086 C 
ATOM     12  C   UNL     1      31.471 -22.752 -14.325  0.00  0.00    +0.152 C 
ATOM     13  C   UNL     1      35.456 -24.911 -11.149  0.00  0.00    -0.004 C 
ATOM     14  C   UNL     1      36.783 -24.952 -11.564  0.00  0.00    -0.019 C 
ATOM     15  C   UNL     1      30.210 -22.689 -13.704  0.00  0.00    +0.048 C 
ATOM     16  C   UNL     1      29.319 -22.607 -14.746  0.00  0.00    +0.046 C 
ATOM     17  C   UNL     1      27.850 -22.514 -14.779  0.00  0.00    +0.049 C 
ATOM     18  H   UNL     1      32.501 -22.862 -12.598  0.00  0.00    +0.156 HD
ATOM     19  H   UNL     1      29.682 -22.578 -16.786  0.00  0.00    +0.174 HD
ENDROOT
BRANCH   7  20
ATOM     20  C   UNL     1      36.111 -21.749 -16.656  0.00  0.00    +0.243 C 
BRANCH  20  22
ATOM     21  F   UNL     1      31.869 -20.573 -20.203  0.00  0.00    -0.204 F 
ATOM     22  C   UNL     1      34.967 -21.431 -17.612  0.00  0.00    +0.021 C 
ATOM     23  C   UNL     1      33.704 -21.980 -17.394  0.00  0.00    +0.001 C 
ATOM     24  C   UNL     1      35.184 -20.593 -18.706  0.00  0.00    +0.001 C 
ATOM     25  C   UNL     1      32.657 -21.690 -18.269  0.00  0.00    +0.029 C 
ATOM     26  C   UNL     1      34.137 -20.303 -19.582  0.00  0.00    +0.029 C 
ATOM     27  C   UNL     1      32.873 -20.852 -19.363  0.00  0.00    +0.140 C 
ENDBRANCH  20  22
BRANCH  20  28
ATOM     28  O   UNL     1      36.869 -20.550 -16.408  0.00  0.00    -0.366 OA
ATOM     29  H   UNL     1      37.808 -20.774 -16.316  0.00  0.00    +0.212 HD
ENDBRANCH  20  28
ENDBRANCH   7  20
TORSDOF 3
ENDMDL
MODEL 8
REMARK VINA RESULT:     -10.6      3.186      6.662
REMARK  Name = 46892373
REMARK  3 active torsions:
REMARK  status: ('A' for Active; 'I' for Inactive)
REMARK    1  A    between atoms: C_7  and  C_20
REMARK    2  A    between atoms: C_20  and  C_22
REMARK    3  A    between atoms: C_20  and  O_28
REMARK                            x       y       z     vdW  Elec       q    Type
REMARK                         _______ _______ _______ _____ _____    ______ ____
ROOT
ATOM      1  N   UNL     1      31.613 -23.700 -14.625  0.00  0.00    -0.326 NA
ATOM      2  N   UNL     1      33.377 -22.831 -15.919  0.00  0.00    -0.271 N 
ATOM      3  N   UNL     1      31.964 -24.312 -12.321  0.00  0.00    -0.345 NA
ATOM      4  N   UNL     1      31.353 -21.114 -18.157  0.00  0.00    -0.239 N 
ATOM      5  N   UNL     1      31.462 -21.751 -16.979  0.00  0.00    -0.166 NA
ATOM      6  C   UNL     1      33.788 -23.430 -13.605  0.00  0.00    +0.072 C 
ATOM      7  C   UNL     1      31.215 -24.171 -13.433  0.00  0.00    +0.146 C 
ATOM      8  C   UNL     1      32.908 -23.336 -14.680  0.00  0.00    +0.199 C 
ATOM      9  C   UNL     1      33.253 -23.940 -12.410  0.00  0.00    +0.129 C 
ATOM     10  C   UNL     1      35.137 -23.045 -13.687  0.00  0.00    +0.006 C 
ATOM     11  C   UNL     1      34.103 -24.048 -11.312  0.00  0.00    +0.086 C 
ATOM     12  C   UNL     1      32.745 -22.124 -16.954  0.00  0.00    +0.152 C 
ATOM     13  C   UNL     1      35.964 -23.165 -12.575  0.00  0.00    -0.004 C 
ATOM     14  C   UNL     1      35.446 -23.667 -11.386  0.00  0.00    -0.019 C 
ATOM     15  C   UNL     1      33.449 -21.729 -18.106  0.00  0.00    +0.048 C 
ATOM     16  C   UNL     1      32.514 -21.073 -18.871  0.00  0.00    +0.046 C 
ATOM     17  C   UNL     1      32.603 -20.422 -20.188  0.00  0.00    +0.049 C 
ATOM     18  H   UNL     1      34.330 -23.013 -16.087  0.00  0.00    +0.156 HD
ATOM     19  H   UNL     1      30.512 -20.714 -18.476  0.00  0.00    +0.174 HD
ENDROOT
BRANCH   7  20
ATOM     20  C   UNL     1      29.786 -24.586 -13.326  0.00  0.00    +0.243 C 
BRANCH  20  22
ATOM     21  F   UNL     1      26.335 -21.799 -16.831  0.00  0.00    -0.204 F 
ATOM     22  C   UNL     1      28.855 -23.835 -14.271  0.00  0.00    +0.021 C 
ATOM     23  C   UNL     1      28.158 -24.528 -15.261  0.00  0.00    +0.001 C 
ATOM     24  C   UNL     1      28.701 -22.454 -14.146  0.00  0.00    +0.001 C 
ATOM     25  C   UNL     1      27.306 -23.841 -16.125  0.00  0.00    +0.029 C 
ATOM     26  C   UNL     1      27.849 -21.766 -15.012  0.00  0.00    +0.029 C 
ATOM     27  C   UNL     1      27.152 -22.460 -16.001  0.00  0.00    +0.140 C 
ENDBRANCH  20  22
BRANCH  20  28
ATOM     28  O   UNL     1      29.614 -26.002 -13.517  0.00  0.00    -0.366 OA
ATOM     29  H   UNL     1      30.448 -26.459 -13.324  0.00  0.00    +0.212 HD
ENDBRANCH  20  28
ENDBRANCH   7  20
TORSDOF 3
ENDMDL
MODEL 9
REMARK VINA RESULT:     -10.1      3.131      6.286
REMARK  Name = 46892373
REMARK  3 active torsions:
REMARK  status: ('A' for Active; 'I' for Inactive)
REMARK    1  A    between atoms: C_7  and  C_20
REMARK    2  A    between atoms: C_20  and  C_22
REMARK    3  A    between atoms: C_20  and  O_28
REMARK                            x       y       z     vdW  Elec       q    Type
REMARK                         _______ _______ _______ _____ _____    ______ ____
ROOT
ATOM      1  N   UNL     1      33.068 -23.178 -15.515  0.00  0.00    -0.326 NA
ATOM      2  N   UNL     1      31.716 -21.840 -16.900  0.00  0.00    -0.271 N 
ATOM      3  N   UNL     1      32.080 -24.664 -13.895  0.00  0.00    -0.345 NA
ATOM      4  N   UNL     1      34.045 -21.518 -19.453  0.00  0.00    -0.239 N 
ATOM      5  N   UNL     1      33.661 -22.162 -18.339  0.00  0.00    -0.166 NA
ATOM      6  C   UNL     1      30.666 -23.316 -15.288  0.00  0.00    +0.072 C 
ATOM      7  C   UNL     1      33.121 -24.096 -14.537  0.00  0.00    +0.146 C 
ATOM      8  C   UNL     1      31.824 -22.808 -15.869  0.00  0.00    +0.199 C 
ATOM      9  C   UNL     1      30.850 -24.271 -14.274  0.00  0.00    +0.129 C 
ATOM     10  C   UNL     1      29.376 -22.914 -15.675  0.00  0.00    +0.006 C 
ATOM     11  C   UNL     1      29.715 -24.804 -13.668  0.00  0.00    +0.086 C 
ATOM     12  C   UNL     1      32.527 -21.540 -18.006  0.00  0.00    +0.152 C 
ATOM     13  C   UNL     1      28.259 -23.461 -15.053  0.00  0.00    -0.004 C 
ATOM     14  C   UNL     1      28.429 -24.408 -14.048  0.00  0.00    -0.019 C 
ATOM     15  C   UNL     1      32.190 -20.507 -18.900  0.00  0.00    +0.048 C 
ATOM     16  C   UNL     1      33.200 -20.518 -19.832  0.00  0.00    +0.046 C 
ATOM     17  C   UNL     1      33.445 -19.692 -21.025  0.00  0.00    +0.049 C 
ATOM     18  H   UNL     1      30.919 -21.267 -16.824  0.00  0.00    +0.156 HD
ATOM     19  H   UNL     1      34.864 -21.748 -19.951  0.00  0.00    +0.174 HD
ENDROOT
BRANCH   7  20
ATOM     20  C   UNL     1      34.481 -24.537 -14.111  0.00  0.00    +0.243 C 
BRANCH  20  22
ATOM     21  F   UNL     1      36.020 -22.596  -9.029  0.00  0.00    -0.204 F 
ATOM     22  C   UNL     1      34.896 -24.013 -12.741  0.00  0.00    +0.021 C 
ATOM     23  C   UNL     1      35.909 -23.060 -12.636  0.00  0.00    +0.001 C 
ATOM     24  C   UNL     1      34.263 -24.488 -11.592  0.00  0.00    +0.001 C 
ATOM     25  C   UNL     1      36.288 -22.581 -11.382  0.00  0.00    +0.029 C 
ATOM     26  C   UNL     1      34.643 -24.010 -10.337  0.00  0.00    +0.029 C 
ATOM     27  C   UNL     1      35.656 -23.056 -10.233  0.00  0.00    +0.140 C 
ENDBRANCH  20  22
BRANCH  20  28
ATOM     28  O   UNL     1      34.622 -25.969 -14.134  0.00  0.00    -0.366 OA
ATOM     29  H   UNL     1      33.755 -26.382 -13.996  0.00  0.00    +0.212 HD
ENDBRANCH  20  28
ENDBRANCH   7  20
TORSDOF 3
ENDMDL
