MODEL 1
REMARK VINA RESULT:     -12.5      0.000      0.000
REMARK  Name = 24767976
REMARK  5 active torsions:
REMARK  status: ('A' for Active; 'I' for Inactive)
REMARK    1  A    between atoms: C_1  and  N_9
REMARK    2  A    between atoms: C_2  and  O_19
REMARK    3  A    between atoms: C_10  and  C_14
REMARK    4  A    between atoms: O_19  and  C_27
REMARK    5  A    between atoms: C_31  and  C_33
REMARK                            x       y       z     vdW  Elec       q    Type
REMARK                         _______ _______ _______ _____ _____    ______ ____
ROOT
ATOM      1  C   UNL     1      34.131 -21.654 -17.765  0.00  0.00    +0.050 C 
ATOM      2  C   UNL     1      34.687 -20.267 -19.663  0.00  0.00    +0.148 C 
ATOM      3  C   UNL     1      32.775 -21.505 -18.053  0.00  0.00    -0.008 C 
ATOM      4  C   UNL     1      35.088 -21.034 -18.570  0.00  0.00    +0.052 C 
ATOM      5  C   UNL     1      32.374 -20.737 -19.147  0.00  0.00    +0.000 C 
ATOM      6  C   UNL     1      33.331 -20.118 -19.952  0.00  0.00    +0.037 C 
ATOM      7  C   UNL     1      31.729 -22.157 -17.208  0.00  0.00    +0.032 C 
ENDROOT
BRANCH   1   9
ATOM      8  O   UNL     1      36.115 -21.026 -15.607  0.00  0.00    -0.268 OA
ATOM      9  N   UNL     1      34.552 -22.419 -16.675  0.00  0.00    -0.279 N 
ATOM     10  C   UNL     1      35.487 -22.076 -15.692  0.00  0.00    +0.265 C 
ATOM     11  H   UNL     1      34.142 -23.311 -16.589  0.00  0.00    +0.155 HD
BRANCH  10  14
ATOM     12  N   UNL     1      34.802 -23.712 -13.881  0.00  0.00    -0.206 N 
ATOM     13  N   UNL     1      35.297 -24.629 -13.033  0.00  0.00    -0.182 NA
ATOM     14  C   UNL     1      35.747 -23.122 -14.668  0.00  0.00    +0.124 C 
ATOM     15  C   UNL     1      36.944 -23.694 -14.310  0.00  0.00    +0.037 C 
ATOM     16  C   UNL     1      36.605 -24.615 -13.300  0.00  0.00    +0.078 C 
ATOM     17  C   UNL     1      33.382 -23.444 -13.882  0.00  0.00    +0.140 C 
ATOM     18  C   UNL     1      37.513 -25.507 -12.559  0.00  0.00    +0.054 C 
ENDBRANCH  10  14
ENDBRANCH   1   9
BRANCH   2  19
ATOM     19  O   UNL     1      35.641 -19.648 -20.467  0.00  0.00    -0.435 OA
BRANCH  19  27
ATOM     20  N   UNL     1      33.224 -16.349 -23.892  0.00  0.00    -0.373 NA
ATOM     21  N   UNL     1      34.348 -16.804 -22.020  0.00  0.00    -0.173 N 
ATOM     22  N   UNL     1      34.998 -17.509 -21.053  0.00  0.00    -0.138 NA
ATOM     23  C   UNL     1      33.452 -15.195 -23.187  0.00  0.00    +0.187 C 
ATOM     24  C   UNL     1      34.144 -15.449 -22.028  0.00  0.00    +0.193 C 
ATOM     25  C   UNL     1      33.771 -17.309 -23.173  0.00  0.00    +0.204 C 
ATOM     26  C   UNL     1      33.858 -18.706 -23.381  0.00  0.00    +0.054 C 
ATOM     27  C   UNL     1      35.042 -18.777 -21.304  0.00  0.00    +0.245 C 
ATOM     28  C   UNL     1      34.480 -19.475 -22.479  0.00  0.00    +0.063 C 
ATOM     29  O   UNL     1      33.757 -12.472 -21.942  0.00  0.00    -0.275 OA
ATOM     30  N   UNL     1      33.026 -13.962 -23.621  0.00  0.00    -0.261 N 
ATOM     31  C   UNL     1      33.191 -12.705 -23.002  0.00  0.00    +0.227 C 
ATOM     32  H   UNL     1      32.542 -13.955 -24.477  0.00  0.00    +0.157 HD
BRANCH  31  33
ATOM     33  C   UNL     1      32.598 -11.558 -23.759  0.00  0.00    +0.077 C 
ATOM     34  C   UNL     1      33.475 -10.759 -24.678  0.00  0.00    +0.010 C 
ATOM     35  C   UNL     1      32.994 -10.159 -23.390  0.00  0.00    +0.010 C 
ENDBRANCH  31  33
ENDBRANCH  19  27
ENDBRANCH   2  19
TORSDOF 5
ENDMDL
MODEL 2
REMARK VINA RESULT:     -12.2      1.716      1.888
REMARK  Name = 24767976
REMARK  5 active torsions:
REMARK  status: ('A' for Active; 'I' for Inactive)
REMARK    1  A    between atoms: C_1  and  N_9
REMARK    2  A    between atoms: C_2  and  O_19
REMARK    3  A    between atoms: C_10  and  C_14
REMARK    4  A    between atoms: O_19  and  C_27
REMARK    5  A    between atoms: C_31  and  C_33
REMARK                            x       y       z     vdW  Elec       q    Type
REMARK                         _______ _______ _______ _____ _____    ______ ____
ROOT
ATOM      1  C   UNL     1      34.564 -21.261 -18.071  0.00  0.00    +0.050 C 
ATOM      2  C   UNL     1      34.943 -19.574 -19.758  0.00  0.00    +0.148 C 
ATOM      3  C   UNL     1      33.222 -21.332 -18.443  0.00  0.00    -0.008 C 
ATOM      4  C   UNL     1      35.425 -20.382 -18.728  0.00  0.00    +0.052 C 
ATOM      5  C   UNL     1      32.740 -20.523 -19.474  0.00  0.00    +0.000 C 
ATOM      6  C   UNL     1      33.601 -19.644 -20.131  0.00  0.00    +0.037 C 
ATOM      7  C   UNL     1      32.277 -22.264 -17.757  0.00  0.00    +0.032 C 
ENDROOT
BRANCH   1   9
ATOM      8  O   UNL     1      36.516 -20.618 -15.888  0.00  0.00    -0.268 OA
ATOM      9  N   UNL     1      35.065 -22.063 -17.043  0.00  0.00    -0.279 N 
ATOM     10  C   UNL     1      35.980 -21.710 -16.045  0.00  0.00    +0.265 C 
ATOM     11  H   UNL     1      34.735 -22.991 -17.019  0.00  0.00    +0.155 HD
BRANCH  10  14
ATOM     12  N   UNL     1      35.474 -23.477 -14.299  0.00  0.00    -0.206 N 
ATOM     13  N   UNL     1      36.057 -24.418 -13.537  0.00  0.00    -0.182 NA
ATOM     14  C   UNL     1      36.345 -22.800 -15.101  0.00  0.00    +0.124 C 
ATOM     15  C   UNL     1      37.584 -23.336 -14.846  0.00  0.00    +0.037 C 
ATOM     16  C   UNL     1      37.345 -24.327 -13.876  0.00  0.00    +0.078 C 
ATOM     17  C   UNL     1      34.046 -23.276 -14.205  0.00  0.00    +0.140 C 
ATOM     18  C   UNL     1      38.332 -25.217 -13.242  0.00  0.00    +0.054 C 
ENDBRANCH  10  14
ENDBRANCH   1   9
BRANCH   2  19
ATOM     19  O   UNL     1      35.802 -18.696 -20.414  0.00  0.00    -0.435 OA
BRANCH  19  27
ATOM     20  N   UNL     1      33.045 -14.773 -22.751  0.00  0.00    -0.373 NA
ATOM     21  N   UNL     1      33.871 -15.845 -20.979  0.00  0.00    -0.173 N 
ATOM     22  N   UNL     1      34.536 -16.773 -20.235  0.00  0.00    -0.138 NA
ATOM     23  C   UNL     1      32.686 -14.123 -21.598  0.00  0.00    +0.187 C 
ATOM     24  C   UNL     1      33.183 -14.766 -20.490  0.00  0.00    +0.193 C 
ATOM     25  C   UNL     1      33.759 -15.808 -22.358  0.00  0.00    +0.204 C 
ATOM     26  C   UNL     1      34.398 -16.840 -23.087  0.00  0.00    +0.054 C 
ATOM     27  C   UNL     1      35.097 -17.685 -20.961  0.00  0.00    +0.245 C 
ATOM     28  C   UNL     1      35.074 -17.793 -22.435  0.00  0.00    +0.063 C 
ATOM     29  O   UNL     1      31.707 -12.432 -19.308  0.00  0.00    -0.275 OA
ATOM     30  N   UNL     1      31.925 -12.979 -21.594  0.00  0.00    -0.261 N 
ATOM     31  C   UNL     1      31.487 -12.215 -20.493  0.00  0.00    +0.227 C 
ATOM     32  H   UNL     1      31.649 -12.648 -22.478  0.00  0.00    +0.157 HD
BRANCH  31  33
ATOM     33  C   UNL     1      30.668 -11.015 -20.855  0.00  0.00    +0.077 C 
ATOM     34  C   UNL     1      31.323  -9.665 -20.877  0.00  0.00    +0.010 C 
ATOM     35  C   UNL     1      30.344 -10.006 -19.793  0.00  0.00    +0.010 C 
ENDBRANCH  31  33
ENDBRANCH  19  27
ENDBRANCH   2  19
TORSDOF 5
ENDMDL
MODEL 3
REMARK VINA RESULT:     -11.5      2.085     11.366
REMARK  Name = 24767976
REMARK  5 active torsions:
REMARK  status: ('A' for Active; 'I' for Inactive)
REMARK    1  A    between atoms: C_1  and  N_9
REMARK    2  A    between atoms: C_2  and  O_19
REMARK    3  A    between atoms: C_10  and  C_14
REMARK    4  A    between atoms: O_19  and  C_27
REMARK    5  A    between atoms: C_31  and  C_33
REMARK                            x       y       z     vdW  Elec       q    Type
REMARK                         _______ _______ _______ _____ _____    ______ ____
ROOT
ATOM      1  C   UNL     1      34.029 -18.903 -20.618  0.00  0.00    +0.050 C 
ATOM      2  C   UNL     1      33.224 -20.823 -19.393  0.00  0.00    +0.148 C 
ATOM      3  C   UNL     1      35.340 -19.235 -20.278  0.00  0.00    -0.008 C 
ATOM      4  C   UNL     1      32.971 -19.697 -20.176  0.00  0.00    +0.052 C 
ATOM      5  C   UNL     1      35.593 -20.361 -19.494  0.00  0.00    +0.000 C 
ATOM      6  C   UNL     1      34.535 -21.155 -19.052  0.00  0.00    +0.037 C 
ATOM      7  C   UNL     1      36.492 -18.402 -20.738  0.00  0.00    +0.032 C 
ENDROOT
BRANCH   1   9
ATOM      8  O   UNL     1      33.761 -18.635 -23.593  0.00  0.00    -0.268 OA
ATOM      9  N   UNL     1      33.755 -17.780 -21.403  0.00  0.00    -0.279 N 
ATOM     10  C   UNL     1      33.641 -17.710 -22.796  0.00  0.00    +0.265 C 
ATOM     11  H   UNL     1      33.627 -16.933 -20.916  0.00  0.00    +0.155 HD
BRANCH  10  14
ATOM     12  N   UNL     1      33.466 -15.186 -22.650  0.00  0.00    -0.206 N 
ATOM     13  N   UNL     1      33.165 -14.096 -23.377  0.00  0.00    -0.182 NA
ATOM     14  C   UNL     1      33.369 -16.355 -23.345  0.00  0.00    +0.124 C 
ATOM     15  C   UNL     1      32.978 -16.007 -24.615  0.00  0.00    +0.037 C 
ATOM     16  C   UNL     1      32.868 -14.604 -24.576  0.00  0.00    +0.078 C 
ATOM     17  C   UNL     1      33.845 -15.028 -21.265  0.00  0.00    +0.140 C 
ATOM     18  C   UNL     1      32.480 -13.704 -25.676  0.00  0.00    +0.054 C 
ENDBRANCH  10  14
ENDBRANCH   1   9
BRANCH   2  19
ATOM     19  O   UNL     1      32.168 -21.616 -18.950  0.00  0.00    -0.435 OA
BRANCH  19  27
ATOM     20  N   UNL     1      32.937 -23.319 -13.954  0.00  0.00    -0.373 NA
ATOM     21  N   UNL     1      33.641 -22.675 -15.970  0.00  0.00    -0.173 N 
ATOM     22  N   UNL     1      33.613 -22.241 -17.261  0.00  0.00    -0.138 NA
ATOM     23  C   UNL     1      34.307 -23.359 -14.010  0.00  0.00    +0.187 C 
ATOM     24  C   UNL     1      34.766 -22.966 -15.244  0.00  0.00    +0.193 C 
ATOM     25  C   UNL     1      32.553 -22.904 -15.144  0.00  0.00    +0.204 C 
ATOM     26  C   UNL     1      31.268 -22.668 -15.688  0.00  0.00    +0.054 C 
ATOM     27  C   UNL     1      32.411 -22.045 -17.696  0.00  0.00    +0.245 C 
ATOM     28  C   UNL     1      31.149 -22.240 -16.951  0.00  0.00    +0.063 C 
ATOM     29  O   UNL     1      37.298 -23.574 -13.747  0.00  0.00    -0.275 OA
ATOM     30  N   UNL     1      35.084 -23.748 -12.945  0.00  0.00    -0.261 N 
ATOM     31  C   UNL     1      36.489 -23.836 -12.865  0.00  0.00    +0.227 C 
ATOM     32  H   UNL     1      34.595 -24.000 -12.130  0.00  0.00    +0.157 HD
BRANCH  31  33
ATOM     33  C   UNL     1      37.008 -24.299 -11.540  0.00  0.00    +0.077 C 
ATOM     34  C   UNL     1      36.768 -25.719 -11.118  0.00  0.00    +0.010 C 
ATOM     35  C   UNL     1      36.033 -24.601 -10.440  0.00  0.00    +0.010 C 
ENDBRANCH  31  33
ENDBRANCH  19  27
ENDBRANCH   2  19
TORSDOF 5
ENDMDL
MODEL 4
REMARK VINA RESULT:     -11.3      3.791     12.731
REMARK  Name = 24767976
REMARK  5 active torsions:
REMARK  status: ('A' for Active; 'I' for Inactive)
REMARK    1  A    between atoms: C_1  and  N_9
REMARK    2  A    between atoms: C_2  and  O_19
REMARK    3  A    between atoms: C_10  and  C_14
REMARK    4  A    between atoms: O_19  and  C_27
REMARK    5  A    between atoms: C_31  and  C_33
REMARK                            x       y       z     vdW  Elec       q    Type
REMARK                         _______ _______ _______ _____ _____    ______ ____
ROOT
ATOM      1  C   UNL     1      31.671 -10.223 -21.772  0.00  0.00    +0.050 C 
ATOM      2  C   UNL     1      32.705 -12.220 -22.652  0.00  0.00    +0.148 C 
ATOM      3  C   UNL     1      31.042 -10.982 -20.786  0.00  0.00    -0.008 C 
ATOM      4  C   UNL     1      32.503 -10.842 -22.705  0.00  0.00    +0.052 C 
ATOM      5  C   UNL     1      31.245 -12.362 -20.733  0.00  0.00    +0.000 C 
ATOM      6  C   UNL     1      32.077 -12.981 -21.666  0.00  0.00    +0.037 C 
ATOM      7  C   UNL     1      30.145 -10.346 -19.774  0.00  0.00    +0.032 C 
ENDROOT
BRANCH   1   9
ATOM      8  O   UNL     1      33.571  -8.043 -22.565  0.00  0.00    -0.268 OA
ATOM      9  N   UNL     1      31.481  -8.841 -21.841  0.00  0.00    -0.279 N 
ATOM     10  C   UNL     1      32.408  -7.862 -22.219  0.00  0.00    +0.265 C 
ATOM     11  H   UNL     1      30.586  -8.514 -21.591  0.00  0.00    +0.155 HD
BRANCH  10  14
ATOM     12  N   UNL     1      31.609  -5.774 -21.026  0.00  0.00    -0.206 N 
ATOM     13  N   UNL     1      31.180  -4.520 -21.248  0.00  0.00    -0.182 NA
ATOM     14  C   UNL     1      31.913  -6.461 -22.164  0.00  0.00    +0.124 C 
ATOM     15  C   UNL     1      31.665  -5.598 -23.203  0.00  0.00    +0.037 C 
ATOM     16  C   UNL     1      31.217  -4.417 -22.579  0.00  0.00    +0.078 C 
ATOM     17  C   UNL     1      31.705  -6.257 -19.668  0.00  0.00    +0.140 C 
ATOM     18  C   UNL     1      30.810  -3.160 -23.228  0.00  0.00    +0.054 C 
ENDBRANCH  10  14
ENDBRANCH   1   9
BRANCH   2  19
ATOM     19  O   UNL     1      33.536 -12.839 -23.583  0.00  0.00    -0.435 OA
BRANCH  19  27
ATOM     20  N   UNL     1      33.427 -18.136 -22.959  0.00  0.00    -0.373 NA
ATOM     21  N   UNL     1      34.029 -16.071 -22.366  0.00  0.00    -0.173 N 
ATOM     22  N   UNL     1      34.151 -14.715 -22.385  0.00  0.00    -0.138 NA
ATOM     23  C   UNL     1      34.188 -18.175 -21.818  0.00  0.00    +0.187 C 
ATOM     24  C   UNL     1      34.573 -16.914 -21.432  0.00  0.00    +0.193 C 
ATOM     25  C   UNL     1      33.342 -16.859 -23.274  0.00  0.00    +0.204 C 
ATOM     26  C   UNL     1      32.692 -16.197 -24.343  0.00  0.00    +0.054 C 
ATOM     27  C   UNL     1      33.535 -14.173 -23.385  0.00  0.00    +0.245 C 
ATOM     28  C   UNL     1      32.760 -14.863 -24.438  0.00  0.00    +0.063 C 
ATOM     29  O   UNL     1      35.807 -18.667 -19.329  0.00  0.00    -0.275 OA
ATOM     30  N   UNL     1      34.503 -19.349 -21.175  0.00  0.00    -0.261 N 
ATOM     31  C   UNL     1      35.269 -19.534 -20.005  0.00  0.00    +0.227 C 
ATOM     32  H   UNL     1      34.146 -20.168 -21.584  0.00  0.00    +0.157 HD
BRANCH  31  33
ATOM     33  C   UNL     1      35.412 -20.961 -19.576  0.00  0.00    +0.077 C 
ATOM     34  C   UNL     1      34.292 -21.610 -18.816  0.00  0.00    +0.010 C 
ATOM     35  C   UNL     1      35.576 -21.271 -18.117  0.00  0.00    +0.010 C 
ENDBRANCH  31  33
ENDBRANCH  19  27
ENDBRANCH   2  19
TORSDOF 5
ENDMDL
MODEL 5
REMARK VINA RESULT:     -11.2      1.906     11.099
REMARK  Name = 24767976
REMARK  5 active torsions:
REMARK  status: ('A' for Active; 'I' for Inactive)
REMARK    1  A    between atoms: C_1  and  N_9
REMARK    2  A    between atoms: C_2  and  O_19
REMARK    3  A    between atoms: C_10  and  C_14
REMARK    4  A    between atoms: O_19  and  C_27
REMARK    5  A    between atoms: C_31  and  C_33
REMARK                            x       y       z     vdW  Elec       q    Type
REMARK                         _______ _______ _______ _____ _____    ______ ____
ROOT
ATOM      1  C   UNL     1      33.453 -16.236 -23.086  0.00  0.00    +0.050 C 
ATOM      2  C   UNL     1      34.513 -18.175 -22.113  0.00  0.00    +0.148 C 
ATOM      3  C   UNL     1      32.836 -17.049 -24.036  0.00  0.00    -0.008 C 
ATOM      4  C   UNL     1      34.292 -16.799 -22.124  0.00  0.00    +0.052 C 
ATOM      5  C   UNL     1      33.057 -18.426 -24.024  0.00  0.00    +0.000 C 
ATOM      6  C   UNL     1      33.896 -18.989 -23.062  0.00  0.00    +0.037 C 
ATOM      7  C   UNL     1      31.933 -16.473 -25.078  0.00  0.00    +0.032 C 
ENDROOT
BRANCH   1   9
ATOM      8  O   UNL     1      33.049 -14.344 -20.795  0.00  0.00    -0.268 OA
ATOM      9  N   UNL     1      33.243 -14.854 -23.081  0.00  0.00    -0.279 N 
ATOM     10  C   UNL     1      33.059 -14.015 -21.976  0.00  0.00    +0.265 C 
ATOM     11  H   UNL     1      33.221 -14.417 -23.964  0.00  0.00    +0.155 HD
BRANCH  10  14
ATOM     12  N   UNL     1      31.951 -11.759 -21.653  0.00  0.00    -0.206 N 
ATOM     13  N   UNL     1      31.930 -10.505 -22.136  0.00  0.00    -0.182 NA
ATOM     14  C   UNL     1      32.828 -12.582 -22.297  0.00  0.00    +0.124 C 
ATOM     15  C   UNL     1      33.422 -11.813 -23.267  0.00  0.00    +0.037 C 
ATOM     16  C   UNL     1      32.831 -10.544 -23.121  0.00  0.00    +0.078 C 
ATOM     17  C   UNL     1      31.084 -12.106 -20.550  0.00  0.00    +0.140 C 
ATOM     18  C   UNL     1      33.103  -9.331 -23.912  0.00  0.00    +0.054 C 
ENDBRANCH  10  14
ENDBRANCH   1   9
BRANCH   2  19
ATOM     19  O   UNL     1      35.350 -18.738 -21.153  0.00  0.00    -0.435 OA
BRANCH  19  27
ATOM     20  N   UNL     1      32.345 -21.718 -17.906  0.00  0.00    -0.373 NA
ATOM     21  N   UNL     1      34.286 -20.868 -18.602  0.00  0.00    -0.173 N 
ATOM     22  N   UNL     1      35.185 -20.157 -19.338  0.00  0.00    -0.138 NA
ATOM     23  C   UNL     1      33.369 -22.164 -17.109  0.00  0.00    +0.187 C 
ATOM     24  C   UNL     1      34.577 -21.654 -17.518  0.00  0.00    +0.193 C 
ATOM     25  C   UNL     1      32.917 -20.938 -18.800  0.00  0.00    +0.204 C 
ATOM     26  C   UNL     1      32.382 -20.196 -19.880  0.00  0.00    +0.054 C 
ATOM     27  C   UNL     1      34.631 -19.503 -20.307  0.00  0.00    +0.245 C 
ATOM     28  C   UNL     1      33.195 -19.469 -20.655  0.00  0.00    +0.063 C 
ATOM     29  O   UNL     1      35.329 -23.346 -15.154  0.00  0.00    -0.275 OA
ATOM     30  N   UNL     1      33.169 -23.013 -16.046  0.00  0.00    -0.261 N 
ATOM     31  C   UNL     1      34.121 -23.545 -15.152  0.00  0.00    +0.227 C 
ATOM     32  H   UNL     1      32.237 -23.285 -15.888  0.00  0.00    +0.157 HD
BRANCH  31  33
ATOM     33  C   UNL     1      33.550 -24.443 -14.099  0.00  0.00    +0.077 C 
ATOM     34  C   UNL     1      32.460 -23.922 -13.209  0.00  0.00    +0.010 C 
ATOM     35  C   UNL     1      33.836 -24.149 -12.656  0.00  0.00    +0.010 C 
ENDBRANCH  31  33
ENDBRANCH  19  27
ENDBRANCH   2  19
TORSDOF 5
ENDMDL
MODEL 6
REMARK VINA RESULT:     -11.0      8.253     11.669
REMARK  Name = 24767976
REMARK  5 active torsions:
REMARK  status: ('A' for Active; 'I' for Inactive)
REMARK    1  A    between atoms: C_1  and  N_9
REMARK    2  A    between atoms: C_2  and  O_19
REMARK    3  A    between atoms: C_10  and  C_14
REMARK    4  A    between atoms: O_19  and  C_27
REMARK    5  A    between atoms: C_31  and  C_33
REMARK                            x       y       z     vdW  Elec       q    Type
REMARK                         _______ _______ _______ _____ _____    ______ ____
ROOT
ATOM      1  C   UNL     1      31.330 -11.246 -21.002  0.00  0.00    +0.050 C 
ATOM      2  C   UNL     1      30.679  -8.939 -20.710  0.00  0.00    +0.148 C 
ATOM      3  C   UNL     1      31.194 -11.459 -19.631  0.00  0.00    -0.008 C 
ATOM      4  C   UNL     1      31.072  -9.986 -21.542  0.00  0.00    +0.052 C 
ATOM      5  C   UNL     1      30.800 -10.411 -18.798  0.00  0.00    +0.000 C 
ATOM      6  C   UNL     1      30.542  -9.151 -19.338  0.00  0.00    +0.037 C 
ATOM      7  C   UNL     1      31.464 -12.799 -19.025  0.00  0.00    +0.032 C 
ENDROOT
BRANCH   1   9
ATOM      8  O   UNL     1      33.444 -11.316 -23.127  0.00  0.00    -0.268 OA
ATOM      9  N   UNL     1      31.722 -12.284 -21.852  0.00  0.00    -0.279 N 
ATOM     10  C   UNL     1      32.721 -12.262 -22.833  0.00  0.00    +0.265 C 
ATOM     11  H   UNL     1      31.235 -13.134 -21.750  0.00  0.00    +0.155 HD
BRANCH  10  14
ATOM     12  N   UNL     1      32.693 -13.664 -24.944  0.00  0.00    -0.206 N 
ATOM     13  N   UNL     1      32.907 -14.911 -25.396  0.00  0.00    -0.182 NA
ATOM     14  C   UNL     1      32.886 -13.524 -23.601  0.00  0.00    +0.124 C 
ATOM     15  C   UNL     1      33.252 -14.766 -23.143  0.00  0.00    +0.037 C 
ATOM     16  C   UNL     1      33.249 -15.580 -24.292  0.00  0.00    +0.078 C 
ATOM     17  C   UNL     1      32.296 -12.633 -25.875  0.00  0.00    +0.140 C 
ATOM     18  C   UNL     1      33.570 -17.014 -24.375  0.00  0.00    +0.054 C 
ENDBRANCH  10  14
ENDBRANCH   1   9
BRANCH   2  19
ATOM     19  O   UNL     1      30.421  -7.680 -21.248  0.00  0.00    -0.435 OA
BRANCH  19  27
ATOM     20  N   UNL     1      34.431  -6.329 -24.497  0.00  0.00    -0.373 NA
ATOM     21  N   UNL     1      32.302  -6.836 -24.063  0.00  0.00    -0.173 N 
ATOM     22  N   UNL     1      31.180  -7.179 -23.371  0.00  0.00    -0.138 NA
ATOM     23  C   UNL     1      33.692  -6.293 -25.652  0.00  0.00    +0.187 C 
ATOM     24  C   UNL     1      32.376  -6.604 -25.411  0.00  0.00    +0.193 C 
ATOM     25  C   UNL     1      33.576  -6.658 -23.549  0.00  0.00    +0.204 C 
ATOM     26  C   UNL     1      33.744  -6.849 -22.157  0.00  0.00    +0.054 C 
ATOM     27  C   UNL     1      31.403  -7.339 -22.106  0.00  0.00    +0.245 C 
ATOM     28  C   UNL     1      32.693  -7.188 -21.401  0.00  0.00    +0.063 C 
ATOM     29  O   UNL     1      32.420  -6.113 -28.374  0.00  0.00    -0.275 OA
ATOM     30  N   UNL     1      34.238  -5.983 -26.875  0.00  0.00    -0.261 N 
ATOM     31  C   UNL     1      33.602  -5.911 -28.131  0.00  0.00    +0.227 C 
ATOM     32  H   UNL     1      35.202  -5.785 -26.873  0.00  0.00    +0.157 HD
BRANCH  31  33
ATOM     33  C   UNL     1      34.506  -5.539 -29.265  0.00  0.00    +0.077 C 
ATOM     34  C   UNL     1      35.238  -6.623 -30.000  0.00  0.00    +0.010 C 
ATOM     35  C   UNL     1      35.989  -5.692 -29.095  0.00  0.00    +0.010 C 
ENDBRANCH  31  33
ENDBRANCH  19  27
ENDBRANCH   2  19
TORSDOF 5
ENDMDL
MODEL 7
REMARK VINA RESULT:     -10.8      4.911      9.959
REMARK  Name = 24767976
REMARK  5 active torsions:
REMARK  status: ('A' for Active; 'I' for Inactive)
REMARK    1  A    between atoms: C_1  and  N_9
REMARK    2  A    between atoms: C_2  and  O_19
REMARK    3  A    between atoms: C_10  and  C_14
REMARK    4  A    between atoms: O_19  and  C_27
REMARK    5  A    between atoms: C_31  and  C_33
REMARK                            x       y       z     vdW  Elec       q    Type
REMARK                         _______ _______ _______ _____ _____    ______ ____
ROOT
ATOM      1  C   UNL     1      32.733 -13.370 -21.791  0.00  0.00    +0.050 C 
ATOM      2  C   UNL     1      32.899 -11.355 -23.111  0.00  0.00    +0.148 C 
ATOM      3  C   UNL     1      31.874 -12.720 -20.906  0.00  0.00    -0.008 C 
ATOM      4  C   UNL     1      33.246 -12.688 -22.894  0.00  0.00    +0.052 C 
ATOM      5  C   UNL     1      31.526 -11.387 -21.124  0.00  0.00    +0.000 C 
ATOM      6  C   UNL     1      32.039 -10.704 -22.227  0.00  0.00    +0.037 C 
ATOM      7  C   UNL     1      31.310 -13.427 -19.716  0.00  0.00    +0.032 C 
ENDROOT
BRANCH   1   9
ATOM      8  O   UNL     1      34.719 -15.084 -23.244  0.00  0.00    -0.268 OA
ATOM      9  N   UNL     1      33.092 -14.706 -21.590  0.00  0.00    -0.279 N 
ATOM     10  C   UNL     1      34.030 -15.461 -22.302  0.00  0.00    +0.265 C 
ATOM     11  H   UNL     1      32.627 -15.173 -20.858  0.00  0.00    +0.155 HD
BRANCH  10  14
ATOM     12  N   UNL     1      33.835 -17.970 -22.609  0.00  0.00    -0.206 N 
ATOM     13  N   UNL     1      34.059 -19.139 -21.986  0.00  0.00    -0.182 NA
ATOM     14  C   UNL     1      34.171 -16.876 -21.867  0.00  0.00    +0.124 C 
ATOM     15  C   UNL     1      34.648 -17.363 -20.674  0.00  0.00    +0.037 C 
ATOM     16  C   UNL     1      34.556 -18.762 -20.805  0.00  0.00    +0.078 C 
ATOM     17  C   UNL     1      33.284 -17.976 -23.945  0.00  0.00    +0.140 C 
ATOM     18  C   UNL     1      34.937 -19.782 -19.813  0.00  0.00    +0.054 C 
ENDBRANCH  10  14
ENDBRANCH   1   9
BRANCH   2  19
ATOM     19  O   UNL     1      33.411 -10.673 -24.213  0.00  0.00    -0.435 OA
BRANCH  19  27
ATOM     20  N   UNL     1      33.000  -5.412 -23.431  0.00  0.00    -0.373 NA
ATOM     21  N   UNL     1      32.277  -7.373 -24.210  0.00  0.00    -0.173 N 
ATOM     22  N   UNL     1      32.234  -8.705 -24.490  0.00  0.00    -0.138 NA
ATOM     23  C   UNL     1      31.797  -5.251 -24.070  0.00  0.00    +0.187 C 
ATOM     24  C   UNL     1      31.330  -6.447 -24.560  0.00  0.00    +0.193 C 
ATOM     25  C   UNL     1      33.274  -6.698 -23.525  0.00  0.00    +0.204 C 
ATOM     26  C   UNL     1      34.371  -7.461 -23.061  0.00  0.00    +0.054 C 
ATOM     27  C   UNL     1      33.264  -9.344 -24.038  0.00  0.00    +0.245 C 
ATOM     28  C   UNL     1      34.409  -8.779 -23.292  0.00  0.00    +0.063 C 
ATOM     29  O   UNL     1      29.191  -4.503 -25.378  0.00  0.00    -0.275 OA
ATOM     30  N   UNL     1      31.173  -4.032 -24.184  0.00  0.00    -0.261 N 
ATOM     31  C   UNL     1      29.946  -3.725 -24.809  0.00  0.00    +0.227 C 
ATOM     32  H   UNL     1      31.644  -3.272 -23.776  0.00  0.00    +0.157 HD
BRANCH  31  33
ATOM     33  C   UNL     1      29.560  -2.280 -24.744  0.00  0.00    +0.077 C 
ATOM     34  C   UNL     1      28.782  -1.786 -23.560  0.00  0.00    +0.010 C 
ATOM     35  C   UNL     1      28.116  -1.904 -24.899  0.00  0.00    +0.010 C 
ENDBRANCH  31  33
ENDBRANCH  19  27
ENDBRANCH   2  19
TORSDOF 5
ENDMDL
MODEL 8
REMARK VINA RESULT:     -10.6      4.704     13.925
REMARK  Name = 24767976
REMARK  5 active torsions:
REMARK  status: ('A' for Active; 'I' for Inactive)
REMARK    1  A    between atoms: C_1  and  N_9
REMARK    2  A    between atoms: C_2  and  O_19
REMARK    3  A    between atoms: C_10  and  C_14
REMARK    4  A    between atoms: O_19  and  C_27
REMARK    5  A    between atoms: C_31  and  C_33
REMARK                            x       y       z     vdW  Elec       q    Type
REMARK                         _______ _______ _______ _____ _____    ______ ____
ROOT
ATOM      1  C   UNL     1      31.633  -8.466 -22.451  0.00  0.00    +0.050 C 
ATOM      2  C   UNL     1      32.645 -10.412 -23.461  0.00  0.00    +0.148 C 
ATOM      3  C   UNL     1      31.303  -9.220 -21.326  0.00  0.00    -0.008 C 
ATOM      4  C   UNL     1      32.304  -9.062 -23.519  0.00  0.00    +0.052 C 
ATOM      5  C   UNL     1      31.644 -10.572 -21.268  0.00  0.00    +0.000 C 
ATOM      6  C   UNL     1      32.315 -11.168 -22.336  0.00  0.00    +0.037 C 
ATOM      7  C   UNL     1      30.583  -8.608 -20.168  0.00  0.00    +0.032 C 
ENDROOT
BRANCH   1   9
ATOM      8  O   UNL     1      33.389  -6.053 -22.740  0.00  0.00    -0.268 OA
ATOM      9  N   UNL     1      31.301  -7.110 -22.528  0.00  0.00    -0.279 N 
ATOM     10  C   UNL     1      32.166  -6.019 -22.663  0.00  0.00    +0.265 C 
ATOM     11  H   UNL     1      30.340  -6.898 -22.479  0.00  0.00    +0.155 HD
BRANCH  10  14
ATOM     12  N   UNL     1      31.643  -3.754 -23.675  0.00  0.00    -0.206 N 
ATOM     13  N   UNL     1      30.944  -2.628 -23.458  0.00  0.00    -0.182 NA
ATOM     14  C   UNL     1      31.509  -4.685 -22.687  0.00  0.00    +0.124 C 
ATOM     15  C   UNL     1      30.663  -4.128 -21.759  0.00  0.00    +0.037 C 
ATOM     16  C   UNL     1      30.347  -2.862 -22.287  0.00  0.00    +0.078 C 
ATOM     17  C   UNL     1      32.436  -3.873 -24.877  0.00  0.00    +0.140 C 
ATOM     18  C   UNL     1      29.469  -1.838 -21.695  0.00  0.00    +0.054 C 
ENDBRANCH  10  14
ENDBRANCH   1   9
BRANCH   2  19
ATOM     19  O   UNL     1      33.315 -11.008 -24.527  0.00  0.00    -0.435 OA
BRANCH  19  27
ATOM     20  N   UNL     1      32.829 -16.318 -24.356  0.00  0.00    -0.373 NA
ATOM     21  N   UNL     1      33.475 -14.348 -23.531  0.00  0.00    -0.173 N 
ATOM     22  N   UNL     1      33.676 -13.005 -23.425  0.00  0.00    -0.138 NA
ATOM     23  C   UNL     1      33.447 -16.493 -23.144  0.00  0.00    +0.187 C 
ATOM     24  C   UNL     1      33.855 -15.293 -22.615  0.00  0.00    +0.193 C 
ATOM     25  C   UNL     1      32.856 -15.018 -24.573  0.00  0.00    +0.204 C 
ATOM     26  C   UNL     1      32.375 -14.236 -25.650  0.00  0.00    +0.054 C 
ATOM     27  C   UNL     1      33.214 -12.350 -24.440  0.00  0.00    +0.245 C 
ATOM     28  C   UNL     1      32.531 -12.906 -25.627  0.00  0.00    +0.063 C 
ATOM     29  O   UNL     1      34.731 -17.277 -20.537  0.00  0.00    -0.275 OA
ATOM     30  N   UNL     1      33.616 -17.730 -22.567  0.00  0.00    -0.261 N 
ATOM     31  C   UNL     1      34.227 -18.053 -21.338  0.00  0.00    +0.227 C 
ATOM     32  H   UNL     1      33.264 -18.491 -23.081  0.00  0.00    +0.157 HD
BRANCH  31  33
ATOM     33  C   UNL     1      34.237 -19.515 -21.014  0.00  0.00    +0.077 C 
ATOM     34  C   UNL     1      33.343 -20.025 -19.922  0.00  0.00    +0.010 C 
ATOM     35  C   UNL     1      34.827 -19.969 -19.712  0.00  0.00    +0.010 C 
ENDBRANCH  31  33
ENDBRANCH  19  27
ENDBRANCH   2  19
TORSDOF 5
ENDMDL
MODEL 9
REMARK VINA RESULT:     -10.5      2.277      4.274
REMARK  Name = 24767976
REMARK  5 active torsions:
REMARK  status: ('A' for Active; 'I' for Inactive)
REMARK    1  A    between atoms: C_1  and  N_9
REMARK    2  A    between atoms: C_2  and  O_19
REMARK    3  A    between atoms: C_10  and  C_14
REMARK    4  A    between atoms: O_19  and  C_27
REMARK    5  A    between atoms: C_31  and  C_33
REMARK                            x       y       z     vdW  Elec       q    Type
REMARK                         _______ _______ _______ _____ _____    ______ ____
ROOT
ATOM      1  C   UNL     1      33.344 -23.594 -14.729  0.00  0.00    +0.050 C 
ATOM      2  C   UNL     1      31.973 -22.994 -16.624  0.00  0.00    +0.148 C 
ATOM      3  C   UNL     1      32.358 -23.120 -13.865  0.00  0.00    -0.008 C 
ATOM      4  C   UNL     1      33.152 -23.531 -16.109  0.00  0.00    +0.052 C 
ATOM      5  C   UNL     1      31.178 -22.582 -14.381  0.00  0.00    +0.000 C 
ATOM      6  C   UNL     1      30.986 -22.519 -15.761  0.00  0.00    +0.037 C 
ATOM      7  C   UNL     1      32.537 -23.175 -12.382  0.00  0.00    +0.032 C 
ENDROOT
BRANCH   1   9
ATOM      8  O   UNL     1      35.987 -22.292 -14.171  0.00  0.00    -0.268 OA
ATOM      9  N   UNL     1      34.532 -24.138 -14.231  0.00  0.00    -0.279 N 
ATOM     10  C   UNL     1      35.743 -23.481 -13.989  0.00  0.00    +0.265 C 
ATOM     11  H   UNL     1      34.514 -25.101 -14.027  0.00  0.00    +0.155 HD
BRANCH  10  14
ATOM     12  N   UNL     1      36.871 -24.954 -12.262  0.00  0.00    -0.206 N 
ATOM     13  N   UNL     1      37.982 -25.678 -12.044  0.00  0.00    -0.182 NA
ATOM     14  C   UNL     1      36.844 -24.342 -13.481  0.00  0.00    +0.124 C 
ATOM     15  C   UNL     1      38.018 -24.690 -14.103  0.00  0.00    +0.037 C 
ATOM     16  C   UNL     1      38.679 -25.513 -13.171  0.00  0.00    +0.078 C 
ATOM     17  C   UNL     1      35.856 -24.891 -11.236  0.00  0.00    +0.140 C 
ATOM     18  C   UNL     1      39.989 -26.168 -13.324  0.00  0.00    +0.054 C 
ENDBRANCH  10  14
ENDBRANCH   1   9
BRANCH   2  19
ATOM     19  O   UNL     1      31.781 -22.930 -18.002  0.00  0.00    -0.435 OA
BRANCH  19  27
ATOM     20  N   UNL     1      35.111 -19.270 -19.994  0.00  0.00    -0.373 NA
ATOM     21  N   UNL     1      33.153 -20.332 -19.884  0.00  0.00    -0.173 N 
ATOM     22  N   UNL     1      32.189 -21.208 -19.486  0.00  0.00    -0.138 NA
ATOM     23  C   UNL     1      34.239 -18.748 -20.915  0.00  0.00    +0.187 C 
ATOM     24  C   UNL     1      33.024 -19.387 -20.867  0.00  0.00    +0.193 C 
ATOM     25  C   UNL     1      34.439 -20.224 -19.382  0.00  0.00    +0.204 C 
ATOM     26  C   UNL     1      34.805 -21.114 -18.344  0.00  0.00    +0.054 C 
ATOM     27  C   UNL     1      32.587 -21.991 -18.536  0.00  0.00    +0.245 C 
ATOM     28  C   UNL     1      33.917 -22.008 -17.891  0.00  0.00    +0.063 C 
ATOM     29  O   UNL     1      32.628 -17.349 -23.038  0.00  0.00    -0.275 OA
ATOM     30  N   UNL     1      34.578 -17.717 -21.760  0.00  0.00    -0.261 N 
ATOM     31  C   UNL     1      33.787 -17.090 -22.744  0.00  0.00    +0.227 C 
ATOM     32  H   UNL     1      35.493 -17.372 -21.664  0.00  0.00    +0.157 HD
BRANCH  31  33
ATOM     33  C   UNL     1      34.479 -15.989 -23.487  0.00  0.00    +0.077 C 
ATOM     34  C   UNL     1      34.111 -14.565 -23.189  0.00  0.00    +0.010 C 
ATOM     35  C   UNL     1      33.704 -15.188 -24.492  0.00  0.00    +0.010 C 
ENDBRANCH  31  33
ENDBRANCH  19  27
ENDBRANCH   2  19
TORSDOF 5
ENDMDL
