MODEL 1
REMARK VINA RESULT:     -11.6      0.000      0.000
REMARK  Name = 16720766
REMARK  7 active torsions:
REMARK  status: ('A' for Active; 'I' for Inactive)
REMARK    1  A    between atoms: N_1  and  C_10
REMARK    2  A    between atoms: C_11  and  C_17
REMARK    3  A    between atoms: C_13  and  O_15
REMARK    4  A    between atoms: C_17  and  O_18
REMARK    5  A    between atoms: O_18  and  S_19
REMARK    6  A    between atoms: S_19  and  N_22
REMARK    7  A    between atoms: N_25  and  C_27
REMARK                            x       y       z     vdW  Elec       q    Type
REMARK                         _______ _______ _______ _____ _____    ______ ____
ROOT
ATOM      1  N   UNL     1      33.155 -21.431 -18.480  0.00  0.00    -0.276 N 
ATOM      2  N   UNL     1      35.414 -20.636 -18.763  0.00  0.00    -0.233 NA
ATOM      3  N   UNL     1      35.587 -18.820 -20.374  0.00  0.00    -0.233 NA
ATOM      4  C   UNL     1      34.098 -20.612 -19.039  0.00  0.00    +0.120 C 
ATOM      5  C   UNL     1      31.921 -21.127 -18.995  0.00  0.00    +0.062 C 
ATOM      6  C   UNL     1      33.454 -19.764 -19.933  0.00  0.00    +0.131 C 
ATOM      7  C   UNL     1      32.076 -20.097 -19.898  0.00  0.00    +0.004 C 
ATOM      8  C   UNL     1      34.246 -18.832 -20.623  0.00  0.00    +0.113 C 
ATOM      9  C   UNL     1      36.077 -19.706 -19.477  0.00  0.00    +0.252 C 
ATOM     10  N   UNL     1      33.691 -17.946 -21.533  0.00  0.00    -0.319 N 
ATOM     11  H   UNL     1      32.719 -17.985 -21.685  0.00  0.00    +0.148 HD
ENDROOT
BRANCH  10  12
ATOM     12  C   UNL     1      34.456 -16.969 -22.270  0.00  0.00    +0.093 C 
ATOM     13  C   UNL     1      34.316 -17.190 -23.787  0.00  0.00    +0.029 C 
ATOM     14  C   UNL     1      33.857 -15.603 -22.118  0.00  0.00    -0.008 C 
ATOM     15  C   UNL     1      33.100 -16.368 -24.249  0.00  0.00    +0.028 C 
ATOM     16  C   UNL     1      33.096 -15.261 -23.243  0.00  0.00    -0.025 C 
ATOM     17  C   UNL     1      33.964 -14.740 -21.040  0.00  0.00    -0.003 C 
ATOM     18  C   UNL     1      32.422 -14.053 -23.309  0.00  0.00    -0.005 C 
ATOM     19  C   UNL     1      33.298 -13.514 -21.103  0.00  0.00    -0.000 C 
ATOM     20  C   UNL     1      32.531 -13.174 -22.230  0.00  0.00    -0.000 C 
ENDBRANCH  10  12
BRANCH   1  21
ATOM     21  C   UNL     1      33.410 -22.473 -17.488  0.00  0.00    +0.081 C 
ATOM     22  C   UNL     1      32.343 -22.687 -15.298  0.00  0.00    +0.061 C 
ATOM     23  C   UNL     1      32.146 -23.011 -16.784  0.00  0.00    +0.025 C 
ATOM     24  C   UNL     1      33.861 -22.739 -15.119  0.00  0.00    +0.115 C 
ATOM     25  C   UNL     1      34.373 -22.028 -16.368  0.00  0.00    +0.049 C 
BRANCH  24  26
ATOM     26  O   UNL     1      34.326 -24.083 -15.104  0.00  0.00    -0.384 OA
ATOM     27  H   UNL     1      35.220 -24.119 -15.480  0.00  0.00    +0.210 HD
ENDBRANCH  24  26
BRANCH  22  28
ATOM     28  C   UNL     1      31.566 -23.625 -14.387  0.00  0.00    +0.176 C 
BRANCH  28  29
ATOM     29  O   UNL     1      30.359 -23.992 -15.033  0.00  0.00    -0.230 OA
BRANCH  29  30
ATOM     30  S   UNL     1      28.972 -23.198 -14.682  0.00  0.00    +0.045 S 
ATOM     31  O   UNL     1      27.910 -24.175 -14.517  0.00  0.00    -0.056 OA
ATOM     32  O   UNL     1      29.267 -22.260 -13.614  0.00  0.00    -0.056 OA
BRANCH  30  33
ATOM     33  N   UNL     1      28.642 -22.288 -16.097  0.00  0.00    -0.204 NA
ATOM     34  H   UNL     1      27.893 -22.738 -16.624  0.00  0.00    +0.144 HD
ATOM     35  H   UNL     1      29.481 -22.241 -16.674  0.00  0.00    +0.144 HD
ENDBRANCH  30  33
ENDBRANCH  29  30
ENDBRANCH  28  29
ENDBRANCH  22  28
ENDBRANCH   1  21
TORSDOF 7
ENDMDL
MODEL 2
REMARK VINA RESULT:     -11.0      2.117      2.548
REMARK  Name = 16720766
REMARK  7 active torsions:
REMARK  status: ('A' for Active; 'I' for Inactive)
REMARK    1  A    between atoms: N_1  and  C_10
REMARK    2  A    between atoms: C_11  and  C_17
REMARK    3  A    between atoms: C_13  and  O_15
REMARK    4  A    between atoms: C_17  and  O_18
REMARK    5  A    between atoms: O_18  and  S_19
REMARK    6  A    between atoms: S_19  and  N_22
REMARK    7  A    between atoms: N_25  and  C_27
REMARK                            x       y       z     vdW  Elec       q    Type
REMARK                         _______ _______ _______ _____ _____    ______ ____
ROOT
ATOM      1  N   UNL     1      33.829 -21.063 -18.768  0.00  0.00    -0.276 N 
ATOM      2  N   UNL     1      35.962 -20.056 -19.263  0.00  0.00    -0.233 NA
ATOM      3  N   UNL     1      35.808 -18.262 -20.901  0.00  0.00    -0.233 NA
ATOM      4  C   UNL     1      34.631 -20.166 -19.419  0.00  0.00    +0.120 C 
ATOM      5  C   UNL     1      32.529 -20.892 -19.171  0.00  0.00    +0.062 C 
ATOM      6  C   UNL     1      33.828 -19.402 -20.258  0.00  0.00    +0.131 C 
ATOM      7  C   UNL     1      32.499 -19.868 -20.094  0.00  0.00    +0.004 C 
ATOM      8  C   UNL     1      34.459 -18.410 -21.027  0.00  0.00    +0.113 C 
ATOM      9  C   UNL     1      36.463 -19.078 -20.044  0.00  0.00    +0.252 C 
ATOM     10  N   UNL     1      33.739 -17.599 -21.890  0.00  0.00    -0.319 N 
ATOM     11  H   UNL     1      32.766 -17.736 -21.953  0.00  0.00    +0.148 HD
ENDROOT
BRANCH  10  12
ATOM     12  C   UNL     1      34.333 -16.566 -22.703  0.00  0.00    +0.093 C 
ATOM     13  C   UNL     1      33.965 -16.752 -24.187  0.00  0.00    +0.029 C 
ATOM     14  C   UNL     1      33.706 -15.236 -22.412  0.00  0.00    -0.008 C 
ATOM     15  C   UNL     1      32.657 -15.979 -24.424  0.00  0.00    +0.028 C 
ATOM     16  C   UNL     1      32.762 -14.901 -23.392  0.00  0.00    -0.025 C 
ATOM     17  C   UNL     1      33.943 -14.398 -21.335  0.00  0.00    -0.003 C 
ATOM     18  C   UNL     1      32.033 -13.727 -23.309  0.00  0.00    -0.005 C 
ATOM     19  C   UNL     1      33.221 -13.206 -21.250  0.00  0.00    -0.000 C 
ATOM     20  C   UNL     1      32.271 -12.874 -22.230  0.00  0.00    -0.000 C 
ENDBRANCH  10  12
BRANCH   1  21
ATOM     21  C   UNL     1      34.274 -22.056 -17.793  0.00  0.00    +0.081 C 
ATOM     22  C   UNL     1      33.351 -22.415 -15.557  0.00  0.00    +0.061 C 
ATOM     23  C   UNL     1      33.133 -22.766 -17.034  0.00  0.00    +0.025 C 
ATOM     24  C   UNL     1      34.868 -22.250 -15.449  0.00  0.00    +0.115 C 
ATOM     25  C   UNL     1      35.215 -21.477 -16.717  0.00  0.00    +0.049 C 
BRANCH  24  26
ATOM     26  O   UNL     1      35.518 -23.515 -15.462  0.00  0.00    -0.384 OA
ATOM     27  H   UNL     1      35.491 -23.901 -14.572  0.00  0.00    +0.210 HD
ENDBRANCH  24  26
BRANCH  22  28
ATOM     28  C   UNL     1      32.757 -23.451 -14.615  0.00  0.00    +0.176 C 
BRANCH  28  29
ATOM     29  O   UNL     1      33.041 -23.069 -13.280  0.00  0.00    -0.230 OA
BRANCH  29  30
ATOM     30  S   UNL     1      34.163 -23.891 -12.417  0.00  0.00    +0.045 S 
ATOM     31  O   UNL     1      35.363 -23.078 -12.329  0.00  0.00    -0.056 OA
ATOM     32  O   UNL     1      33.517 -24.366 -11.207  0.00  0.00    -0.056 OA
BRANCH  30  33
ATOM     33  N   UNL     1      34.516 -25.258 -13.389  0.00  0.00    -0.204 NA
ATOM     34  H   UNL     1      34.921 -25.993 -12.808  0.00  0.00    +0.144 HD
ATOM     35  H   UNL     1      35.181 -24.996 -14.116  0.00  0.00    +0.144 HD
ENDBRANCH  30  33
ENDBRANCH  29  30
ENDBRANCH  28  29
ENDBRANCH  22  28
ENDBRANCH   1  21
TORSDOF 7
ENDMDL
MODEL 3
REMARK VINA RESULT:     -10.7      8.540     12.112
REMARK  Name = 16720766
REMARK  7 active torsions:
REMARK  status: ('A' for Active; 'I' for Inactive)
REMARK    1  A    between atoms: N_1  and  C_10
REMARK    2  A    between atoms: C_11  and  C_17
REMARK    3  A    between atoms: C_13  and  O_15
REMARK    4  A    between atoms: C_17  and  O_18
REMARK    5  A    between atoms: O_18  and  S_19
REMARK    6  A    between atoms: S_19  and  N_22
REMARK    7  A    between atoms: N_25  and  C_27
REMARK                            x       y       z     vdW  Elec       q    Type
REMARK                         _______ _______ _______ _____ _____    ______ ____
ROOT
ATOM      1  N   UNL     1      32.772 -12.547 -22.235  0.00  0.00    -0.276 N 
ATOM      2  N   UNL     1      32.926 -13.952 -24.189  0.00  0.00    -0.233 NA
ATOM      3  N   UNL     1      33.631 -16.224 -23.672  0.00  0.00    -0.233 NA
ATOM      4  C   UNL     1      33.029 -13.735 -22.866  0.00  0.00    +0.120 C 
ATOM      5  C   UNL     1      32.981 -12.690 -20.887  0.00  0.00    +0.062 C 
ATOM      6  C   UNL     1      33.411 -14.659 -21.901  0.00  0.00    +0.131 C 
ATOM      7  C   UNL     1      33.377 -13.990 -20.651  0.00  0.00    +0.004 C 
ATOM      8  C   UNL     1      33.722 -15.957 -22.338  0.00  0.00    +0.113 C 
ATOM      9  C   UNL     1      33.247 -15.225 -24.498  0.00  0.00    +0.252 C 
ATOM     10  N   UNL     1      34.111 -16.946 -21.447  0.00  0.00    -0.319 N 
ATOM     11  H   UNL     1      34.163 -16.715 -20.491  0.00  0.00    +0.148 HD
ENDROOT
BRANCH  10  12
ATOM     12  C   UNL     1      34.442 -18.294 -21.840  0.00  0.00    +0.093 C 
ATOM     13  C   UNL     1      35.968 -18.505 -21.854  0.00  0.00    +0.029 C 
ATOM     14  C   UNL     1      34.023 -19.271 -20.784  0.00  0.00    -0.008 C 
ATOM     15  C   UNL     1      36.367 -18.975 -20.444  0.00  0.00    +0.028 C 
ATOM     16  C   UNL     1      35.115 -19.663 -19.999  0.00  0.00    -0.025 C 
ATOM     17  C   UNL     1      32.750 -19.757 -20.527  0.00  0.00    -0.003 C 
ATOM     18  C   UNL     1      34.956 -20.539 -18.939  0.00  0.00    -0.005 C 
ATOM     19  C   UNL     1      32.583 -20.650 -19.468  0.00  0.00    -0.000 C 
ATOM     20  C   UNL     1      33.678 -21.038 -18.679  0.00  0.00    -0.000 C 
ENDBRANCH  10  12
BRANCH   1  21
ATOM     21  C   UNL     1      32.344 -11.311 -22.886  0.00  0.00    +0.081 C 
ATOM     22  C   UNL     1      33.709  -9.316 -23.259  0.00  0.00    +0.061 C 
ATOM     23  C   UNL     1      33.387 -10.697 -23.844  0.00  0.00    +0.025 C 
ATOM     24  C   UNL     1      32.406  -8.906 -22.571  0.00  0.00    +0.115 C 
ATOM     25  C   UNL     1      31.962 -10.197 -21.890  0.00  0.00    +0.049 C 
BRANCH  24  26
ATOM     26  O   UNL     1      31.431  -8.506 -23.527  0.00  0.00    -0.384 OA
ATOM     27  H   UNL     1      30.663  -9.096 -23.471  0.00  0.00    +0.210 HD
ENDBRANCH  24  26
BRANCH  22  28
ATOM     28  C   UNL     1      34.206  -8.336 -24.310  0.00  0.00    +0.176 C 
BRANCH  28  29
ATOM     29  O   UNL     1      34.130  -7.023 -23.782  0.00  0.00    -0.230 OA
BRANCH  29  30
ATOM     30  S   UNL     1      33.274  -5.875 -24.573  0.00  0.00    +0.045 S 
ATOM     31  O   UNL     1      34.167  -4.777 -24.899  0.00  0.00    -0.056 OA
ATOM     32  O   UNL     1      32.526  -6.539 -25.625  0.00  0.00    -0.056 OA
BRANCH  30  33
ATOM     33  N   UNL     1      32.147  -5.317 -23.408  0.00  0.00    -0.204 NA
ATOM     34  H   UNL     1      32.561  -5.381 -22.477  0.00  0.00    +0.144 HD
ATOM     35  H   UNL     1      31.306  -5.892 -23.446  0.00  0.00    +0.144 HD
ENDBRANCH  30  33
ENDBRANCH  29  30
ENDBRANCH  28  29
ENDBRANCH  22  28
ENDBRANCH   1  21
TORSDOF 7
ENDMDL
MODEL 4
REMARK VINA RESULT:      -9.7      5.428     10.152
REMARK  Name = 16720766
REMARK  7 active torsions:
REMARK  status: ('A' for Active; 'I' for Inactive)
REMARK    1  A    between atoms: N_1  and  C_10
REMARK    2  A    between atoms: C_11  and  C_17
REMARK    3  A    between atoms: C_13  and  O_15
REMARK    4  A    between atoms: C_17  and  O_18
REMARK    5  A    between atoms: O_18  and  S_19
REMARK    6  A    between atoms: S_19  and  N_22
REMARK    7  A    between atoms: N_25  and  C_27
REMARK                            x       y       z     vdW  Elec       q    Type
REMARK                         _______ _______ _______ _____ _____    ______ ____
ROOT
ATOM      1  N   UNL     1      35.021 -20.543 -19.148  0.00  0.00    -0.276 N 
ATOM      2  N   UNL     1      33.065 -21.869 -18.670  0.00  0.00    -0.233 NA
ATOM      3  N   UNL     1      33.171 -22.970 -16.502  0.00  0.00    -0.233 NA
ATOM      4  C   UNL     1      34.275 -21.374 -18.356  0.00  0.00    +0.120 C 
ATOM      5  C   UNL     1      36.198 -20.240 -18.512  0.00  0.00    +0.062 C 
ATOM      6  C   UNL     1      34.990 -21.609 -17.187  0.00  0.00    +0.131 C 
ATOM      7  C   UNL     1      36.205 -20.886 -17.294  0.00  0.00    +0.004 C 
ATOM      8  C   UNL     1      34.398 -22.446 -16.227  0.00  0.00    +0.113 C 
ATOM      9  C   UNL     1      32.592 -22.656 -17.683  0.00  0.00    +0.252 C 
ATOM     10  N   UNL     1      35.036 -22.735 -15.030  0.00  0.00    -0.319 N 
ATOM     11  H   UNL     1      35.922 -22.336 -14.868  0.00  0.00    +0.148 HD
ENDROOT
BRANCH  10  12
ATOM     12  C   UNL     1      34.477 -23.587 -14.010  0.00  0.00    +0.093 C 
ATOM     13  C   UNL     1      34.376 -25.043 -14.501  0.00  0.00    +0.029 C 
ATOM     14  C   UNL     1      35.429 -23.733 -12.861  0.00  0.00    -0.008 C 
ATOM     15  C   UNL     1      35.704 -25.731 -14.138  0.00  0.00    +0.028 C 
ATOM     16  C   UNL     1      36.117 -24.950 -12.930  0.00  0.00    -0.025 C 
ATOM     17  C   UNL     1      35.679 -22.829 -11.841  0.00  0.00    -0.003 C 
ATOM     18  C   UNL     1      37.075 -25.284 -11.988  0.00  0.00    -0.005 C 
ATOM     19  C   UNL     1      36.634 -23.164 -10.879  0.00  0.00    -0.000 C 
ATOM     20  C   UNL     1      37.328 -24.383 -10.952  0.00  0.00    -0.000 C 
ENDBRANCH  10  12
BRANCH   1  21
ATOM     21  C   UNL     1      34.636 -20.049 -20.468  0.00  0.00    +0.081 C 
ATOM     22  C   UNL     1      34.268 -17.714 -21.096  0.00  0.00    +0.061 C 
ATOM     23  C   UNL     1      35.370 -18.765 -20.910  0.00  0.00    +0.025 C 
ATOM     24  C   UNL     1      33.053 -18.541 -21.519  0.00  0.00    +0.115 C 
ATOM     25  C   UNL     1      33.128 -19.751 -20.592  0.00  0.00    +0.049 C 
BRANCH  24  26
ATOM     26  O   UNL     1      33.171 -18.962 -22.872  0.00  0.00    -0.384 OA
ATOM     27  H   UNL     1      32.542 -18.466 -23.420  0.00  0.00    +0.210 HD
ENDBRANCH  24  26
BRANCH  22  28
ATOM     28  C   UNL     1      34.663 -16.620 -22.076  0.00  0.00    +0.176 C 
BRANCH  28  29
ATOM     29  O   UNL     1      33.492 -15.935 -22.490  0.00  0.00    -0.230 OA
BRANCH  29  30
ATOM     30  S   UNL     1      33.264 -15.596 -24.075  0.00  0.00    +0.045 S 
ATOM     31  O   UNL     1      32.842 -14.212 -24.194  0.00  0.00    -0.056 OA
ATOM     32  O   UNL     1      34.438 -16.061 -24.792  0.00  0.00    -0.056 OA
BRANCH  30  33
ATOM     33  N   UNL     1      31.947 -16.595 -24.530  0.00  0.00    -0.204 NA
ATOM     34  H   UNL     1      31.224 -16.551 -23.812  0.00  0.00    +0.144 HD
ATOM     35  H   UNL     1      32.270 -17.557 -24.629  0.00  0.00    +0.144 HD
ENDBRANCH  30  33
ENDBRANCH  29  30
ENDBRANCH  28  29
ENDBRANCH  22  28
ENDBRANCH   1  21
TORSDOF 7
ENDMDL
MODEL 5
REMARK VINA RESULT:      -9.7      7.155     10.749
REMARK  Name = 16720766
REMARK  7 active torsions:
REMARK  status: ('A' for Active; 'I' for Inactive)
REMARK    1  A    between atoms: N_1  and  C_10
REMARK    2  A    between atoms: C_11  and  C_17
REMARK    3  A    between atoms: C_13  and  O_15
REMARK    4  A    between atoms: C_17  and  O_18
REMARK    5  A    between atoms: O_18  and  S_19
REMARK    6  A    between atoms: S_19  and  N_22
REMARK    7  A    between atoms: N_25  and  C_27
REMARK                            x       y       z     vdW  Elec       q    Type
REMARK                         _______ _______ _______ _____ _____    ______ ____
ROOT
ATOM      1  N   UNL     1      33.898 -15.487 -21.916  0.00  0.00    -0.276 N 
ATOM      2  N   UNL     1      34.217 -17.434 -23.303  0.00  0.00    -0.233 NA
ATOM      3  N   UNL     1      34.438 -19.489 -22.017  0.00  0.00    -0.233 NA
ATOM      4  C   UNL     1      34.086 -16.829 -22.108  0.00  0.00    +0.120 C 
ATOM      5  C   UNL     1      33.807 -15.226 -20.573  0.00  0.00    +0.062 C 
ATOM      6  C   UNL     1      34.116 -17.442 -20.861  0.00  0.00    +0.131 C 
ATOM      7  C   UNL     1      33.938 -16.419 -19.895  0.00  0.00    +0.004 C 
ATOM      8  C   UNL     1      34.301 -18.834 -20.830  0.00  0.00    +0.113 C 
ATOM      9  C   UNL     1      34.389 -18.763 -23.157  0.00  0.00    +0.252 C 
ATOM     10  N   UNL     1      34.343 -19.530 -19.632  0.00  0.00    -0.319 N 
ATOM     11  H   UNL     1      34.238 -19.021 -18.795  0.00  0.00    +0.148 HD
ENDROOT
BRANCH  10  12
ATOM     12  C   UNL     1      34.530 -20.957 -19.540  0.00  0.00    +0.093 C 
ATOM     13  C   UNL     1      35.960 -21.297 -19.079  0.00  0.00    +0.029 C 
ATOM     14  C   UNL     1      33.719 -21.527 -18.416  0.00  0.00    -0.008 C 
ATOM     15  C   UNL     1      35.933 -21.352 -17.542  0.00  0.00    +0.028 C 
ATOM     16  C   UNL     1      34.516 -21.757 -17.288  0.00  0.00    -0.025 C 
ATOM     17  C   UNL     1      32.359 -21.796 -18.396  0.00  0.00    -0.003 C 
ATOM     18  C   UNL     1      33.969 -22.253 -16.116  0.00  0.00    -0.005 C 
ATOM     19  C   UNL     1      31.803 -22.308 -17.222  0.00  0.00    -0.000 C 
ATOM     20  C   UNL     1      32.602 -22.533 -16.090  0.00  0.00    -0.000 C 
ENDBRANCH  10  12
BRANCH   1  21
ATOM     21  C   UNL     1      33.808 -14.479 -22.969  0.00  0.00    +0.081 C 
ATOM     22  C   UNL     1      32.447 -12.447 -22.924  0.00  0.00    +0.061 C 
ATOM     23  C   UNL     1      33.792 -13.021 -22.461  0.00  0.00    +0.025 C 
ATOM     24  C   UNL     1      32.159 -13.211 -24.218  0.00  0.00    +0.115 C 
ATOM     25  C   UNL     1      32.563 -14.639 -23.864  0.00  0.00    +0.049 C 
BRANCH  24  26
ATOM     26  O   UNL     1      32.970 -12.730 -25.283  0.00  0.00    -0.384 OA
ATOM     27  H   UNL     1      33.497 -11.976 -24.973  0.00  0.00    +0.210 HD
ENDBRANCH  24  26
BRANCH  22  28
ATOM     28  C   UNL     1      32.478 -10.934 -23.075  0.00  0.00    +0.176 C 
BRANCH  28  29
ATOM     29  O   UNL     1      33.802 -10.534 -23.384  0.00  0.00    -0.230 OA
BRANCH  29  30
ATOM     30  S   UNL     1      34.078  -9.050 -24.018  0.00  0.00    +0.045 S 
ATOM     31  O   UNL     1      34.605  -8.192 -22.971  0.00  0.00    -0.056 OA
ATOM     32  O   UNL     1      34.826  -9.236 -25.248  0.00  0.00    -0.056 OA
BRANCH  30  33
ATOM     33  N   UNL     1      32.518  -8.479 -24.440  0.00  0.00    -0.204 NA
ATOM     34  H   UNL     1      32.213  -8.929 -25.303  0.00  0.00    +0.144 HD
ATOM     35  H   UNL     1      32.551  -7.469 -24.576  0.00  0.00    +0.144 HD
ENDBRANCH  30  33
ENDBRANCH  29  30
ENDBRANCH  28  29
ENDBRANCH  22  28
ENDBRANCH   1  21
TORSDOF 7
ENDMDL
MODEL 6
REMARK VINA RESULT:      -9.4      6.173      9.741
REMARK  Name = 16720766
REMARK  7 active torsions:
REMARK  status: ('A' for Active; 'I' for Inactive)
REMARK    1  A    between atoms: N_1  and  C_10
REMARK    2  A    between atoms: C_11  and  C_17
REMARK    3  A    between atoms: C_13  and  O_15
REMARK    4  A    between atoms: C_17  and  O_18
REMARK    5  A    between atoms: O_18  and  S_19
REMARK    6  A    between atoms: S_19  and  N_22
REMARK    7  A    between atoms: N_25  and  C_27
REMARK                            x       y       z     vdW  Elec       q    Type
REMARK                         _______ _______ _______ _____ _____    ______ ____
ROOT
ATOM      1  N   UNL     1      32.799 -13.242 -23.419  0.00  0.00    -0.276 N 
ATOM      2  N   UNL     1      31.666 -12.422 -21.454  0.00  0.00    -0.233 NA
ATOM      3  N   UNL     1      31.503  -9.995 -21.395  0.00  0.00    -0.233 NA
ATOM      4  C   UNL     1      32.305 -12.243 -22.624  0.00  0.00    +0.120 C 
ATOM      5  C   UNL     1      33.386 -12.694 -24.530  0.00  0.00    +0.062 C 
ATOM      6  C   UNL     1      32.581 -11.028 -23.240  0.00  0.00    +0.131 C 
ATOM      7  C   UNL     1      33.265 -11.323 -24.447  0.00  0.00    +0.004 C 
ATOM      8  C   UNL     1      32.155  -9.861 -22.585  0.00  0.00    +0.113 C 
ATOM      9  C   UNL     1      31.303 -11.242 -20.913  0.00  0.00    +0.252 C 
ATOM     10  N   UNL     1      32.385  -8.605 -23.125  0.00  0.00    -0.319 N 
ATOM     11  H   UNL     1      32.858  -8.550 -23.986  0.00  0.00    +0.148 HD
ENDROOT
BRANCH  10  12
ATOM     12  C   UNL     1      31.970  -7.374 -22.497  0.00  0.00    +0.093 C 
ATOM     13  C   UNL     1      33.189  -6.540 -22.061  0.00  0.00    +0.029 C 
ATOM     14  C   UNL     1      31.332  -6.458 -23.497  0.00  0.00    -0.008 C 
ATOM     15  C   UNL     1      33.560  -5.635 -23.250  0.00  0.00    +0.028 C 
ATOM     16  C   UNL     1      32.231  -5.469 -23.916  0.00  0.00    -0.025 C 
ATOM     17  C   UNL     1      30.048  -6.520 -24.013  0.00  0.00    -0.003 C 
ATOM     18  C   UNL     1      31.866  -4.529 -24.865  0.00  0.00    -0.005 C 
ATOM     19  C   UNL     1      29.668  -5.568 -24.962  0.00  0.00    -0.000 C 
ATOM     20  C   UNL     1      30.572  -4.580 -25.385  0.00  0.00    -0.000 C 
ENDBRANCH  10  12
BRANCH   1  21
ATOM     21  C   UNL     1      32.722 -14.673 -23.137  0.00  0.00    +0.081 C 
ATOM     22  C   UNL     1      34.604 -16.173 -22.702  0.00  0.00    +0.061 C 
ATOM     23  C   UNL     1      33.675 -15.159 -22.024  0.00  0.00    +0.025 C 
ATOM     24  C   UNL     1      33.733 -16.775 -23.806  0.00  0.00    +0.115 C 
ATOM     25  C   UNL     1      33.010 -15.555 -24.369  0.00  0.00    +0.049 C 
BRANCH  24  26
ATOM     26  O   UNL     1      32.787 -17.688 -23.265  0.00  0.00    -0.384 OA
ATOM     27  H   UNL     1      32.332 -17.275 -22.513  0.00  0.00    +0.210 HD
ENDBRANCH  24  26
BRANCH  22  28
ATOM     28  C   UNL     1      35.179 -17.187 -21.724  0.00  0.00    +0.176 C 
BRANCH  28  29
ATOM     29  O   UNL     1      34.127 -17.683 -20.913  0.00  0.00    -0.230 OA
BRANCH  29  30
ATOM     30  S   UNL     1      33.953 -19.297 -20.703  0.00  0.00    +0.045 S 
ATOM     31  O   UNL     1      32.703 -19.538 -20.003  0.00  0.00    -0.056 OA
ATOM     32  O   UNL     1      34.201 -19.931 -21.985  0.00  0.00    -0.056 OA
BRANCH  30  33
ATOM     33  N   UNL     1      35.240 -19.722 -19.654  0.00  0.00    -0.204 NA
ATOM     34  H   UNL     1      34.877 -19.869 -18.712  0.00  0.00    +0.144 HD
ATOM     35  H   UNL     1      35.929 -18.970 -19.639  0.00  0.00    +0.144 HD
ENDBRANCH  30  33
ENDBRANCH  29  30
ENDBRANCH  28  29
ENDBRANCH  22  28
ENDBRANCH   1  21
TORSDOF 7
ENDMDL
MODEL 7
REMARK VINA RESULT:      -9.2      5.721      9.184
REMARK  Name = 16720766
REMARK  7 active torsions:
REMARK  status: ('A' for Active; 'I' for Inactive)
REMARK    1  A    between atoms: N_1  and  C_10
REMARK    2  A    between atoms: C_11  and  C_17
REMARK    3  A    between atoms: C_13  and  O_15
REMARK    4  A    between atoms: C_17  and  O_18
REMARK    5  A    between atoms: O_18  and  S_19
REMARK    6  A    between atoms: S_19  and  N_22
REMARK    7  A    between atoms: N_25  and  C_27
REMARK                            x       y       z     vdW  Elec       q    Type
REMARK                         _______ _______ _______ _____ _____    ______ ____
ROOT
ATOM      1  N   UNL     1      32.764 -13.705 -22.615  0.00  0.00    -0.276 N 
ATOM      2  N   UNL     1      31.299 -13.336 -20.736  0.00  0.00    -0.233 NA
ATOM      3  N   UNL     1      30.776 -10.985 -20.386  0.00  0.00    -0.233 NA
ATOM      4  C   UNL     1      32.038 -12.906 -21.774  0.00  0.00    +0.120 C 
ATOM      5  C   UNL     1      33.392 -12.928 -23.555  0.00  0.00    +0.062 C 
ATOM      6  C   UNL     1      32.205 -11.588 -22.183  0.00  0.00    +0.131 C 
ATOM      7  C   UNL     1      33.063 -11.612 -23.312  0.00  0.00    +0.004 C 
ATOM      8  C   UNL     1      31.538 -10.595 -21.448  0.00  0.00    +0.113 C 
ATOM      9  C   UNL     1      30.706 -12.305 -20.102  0.00  0.00    +0.252 C 
ATOM     10  N   UNL     1      31.644  -9.254 -21.783  0.00  0.00    -0.319 N 
ATOM     11  H   UNL     1      32.203  -9.012 -22.557  0.00  0.00    +0.148 HD
ENDROOT
BRANCH  10  12
ATOM     12  C   UNL     1      30.982  -8.193 -21.064  0.00  0.00    +0.093 C 
ATOM     13  C   UNL     1      31.871  -7.662 -19.924  0.00  0.00    +0.029 C 
ATOM     14  C   UNL     1      30.852  -6.972 -21.924  0.00  0.00    -0.008 C 
ATOM     15  C   UNL     1      32.727  -6.527 -20.515  0.00  0.00    +0.028 C 
ATOM     16  C   UNL     1      31.835  -6.026 -21.606  0.00  0.00    -0.025 C 
ATOM     17  C   UNL     1      29.934  -6.735 -22.935  0.00  0.00    -0.003 C 
ATOM     18  C   UNL     1      31.926  -4.830 -22.298  0.00  0.00    -0.005 C 
ATOM     19  C   UNL     1      30.011  -5.525 -23.629  0.00  0.00    -0.000 C 
ATOM     20  C   UNL     1      31.001  -4.580 -23.313  0.00  0.00    -0.000 C 
ENDBRANCH  10  12
BRANCH   1  21
ATOM     21  C   UNL     1      32.864 -15.160 -22.535  0.00  0.00    +0.081 C 
ATOM     22  C   UNL     1      34.885 -16.454 -22.063  0.00  0.00    +0.061 C 
ATOM     23  C   UNL     1      33.751 -15.678 -21.382  0.00  0.00    +0.025 C 
ATOM     24  C   UNL     1      34.235 -16.994 -23.337  0.00  0.00    +0.115 C 
ATOM     25  C   UNL     1      33.409 -15.807 -23.824  0.00  0.00    +0.049 C 
BRANCH  24  26
ATOM     26  O   UNL     1      33.377 -18.091 -23.045  0.00  0.00    -0.384 OA
ATOM     27  H   UNL     1      32.544 -17.988 -23.532  0.00  0.00    +0.210 HD
ENDBRANCH  24  26
BRANCH  22  28
ATOM     28  C   UNL     1      35.490 -17.519 -21.160  0.00  0.00    +0.176 C 
BRANCH  28  29
ATOM     29  O   UNL     1      34.471 -18.040 -20.324  0.00  0.00    -0.230 OA
BRANCH  29  30
ATOM     30  S   UNL     1      34.197 -19.653 -20.281  0.00  0.00    +0.045 S 
ATOM     31  O   UNL     1      34.340 -20.181 -21.626  0.00  0.00    -0.056 OA
ATOM     32  O   UNL     1      34.994 -20.200 -19.198  0.00  0.00    -0.056 OA
BRANCH  30  33
ATOM     33  N   UNL     1      32.548 -19.784 -19.830  0.00  0.00    -0.204 NA
ATOM     34  H   UNL     1      31.997 -20.073 -20.638  0.00  0.00    +0.144 HD
ATOM     35  H   UNL     1      32.214 -18.880 -19.497  0.00  0.00    +0.144 HD
ENDBRANCH  30  33
ENDBRANCH  29  30
ENDBRANCH  28  29
ENDBRANCH  22  28
ENDBRANCH   1  21
TORSDOF 7
ENDMDL
MODEL 8
REMARK VINA RESULT:      -8.8      3.184      4.825
REMARK  Name = 16720766
REMARK  7 active torsions:
REMARK  status: ('A' for Active; 'I' for Inactive)
REMARK    1  A    between atoms: N_1  and  C_10
REMARK    2  A    between atoms: C_11  and  C_17
REMARK    3  A    between atoms: C_13  and  O_15
REMARK    4  A    between atoms: C_17  and  O_18
REMARK    5  A    between atoms: O_18  and  S_19
REMARK    6  A    between atoms: S_19  and  N_22
REMARK    7  A    between atoms: N_25  and  C_27
REMARK                            x       y       z     vdW  Elec       q    Type
REMARK                         _______ _______ _______ _____ _____    ______ ____
ROOT
ATOM      1  N   UNL     1      33.561 -22.146 -16.684  0.00  0.00    -0.276 N 
ATOM      2  N   UNL     1      35.747 -21.192 -17.037  0.00  0.00    -0.233 NA
ATOM      3  N   UNL     1      35.962 -20.079 -19.191  0.00  0.00    -0.233 NA
ATOM      4  C   UNL     1      34.487 -21.459 -17.422  0.00  0.00    +0.120 C 
ATOM      5  C   UNL     1      32.387 -22.230 -17.388  0.00  0.00    +0.062 C 
ATOM      6  C   UNL     1      33.893 -21.095 -18.625  0.00  0.00    +0.131 C 
ATOM      7  C   UNL     1      32.563 -21.587 -18.594  0.00  0.00    +0.004 C 
ATOM      8  C   UNL     1      34.677 -20.373 -19.540  0.00  0.00    +0.113 C 
ATOM      9  C   UNL     1      36.408 -20.499 -17.986  0.00  0.00    +0.252 C 
ATOM     10  N   UNL     1      34.169 -19.966 -20.763  0.00  0.00    -0.319 N 
ATOM     11  H   UNL     1      33.236 -20.196 -20.978  0.00  0.00    +0.148 HD
ENDROOT
BRANCH  10  12
ATOM     12  C   UNL     1      34.928 -19.224 -21.740  0.00  0.00    +0.093 C 
ATOM     13  C   UNL     1      34.638 -19.731 -23.165  0.00  0.00    +0.029 C 
ATOM     14  C   UNL     1      34.437 -17.810 -21.830  0.00  0.00    -0.008 C 
ATOM     15  C   UNL     1      33.443 -18.919 -23.695  0.00  0.00    +0.028 C 
ATOM     16  C   UNL     1      33.603 -17.637 -22.941  0.00  0.00    -0.025 C 
ATOM     17  C   UNL     1      34.698 -16.760 -20.963  0.00  0.00    -0.003 C 
ATOM     18  C   UNL     1      33.008 -16.415 -23.204  0.00  0.00    -0.005 C 
ATOM     19  C   UNL     1      34.111 -15.521 -21.229  0.00  0.00    -0.000 C 
ATOM     20  C   UNL     1      33.271 -15.350 -22.341  0.00  0.00    -0.000 C 
ENDBRANCH  10  12
BRANCH   1  21
ATOM     21  C   UNL     1      33.778 -22.709 -15.354  0.00  0.00    +0.081 C 
ATOM     22  C   UNL     1      35.732 -23.982 -14.616  0.00  0.00    +0.061 C 
ATOM     23  C   UNL     1      35.218 -22.552 -14.819  0.00  0.00    +0.025 C 
ATOM     24  C   UNL     1      34.466 -24.773 -14.279  0.00  0.00    +0.115 C 
ATOM     25  C   UNL     1      33.446 -24.213 -15.265  0.00  0.00    +0.049 C 
BRANCH  24  26
ATOM     26  O   UNL     1      34.043 -24.511 -12.947  0.00  0.00    -0.384 OA
ATOM     27  H   UNL     1      33.481 -23.719 -12.936  0.00  0.00    +0.210 HD
ENDBRANCH  24  26
BRANCH  22  28
ATOM     28  C   UNL     1      36.829 -24.066 -13.566  0.00  0.00    +0.176 C 
BRANCH  28  29
ATOM     29  O   UNL     1      37.514 -25.298 -13.720  0.00  0.00    -0.230 OA
BRANCH  29  30
ATOM     30  S   UNL     1      39.146 -25.314 -13.840  0.00  0.00    +0.045 S 
ATOM     31  O   UNL     1      39.637 -23.963 -13.634  0.00  0.00    -0.056 OA
ATOM     32  O   UNL     1      39.632 -26.397 -13.005  0.00  0.00    -0.056 OA
BRANCH  30  33
ATOM     33  N   UNL     1      39.440 -25.744 -15.473  0.00  0.00    -0.204 NA
ATOM     34  H   UNL     1      39.271 -24.937 -16.073  0.00  0.00    +0.144 HD
ATOM     35  H   UNL     1      38.816 -26.504 -15.742  0.00  0.00    +0.144 HD
ENDBRANCH  30  33
ENDBRANCH  29  30
ENDBRANCH  28  29
ENDBRANCH  22  28
ENDBRANCH   1  21
TORSDOF 7
ENDMDL
