MODEL 1
REMARK VINA RESULT:     -13.0      0.000      0.000
REMARK  Name = 71351
REMARK  4 active torsions:
REMARK  status: ('A' for Active; 'I' for Inactive)
REMARK    1  A    between atoms: N_1  and  C_18
REMARK    2  A    between atoms: C_2  and  C_11
REMARK    3  A    between atoms: C_18  and  C_19
REMARK    4  A    between atoms: C_19  and  C_23
REMARK                            x       y       z     vdW  Elec       q    Type
REMARK                         _______ _______ _______ _____ _____    ______ ____
ROOT
ATOM      1  N   UNL     1      35.065 -19.404 -19.593  0.00  0.00    +0.387 N 
ATOM      2  C   UNL     1      34.462 -18.201 -22.200  0.00  0.00    +0.039 C 
ATOM      3  C   UNL     1      35.704 -17.813 -21.379  0.00  0.00    -0.017 C 
ATOM      4  C   UNL     1      33.366 -18.739 -21.266  0.00  0.00    -0.017 C 
ATOM      5  C   UNL     1      36.154 -18.965 -20.477  0.00  0.00    -0.077 C 
ATOM      6  C   UNL     1      33.903 -19.857 -20.368  0.00  0.00    -0.077 C 
ATOM      7  H   UNL     1      34.775 -18.604 -19.030  0.00  0.00    -0.080 HD
ENDROOT
BRANCH   2  11
ATOM      8  F   UNL     1      32.671 -11.760 -22.925  0.00  0.00    -0.204 F 
ATOM      9  O   UNL     1      33.311 -16.101 -24.893  0.00  0.00    -0.354 OA
ATOM     10  N   UNL     1      33.738 -17.317 -24.373  0.00  0.00    -0.081 NA
ATOM     11  C   UNL     1      33.974 -17.077 -23.086  0.00  0.00    +0.100 A 
ATOM     12  C   UNL     1      33.722 -15.746 -22.719  0.00  0.00    +0.054 A 
ATOM     13  C   UNL     1      33.303 -15.166 -23.904  0.00  0.00    +0.179 A 
ATOM     14  C   UNL     1      33.790 -14.959 -21.561  0.00  0.00    +0.007 C 
ATOM     15  C   UNL     1      32.936 -13.830 -24.036  0.00  0.00    +0.070 C 
ATOM     16  C   UNL     1      33.428 -13.608 -21.657  0.00  0.00    +0.030 C 
ATOM     17  C   UNL     1      33.009 -13.056 -22.873  0.00  0.00    +0.143 C 
ENDBRANCH   2  11
BRANCH   1  18
ATOM     18  C   UNL     1      35.529 -20.465 -18.698  0.00  0.00    -0.076 C 
BRANCH  18  19
ATOM     19  C   UNL     1      34.630 -21.685 -18.833  0.00  0.00    -0.007 C 
BRANCH  19  23
ATOM     20  O   UNL     1      31.935 -22.241 -18.478  0.00  0.00    -0.274 OA
ATOM     21  N   UNL     1      32.102 -22.675 -16.188  0.00  0.00    -0.211 N 
ATOM     22  N   UNL     1      34.233 -22.571 -15.145  0.00  0.00    -0.395 NA
ATOM     23  C   UNL     1      34.080 -22.094 -17.498  0.00  0.00    +0.123 C 
ATOM     24  C   UNL     1      34.782 -22.233 -16.356  0.00  0.00    +0.097 C 
ATOM     25  C   UNL     1      32.604 -22.340 -17.449  0.00  0.00    +0.241 C 
ATOM     26  C   UNL     1      32.952 -22.776 -15.081  0.00  0.00    +0.188 C 
ATOM     27  C   UNL     1      36.277 -22.052 -16.289  0.00  0.00    +0.062 C 
ATOM     28  C   UNL     1      32.324 -23.146 -13.762  0.00  0.00    +0.023 C 
ATOM     29  C   UNL     1      30.737 -22.910 -16.056  0.00  0.00    +0.074 C 
ATOM     30  C   UNL     1      31.001 -23.357 -13.714  0.00  0.00    +0.001 C 
ATOM     31  C   UNL     1      30.183 -23.238 -14.886  0.00  0.00    +0.016 C 
ATOM     32  C   UNL     1      33.211 -23.260 -12.560  0.00  0.00    +0.035 C 
ENDBRANCH  19  23
ENDBRANCH  18  19
ENDBRANCH   1  18
TORSDOF 4
ENDMDL
MODEL 2
REMARK VINA RESULT:     -13.0      3.393     10.373
REMARK  Name = 71351
REMARK  4 active torsions:
REMARK  status: ('A' for Active; 'I' for Inactive)
REMARK    1  A    between atoms: N_1  and  C_18
REMARK    2  A    between atoms: C_2  and  C_11
REMARK    3  A    between atoms: C_18  and  C_19
REMARK    4  A    between atoms: C_19  and  C_23
REMARK                            x       y       z     vdW  Elec       q    Type
REMARK                         _______ _______ _______ _____ _____    ______ ____
ROOT
ATOM      1  N   UNL     1      33.397 -20.076 -19.694  0.00  0.00    +0.387 N 
ATOM      2  C   UNL     1      33.209 -22.231 -17.713  0.00  0.00    +0.039 C 
ATOM      3  C   UNL     1      32.028 -21.300 -18.034  0.00  0.00    -0.017 C 
ATOM      4  C   UNL     1      34.535 -21.525 -18.041  0.00  0.00    -0.017 C 
ATOM      5  C   UNL     1      32.119 -20.762 -19.465  0.00  0.00    -0.077 C 
ATOM      6  C   UNL     1      34.533 -20.980 -19.472  0.00  0.00    -0.077 C 
ATOM      7  H   UNL     1      33.468 -19.311 -19.023  0.00  0.00    -0.080 HD
ENDROOT
BRANCH   2  11
ATOM      8  F   UNL     1      29.654 -23.833 -12.234  0.00  0.00    -0.204 F 
ATOM      9  O   UNL     1      33.918 -23.565 -14.441  0.00  0.00    -0.354 OA
ATOM     10  N   UNL     1      34.299 -23.137 -15.707  0.00  0.00    -0.081 NA
ATOM     11  C   UNL     1      33.166 -22.761 -16.297  0.00  0.00    +0.100 A 
ATOM     12  C   UNL     1      32.039 -22.921 -15.477  0.00  0.00    +0.054 A 
ATOM     13  C   UNL     1      32.570 -23.436 -14.307  0.00  0.00    +0.179 A 
ATOM     14  C   UNL     1      30.656 -22.703 -15.561  0.00  0.00    +0.007 C 
ATOM     15  C   UNL     1      31.819 -23.762 -13.182  0.00  0.00    +0.070 C 
ATOM     16  C   UNL     1      29.868 -23.021 -14.445  0.00  0.00    +0.030 C 
ATOM     17  C   UNL     1      30.440 -23.541 -13.279  0.00  0.00    +0.143 C 
ENDBRANCH   2  11
BRANCH   1  18
ATOM     18  C   UNL     1      33.443 -19.519 -21.047  0.00  0.00    -0.076 C 
BRANCH  18  19
ATOM     19  C   UNL     1      34.518 -18.445 -21.128  0.00  0.00    -0.007 C 
BRANCH  19  23
ATOM     20  O   UNL     1      34.278 -15.856 -20.160  0.00  0.00    -0.274 OA
ATOM     21  N   UNL     1      33.514 -14.941 -22.171  0.00  0.00    -0.211 N 
ATOM     22  N   UNL     1      33.315 -16.345 -24.076  0.00  0.00    -0.395 NA
ATOM     23  C   UNL     1      34.077 -17.313 -22.010  0.00  0.00    +0.123 C 
ATOM     24  C   UNL     1      33.752 -17.400 -23.315  0.00  0.00    +0.097 C 
ATOM     25  C   UNL     1      33.970 -15.975 -21.346  0.00  0.00    +0.241 C 
ATOM     26  C   UNL     1      33.204 -15.179 -23.515  0.00  0.00    +0.188 C 
ATOM     27  C   UNL     1      33.858 -18.682 -24.099  0.00  0.00    +0.062 C 
ATOM     28  C   UNL     1      32.724 -14.006 -24.329  0.00  0.00    +0.023 C 
ATOM     29  C   UNL     1      33.378 -13.668 -21.628  0.00  0.00    +0.074 C 
ATOM     30  C   UNL     1      32.618 -12.809 -23.735  0.00  0.00    +0.001 C 
ATOM     31  C   UNL     1      32.953 -12.629 -22.352  0.00  0.00    +0.016 C 
ATOM     32  C   UNL     1      32.384 -14.233 -25.770  0.00  0.00    +0.035 C 
ENDBRANCH  19  23
ENDBRANCH  18  19
ENDBRANCH   1  18
TORSDOF 4
ENDMDL
MODEL 3
REMARK VINA RESULT:     -12.5      1.391      2.353
REMARK  Name = 71351
REMARK  4 active torsions:
REMARK  status: ('A' for Active; 'I' for Inactive)
REMARK    1  A    between atoms: N_1  and  C_18
REMARK    2  A    between atoms: C_2  and  C_11
REMARK    3  A    between atoms: C_18  and  C_19
REMARK    4  A    between atoms: C_19  and  C_23
REMARK                            x       y       z     vdW  Elec       q    Type
REMARK                         _______ _______ _______ _____ _____    ______ ____
ROOT
ATOM      1  N   UNL     1      34.429 -18.798 -20.303  0.00  0.00    +0.387 N 
ATOM      2  C   UNL     1      34.276 -17.073 -22.670  0.00  0.00    +0.039 C 
ATOM      3  C   UNL     1      34.232 -16.514 -21.238  0.00  0.00    -0.017 C 
ATOM      4  C   UNL     1      33.787 -18.530 -22.678  0.00  0.00    -0.017 C 
ATOM      5  C   UNL     1      34.971 -17.433 -20.262  0.00  0.00    -0.077 C 
ATOM      6  C   UNL     1      34.543 -19.374 -21.649  0.00  0.00    -0.077 C 
ATOM      7  H   UNL     1      33.438 -18.750 -20.063  0.00  0.00    -0.080 HD
ENDROOT
BRANCH   2  11
ATOM      8  F   UNL     1      32.346 -10.958 -24.698  0.00  0.00    -0.204 F 
ATOM      9  O   UNL     1      32.333 -15.718 -25.387  0.00  0.00    -0.354 OA
ATOM     10  N   UNL     1      32.903 -16.773 -24.684  0.00  0.00    -0.081 NA
ATOM     11  C   UNL     1      33.533 -16.203 -23.659  0.00  0.00    +0.100 A 
ATOM     12  C   UNL     1      33.409 -14.805 -23.646  0.00  0.00    +0.054 A 
ATOM     13  C   UNL     1      32.638 -14.545 -24.766  0.00  0.00    +0.179 A 
ATOM     14  C   UNL     1      33.839 -13.733 -22.850  0.00  0.00    +0.007 C 
ATOM     15  C   UNL     1      32.247 -13.273 -25.171  0.00  0.00    +0.070 C 
ATOM     16  C   UNL     1      33.465 -12.436 -23.229  0.00  0.00    +0.030 C 
ATOM     17  C   UNL     1      32.684 -12.213 -24.369  0.00  0.00    +0.143 C 
ENDBRANCH   2  11
BRANCH   1  18
ATOM     18  C   UNL     1      35.108 -19.647 -19.323  0.00  0.00    -0.076 C 
BRANCH  18  19
ATOM     19  C   UNL     1      34.677 -21.095 -19.507  0.00  0.00    -0.007 C 
BRANCH  19  23
ATOM     20  O   UNL     1      35.454 -22.210 -17.089  0.00  0.00    -0.274 OA
ATOM     21  N   UNL     1      33.283 -22.506 -16.277  0.00  0.00    -0.211 N 
ATOM     22  N   UNL     1      31.448 -21.780 -17.598  0.00  0.00    -0.395 NA
ATOM     23  C   UNL     1      33.673 -21.490 -18.465  0.00  0.00    +0.123 C 
ATOM     24  C   UNL     1      32.335 -21.368 -18.561  0.00  0.00    +0.097 C 
ATOM     25  C   UNL     1      34.235 -22.101 -17.218  0.00  0.00    +0.241 C 
ATOM     26  C   UNL     1      31.916 -22.324 -16.516  0.00  0.00    +0.188 C 
ATOM     27  C   UNL     1      31.656 -20.734 -19.748  0.00  0.00    +0.062 C 
ATOM     28  C   UNL     1      30.962 -22.786 -15.445  0.00  0.00    +0.023 C 
ATOM     29  C   UNL     1      33.723 -23.092 -15.095  0.00  0.00    +0.074 C 
ATOM     30  C   UNL     1      31.463 -23.342 -14.332  0.00  0.00    +0.001 C 
ATOM     31  C   UNL     1      32.876 -23.501 -14.147  0.00  0.00    +0.016 C 
ATOM     32  C   UNL     1      29.493 -22.605 -15.675  0.00  0.00    +0.035 C 
ENDBRANCH  19  23
ENDBRANCH  18  19
ENDBRANCH   1  18
TORSDOF 4
ENDMDL
MODEL 4
REMARK VINA RESULT:     -12.4      3.280     10.344
REMARK  Name = 71351
REMARK  4 active torsions:
REMARK  status: ('A' for Active; 'I' for Inactive)
REMARK    1  A    between atoms: N_1  and  C_18
REMARK    2  A    between atoms: C_2  and  C_11
REMARK    3  A    between atoms: C_18  and  C_19
REMARK    4  A    between atoms: C_19  and  C_23
REMARK                            x       y       z     vdW  Elec       q    Type
REMARK                         _______ _______ _______ _____ _____    ______ ____
ROOT
ATOM      1  N   UNL     1      33.447 -19.281 -20.556  0.00  0.00    +0.387 N 
ATOM      2  C   UNL     1      33.712 -21.509 -18.666  0.00  0.00    +0.039 C 
ATOM      3  C   UNL     1      32.404 -20.718 -18.831  0.00  0.00    -0.017 C 
ATOM      4  C   UNL     1      34.906 -20.637 -19.086  0.00  0.00    -0.017 C 
ATOM      5  C   UNL     1      32.288 -20.125 -20.238  0.00  0.00    -0.077 C 
ATOM      6  C   UNL     1      34.698 -20.048 -20.484  0.00  0.00    -0.077 C 
ATOM      7  H   UNL     1      33.494 -18.536 -19.860  0.00  0.00    -0.080 HD
ENDROOT
BRANCH   2  11
ATOM      8  F   UNL     1      30.936 -24.073 -13.103  0.00  0.00    -0.204 F 
ATOM      9  O   UNL     1      34.894 -22.772 -15.504  0.00  0.00    -0.354 OA
ATOM     10  N   UNL     1      35.094 -22.222 -16.765  0.00  0.00    -0.081 NA
ATOM     11  C   UNL     1      33.873 -22.088 -17.278  0.00  0.00    +0.100 A 
ATOM     12  C   UNL     1      32.861 -22.527 -16.412  0.00  0.00    +0.054 A 
ATOM     13  C   UNL     1      33.561 -22.954 -15.297  0.00  0.00    +0.179 A 
ATOM     14  C   UNL     1      31.461 -22.623 -16.415  0.00  0.00    +0.007 C 
ATOM     15  C   UNL     1      32.970 -23.482 -14.153  0.00  0.00    +0.070 C 
ATOM     16  C   UNL     1      30.831 -23.151 -15.279  0.00  0.00    +0.030 C 
ATOM     17  C   UNL     1      31.574 -23.573 -14.171  0.00  0.00    +0.143 C 
ENDBRANCH   2  11
BRANCH   1  18
ATOM     18  C   UNL     1      33.292 -18.677 -21.880  0.00  0.00    -0.076 C 
BRANCH  18  19
ATOM     19  C   UNL     1      34.465 -17.751 -22.166  0.00  0.00    -0.007 C 
BRANCH  19  23
ATOM     20  O   UNL     1      33.843 -16.948 -24.748  0.00  0.00    -0.274 OA
ATOM     21  N   UNL     1      33.311 -14.747 -24.170  0.00  0.00    -0.211 N 
ATOM     22  N   UNL     1      33.410 -14.097 -21.888  0.00  0.00    -0.395 NA
ATOM     23  C   UNL     1      33.987 -16.360 -22.463  0.00  0.00    +0.123 C 
ATOM     24  C   UNL     1      33.811 -15.369 -21.567  0.00  0.00    +0.097 C 
ATOM     25  C   UNL     1      33.711 -16.061 -23.905  0.00  0.00    +0.241 C 
ATOM     26  C   UNL     1      33.177 -13.815 -23.134  0.00  0.00    +0.188 C 
ATOM     27  C   UNL     1      34.019 -15.561 -20.087  0.00  0.00    +0.062 C 
ATOM     28  C   UNL     1      32.738 -12.425 -23.511  0.00  0.00    +0.023 C 
ATOM     29  C   UNL     1      33.044 -14.386 -25.485  0.00  0.00    +0.074 C 
ATOM     30  C   UNL     1      32.499 -12.152 -24.802  0.00  0.00    +0.001 C 
ATOM     31  C   UNL     1      32.654 -13.153 -25.818  0.00  0.00    +0.016 C 
ATOM     32  C   UNL     1      32.588 -11.406 -22.423  0.00  0.00    +0.035 C 
ENDBRANCH  19  23
ENDBRANCH  18  19
ENDBRANCH   1  18
TORSDOF 4
ENDMDL
MODEL 5
REMARK VINA RESULT:     -12.2      4.195     10.546
REMARK  Name = 71351
REMARK  4 active torsions:
REMARK  status: ('A' for Active; 'I' for Inactive)
REMARK    1  A    between atoms: N_1  and  C_18
REMARK    2  A    between atoms: C_2  and  C_11
REMARK    3  A    between atoms: C_18  and  C_19
REMARK    4  A    between atoms: C_19  and  C_23
REMARK                            x       y       z     vdW  Elec       q    Type
REMARK                         _______ _______ _______ _____ _____    ______ ____
ROOT
ATOM      1  N   UNL     1      34.282 -15.088 -22.730  0.00  0.00    +0.387 N 
ATOM      2  C   UNL     1      33.951 -17.594 -21.242  0.00  0.00    +0.039 C 
ATOM      3  C   UNL     1      34.182 -16.244 -20.544  0.00  0.00    -0.017 C 
ATOM      4  C   UNL     1      34.527 -17.550 -22.667  0.00  0.00    -0.017 C 
ATOM      5  C   UNL     1      33.666 -15.083 -21.397  0.00  0.00    -0.077 C 
ATOM      6  C   UNL     1      33.998 -16.341 -23.442  0.00  0.00    -0.077 C 
ATOM      7  H   UNL     1      35.293 -15.017 -22.609  0.00  0.00    -0.080 HD
ENDROOT
BRANCH   2  11
ATOM      8  F   UNL     1      32.745 -23.174 -17.687  0.00  0.00    -0.204 F 
ATOM      9  O   UNL     1      35.925 -20.049 -19.492  0.00  0.00    -0.354 OA
ATOM     10  N   UNL     1      35.784 -18.897 -20.256  0.00  0.00    -0.081 NA
ATOM     11  C   UNL     1      34.472 -18.764 -20.439  0.00  0.00    +0.100 A 
ATOM     12  C   UNL     1      33.726 -19.784 -19.828  0.00  0.00    +0.054 A 
ATOM     13  C   UNL     1      34.695 -20.576 -19.239  0.00  0.00    +0.179 A 
ATOM     14  C   UNL     1      32.377 -20.142 -19.692  0.00  0.00    +0.007 C 
ATOM     15  C   UNL     1      34.428 -21.728 -18.506  0.00  0.00    +0.070 C 
ATOM     16  C   UNL     1      32.070 -21.298 -18.961  0.00  0.00    +0.030 C 
ATOM     17  C   UNL     1      33.078 -22.076 -18.380  0.00  0.00    +0.143 C 
ENDBRANCH   2  11
BRANCH   1  18
ATOM     18  C   UNL     1      33.822 -13.939 -23.511  0.00  0.00    -0.076 C 
BRANCH  18  19
ATOM     19  C   UNL     1      32.375 -13.623 -23.163  0.00  0.00    -0.007 C 
BRANCH  19  23
ATOM     20  O   UNL     1      31.118 -13.070 -20.753  0.00  0.00    -0.274 OA
ATOM     21  N   UNL     1      31.366 -10.751 -20.905  0.00  0.00    -0.211 N 
ATOM     22  N   UNL     1      32.509  -9.832 -22.773  0.00  0.00    -0.395 NA
ATOM     23  C   UNL     1      32.242 -12.220 -22.650  0.00  0.00    +0.123 C 
ATOM     24  C   UNL     1      32.687 -11.103 -23.259  0.00  0.00    +0.097 C 
ATOM     25  C   UNL     1      31.520 -12.069 -21.346  0.00  0.00    +0.241 C 
ATOM     26  C   UNL     1      31.875  -9.680 -21.651  0.00  0.00    +0.188 C 
ATOM     27  C   UNL     1      33.460 -11.131 -24.552  0.00  0.00    +0.062 C 
ATOM     28  C   UNL     1      31.665  -8.295 -21.097  0.00  0.00    +0.023 C 
ATOM     29  C   UNL     1      30.698 -10.524 -19.707  0.00  0.00    +0.074 C 
ATOM     30  C   UNL     1      31.010  -8.157 -19.935  0.00  0.00    +0.001 C 
ATOM     31  C   UNL     1      30.513  -9.295 -19.218  0.00  0.00    +0.016 C 
ATOM     32  C   UNL     1      32.198  -7.131 -21.874  0.00  0.00    +0.035 C 
ENDBRANCH  19  23
ENDBRANCH  18  19
ENDBRANCH   1  18
TORSDOF 4
ENDMDL
MODEL 6
REMARK VINA RESULT:     -12.1      0.997      1.367
REMARK  Name = 71351
REMARK  4 active torsions:
REMARK  status: ('A' for Active; 'I' for Inactive)
REMARK    1  A    between atoms: N_1  and  C_18
REMARK    2  A    between atoms: C_2  and  C_11
REMARK    3  A    between atoms: C_18  and  C_19
REMARK    4  A    between atoms: C_19  and  C_23
REMARK                            x       y       z     vdW  Elec       q    Type
REMARK                         _______ _______ _______ _____ _____    ______ ____
ROOT
ATOM      1  N   UNL     1      35.000 -19.766 -19.493  0.00  0.00    +0.387 N 
ATOM      2  C   UNL     1      34.505 -18.437 -22.061  0.00  0.00    +0.039 C 
ATOM      3  C   UNL     1      35.749 -18.144 -21.206  0.00  0.00    -0.017 C 
ATOM      4  C   UNL     1      33.366 -18.954 -21.166  0.00  0.00    -0.017 C 
ATOM      5  C   UNL     1      36.124 -19.350 -20.342  0.00  0.00    -0.077 C 
ATOM      6  C   UNL     1      33.830 -20.130 -20.303  0.00  0.00    -0.077 C 
ATOM      7  H   UNL     1      34.740 -18.975 -18.904  0.00  0.00    -0.080 HD
ENDROOT
BRANCH   2  11
ATOM      8  F   UNL     1      32.854 -11.935 -22.530  0.00  0.00    -0.204 F 
ATOM      9  O   UNL     1      33.555 -16.171 -24.697  0.00  0.00    -0.354 OA
ATOM     10  N   UNL     1      33.931 -17.421 -24.222  0.00  0.00    -0.081 NA
ATOM     11  C   UNL     1      34.089 -17.257 -22.910  0.00  0.00    +0.100 A 
ATOM     12  C   UNL     1      33.834 -15.944 -22.486  0.00  0.00    +0.054 A 
ATOM     13  C   UNL     1      33.499 -15.292 -23.659  0.00  0.00    +0.179 A 
ATOM     14  C   UNL     1      33.839 -15.224 -21.282  0.00  0.00    +0.007 C 
ATOM     15  C   UNL     1      33.159 -13.945 -23.738  0.00  0.00    +0.070 C 
ATOM     16  C   UNL     1      33.503 -13.863 -21.324  0.00  0.00    +0.030 C 
ATOM     17  C   UNL     1      33.170 -13.237 -22.531  0.00  0.00    +0.143 C 
ENDBRANCH   2  11
BRANCH   1  18
ATOM     18  C   UNL     1      35.394 -20.882 -18.632  0.00  0.00    -0.076 C 
BRANCH  18  19
ATOM     19  C   UNL     1      34.157 -21.631 -18.158  0.00  0.00    -0.007 C 
BRANCH  19  23
ATOM     20  O   UNL     1      32.155 -23.028 -16.840  0.00  0.00    -0.274 OA
ATOM     21  N   UNL     1      33.292 -23.169 -14.803  0.00  0.00    -0.211 N 
ATOM     22  N   UNL     1      35.479 -22.257 -14.635  0.00  0.00    -0.395 NA
ATOM     23  C   UNL     1      34.316 -22.077 -16.734  0.00  0.00    +0.123 C 
ATOM     24  C   UNL     1      35.390 -21.866 -15.948  0.00  0.00    +0.097 C 
ATOM     25  C   UNL     1      33.145 -22.801 -16.143  0.00  0.00    +0.241 C 
ATOM     26  C   UNL     1      34.468 -22.875 -14.103  0.00  0.00    +0.188 C 
ATOM     27  C   UNL     1      36.641 -21.186 -16.440  0.00  0.00    +0.062 C 
ATOM     28  C   UNL     1      34.540 -23.312 -12.663  0.00  0.00    +0.023 C 
ATOM     29  C   UNL     1      32.245 -23.837 -14.177  0.00  0.00    +0.074 C 
ATOM     30  C   UNL     1      33.489 -23.952 -12.130  0.00  0.00    +0.001 C 
ATOM     31  C   UNL     1      32.311 -24.224 -12.901  0.00  0.00    +0.016 C 
ATOM     32  C   UNL     1      35.787 -23.010 -11.890  0.00  0.00    +0.035 C 
ENDBRANCH  19  23
ENDBRANCH  18  19
ENDBRANCH   1  18
TORSDOF 4
ENDMDL
MODEL 7
REMARK VINA RESULT:     -12.1      3.592     10.365
REMARK  Name = 71351
REMARK  4 active torsions:
REMARK  status: ('A' for Active; 'I' for Inactive)
REMARK    1  A    between atoms: N_1  and  C_18
REMARK    2  A    between atoms: C_2  and  C_11
REMARK    3  A    between atoms: C_18  and  C_19
REMARK    4  A    between atoms: C_19  and  C_23
REMARK                            x       y       z     vdW  Elec       q    Type
REMARK                         _______ _______ _______ _____ _____    ______ ____
ROOT
ATOM      1  N   UNL     1      33.347 -20.337 -19.360  0.00  0.00    +0.387 N 
ATOM      2  C   UNL     1      33.394 -22.389 -17.264  0.00  0.00    +0.039 C 
ATOM      3  C   UNL     1      32.109 -21.642 -17.659  0.00  0.00    -0.017 C 
ATOM      4  C   UNL     1      34.623 -21.531 -17.607  0.00  0.00    -0.017 C 
ATOM      5  C   UNL     1      32.165 -21.174 -19.116  0.00  0.00    -0.077 C 
ATOM      6  C   UNL     1      34.586 -21.069 -19.066  0.00  0.00    -0.077 C 
ATOM      7  H   UNL     1      33.299 -19.534 -18.732  0.00  0.00    -0.080 HD
ENDROOT
BRANCH   2  11
ATOM      8  F   UNL     1      36.759 -23.813 -11.619  0.00  0.00    -0.204 F 
ATOM      9  O   UNL     1      32.560 -23.518 -13.945  0.00  0.00    -0.354 OA
ATOM     10  N   UNL     1      32.225 -23.145 -15.242  0.00  0.00    -0.081 NA
ATOM     11  C   UNL     1      33.384 -22.843 -15.822  0.00  0.00    +0.100 A 
ATOM     12  C   UNL     1      34.485 -22.998 -14.966  0.00  0.00    +0.054 A 
ATOM     13  C   UNL     1      33.909 -23.429 -13.784  0.00  0.00    +0.179 A 
ATOM     14  C   UNL     1      35.877 -22.836 -15.027  0.00  0.00    +0.007 C 
ATOM     15  C   UNL     1      34.621 -23.720 -12.624  0.00  0.00    +0.070 C 
ATOM     16  C   UNL     1      36.627 -23.119 -13.876  0.00  0.00    +0.030 C 
ATOM     17  C   UNL     1      36.008 -23.552 -12.698  0.00  0.00    +0.143 C 
ENDBRANCH   2  11
BRANCH   1  18
ATOM     18  C   UNL     1      33.354 -19.852 -20.741  0.00  0.00    -0.076 C 
BRANCH  18  19
ATOM     19  C   UNL     1      34.538 -18.920 -20.956  0.00  0.00    -0.007 C 
BRANCH  19  23
ATOM     20  O   UNL     1      34.378 -16.368 -19.879  0.00  0.00    -0.274 OA
ATOM     21  N   UNL     1      33.662 -15.343 -21.854  0.00  0.00    -0.211 N 
ATOM     22  N   UNL     1      33.430 -16.657 -23.818  0.00  0.00    -0.395 NA
ATOM     23  C   UNL     1      34.142 -17.737 -21.791  0.00  0.00    +0.123 C 
ATOM     24  C   UNL     1      33.825 -17.757 -23.100  0.00  0.00    +0.097 C 
ATOM     25  C   UNL     1      34.076 -16.425 -21.071  0.00  0.00    +0.241 C 
ATOM     26  C   UNL     1      33.354 -15.513 -23.209  0.00  0.00    +0.188 C 
ATOM     27  C   UNL     1      33.894 -19.008 -23.938  0.00  0.00    +0.062 C 
ATOM     28  C   UNL     1      32.920 -14.290 -23.975  0.00  0.00    +0.023 C 
ATOM     29  C   UNL     1      33.565 -14.090 -21.258  0.00  0.00    +0.074 C 
ATOM     30  C   UNL     1      32.851 -13.116 -23.330  0.00  0.00    +0.001 C 
ATOM     31  C   UNL     1      33.180 -13.007 -21.938  0.00  0.00    +0.016 C 
ATOM     32  C   UNL     1      32.584 -14.443 -25.426  0.00  0.00    +0.035 C 
ENDBRANCH  19  23
ENDBRANCH  18  19
ENDBRANCH   1  18
TORSDOF 4
ENDMDL
MODEL 8
REMARK VINA RESULT:     -12.0      1.272      2.338
REMARK  Name = 71351
REMARK  4 active torsions:
REMARK  status: ('A' for Active; 'I' for Inactive)
REMARK    1  A    between atoms: N_1  and  C_18
REMARK    2  A    between atoms: C_2  and  C_11
REMARK    3  A    between atoms: C_18  and  C_19
REMARK    4  A    between atoms: C_19  and  C_23
REMARK                            x       y       z     vdW  Elec       q    Type
REMARK                         _______ _______ _______ _____ _____    ______ ____
ROOT
ATOM      1  N   UNL     1      35.127 -19.466 -19.531  0.00  0.00    +0.387 N 
ATOM      2  C   UNL     1      34.476 -18.315 -22.149  0.00  0.00    +0.039 C 
ATOM      3  C   UNL     1      35.733 -17.914 -21.361  0.00  0.00    -0.017 C 
ATOM      4  C   UNL     1      33.397 -18.831 -21.183  0.00  0.00    -0.017 C 
ATOM      5  C   UNL     1      36.199 -19.048 -20.444  0.00  0.00    -0.077 C 
ATOM      6  C   UNL     1      33.948 -19.932 -20.274  0.00  0.00    -0.077 C 
ATOM      7  H   UNL     1      34.849 -18.655 -18.978  0.00  0.00    -0.080 HD
ENDROOT
BRANCH   2  11
ATOM      8  F   UNL     1      32.659 -11.891 -22.963  0.00  0.00    -0.204 F 
ATOM      9  O   UNL     1      33.282 -16.265 -24.862  0.00  0.00    -0.354 OA
ATOM     10  N   UNL     1      33.719 -17.471 -24.327  0.00  0.00    -0.081 NA
ATOM     11  C   UNL     1      33.972 -17.208 -23.047  0.00  0.00    +0.100 A 
ATOM     12  C   UNL     1      33.723 -15.871 -22.701  0.00  0.00    +0.054 A 
ATOM     13  C   UNL     1      33.286 -15.312 -23.890  0.00  0.00    +0.179 A 
ATOM     14  C   UNL     1      33.805 -15.063 -21.558  0.00  0.00    +0.007 C 
ATOM     15  C   UNL     1      32.913 -13.980 -24.040  0.00  0.00    +0.070 C 
ATOM     16  C   UNL     1      33.438 -13.715 -21.673  0.00  0.00    +0.030 C 
ATOM     17  C   UNL     1      33.001 -13.185 -22.893  0.00  0.00    +0.143 C 
ENDBRANCH   2  11
BRANCH   1  18
ATOM     18  C   UNL     1      35.606 -20.510 -18.624  0.00  0.00    -0.076 C 
BRANCH  18  19
ATOM     19  C   UNL     1      34.610 -21.660 -18.587  0.00  0.00    -0.007 C 
BRANCH  19  23
ATOM     20  O   UNL     1      36.633 -21.798 -16.693  0.00  0.00    -0.274 OA
ATOM     21  N   UNL     1      35.263 -22.576 -14.967  0.00  0.00    -0.211 N 
ATOM     22  N   UNL     1      32.940 -22.860 -15.375  0.00  0.00    -0.395 NA
ATOM     23  C   UNL     1      34.336 -22.084 -17.173  0.00  0.00    +0.123 C 
ATOM     24  C   UNL     1      33.140 -22.440 -16.666  0.00  0.00    +0.097 C 
ATOM     25  C   UNL     1      35.528 -22.135 -16.267  0.00  0.00    +0.241 C 
ATOM     26  C   UNL     1      33.963 -22.922 -14.577  0.00  0.00    +0.188 C 
ATOM     27  C   UNL     1      31.866 -22.391 -17.468  0.00  0.00    +0.062 C 
ATOM     28  C   UNL     1      33.770 -23.384 -13.156  0.00  0.00    +0.023 C 
ATOM     29  C   UNL     1      36.318 -22.660 -14.065  0.00  0.00    +0.074 C 
ATOM     30  C   UNL     1      34.837 -23.439 -12.345  0.00  0.00    +0.001 C 
ATOM     31  C   UNL     1      36.145 -23.069 -12.805  0.00  0.00    +0.016 C 
ATOM     32  C   UNL     1      32.391 -23.762 -12.713  0.00  0.00    +0.035 C 
ENDBRANCH  19  23
ENDBRANCH  18  19
ENDBRANCH   1  18
TORSDOF 4
ENDMDL
MODEL 9
REMARK VINA RESULT:     -11.9      6.141     13.091
REMARK  Name = 71351
REMARK  4 active torsions:
REMARK  status: ('A' for Active; 'I' for Inactive)
REMARK    1  A    between atoms: N_1  and  C_18
REMARK    2  A    between atoms: C_2  and  C_11
REMARK    3  A    between atoms: C_18  and  C_19
REMARK    4  A    between atoms: C_19  and  C_23
REMARK                            x       y       z     vdW  Elec       q    Type
REMARK                         _______ _______ _______ _____ _____    ______ ____
ROOT
ATOM      1  N   UNL     1      33.282 -11.090 -24.339  0.00  0.00    +0.387 N 
ATOM      2  C   UNL     1      32.781 -13.946 -23.893  0.00  0.00    +0.039 C 
ATOM      3  C   UNL     1      33.469 -13.055 -22.845  0.00  0.00    -0.017 C 
ATOM      4  C   UNL     1      32.984 -13.353 -25.297  0.00  0.00    -0.017 C 
ATOM      5  C   UNL     1      33.029 -11.596 -22.983  0.00  0.00    -0.077 C 
ATOM      6  C   UNL     1      32.561 -11.882 -25.344  0.00  0.00    -0.077 C 
ATOM      7  H   UNL     1      34.281 -11.178 -24.526  0.00  0.00    -0.080 HD
ENDROOT
BRANCH   2  11
ATOM      8  F   UNL     1      35.150 -19.067 -20.234  0.00  0.00    -0.204 F 
ATOM      9  O   UNL     1      33.608 -17.405 -24.475  0.00  0.00    -0.354 OA
ATOM     10  N   UNL     1      33.151 -16.159 -24.890  0.00  0.00    -0.081 NA
ATOM     11  C   UNL     1      33.212 -15.392 -23.804  0.00  0.00    +0.100 A 
ATOM     12  C   UNL     1      33.690 -16.075 -22.675  0.00  0.00    +0.054 A 
ATOM     13  C   UNL     1      33.928 -17.351 -23.154  0.00  0.00    +0.179 A 
ATOM     14  C   UNL     1      33.954 -15.792 -21.327  0.00  0.00    +0.007 C 
ATOM     15  C   UNL     1      34.419 -18.400 -22.382  0.00  0.00    +0.070 C 
ATOM     16  C   UNL     1      34.449 -16.826 -20.518  0.00  0.00    +0.030 C 
ATOM     17  C   UNL     1      34.676 -18.105 -21.038  0.00  0.00    +0.143 C 
ENDBRANCH   2  11
BRANCH   1  18
ATOM     18  C   UNL     1      32.910  -9.678 -24.436  0.00  0.00    -0.076 C 
BRANCH  18  19
ATOM     19  C   UNL     1      33.624  -8.879 -23.355  0.00  0.00    -0.007 C 
BRANCH  19  23
ATOM     20  O   UNL     1      31.866  -8.468 -21.249  0.00  0.00    -0.274 OA
ATOM     21  N   UNL     1      31.360  -6.258 -21.815  0.00  0.00    -0.211 N 
ATOM     22  N   UNL     1      32.437  -5.270 -23.687  0.00  0.00    -0.395 NA
ATOM     23  C   UNL     1      32.952  -7.555 -23.138  0.00  0.00    +0.123 C 
ATOM     24  C   UNL     1      33.102  -6.452 -23.898  0.00  0.00    +0.097 C 
ATOM     25  C   UNL     1      32.011  -7.485 -21.975  0.00  0.00    +0.241 C 
ATOM     26  C   UNL     1      31.607  -5.194 -22.691  0.00  0.00    +0.188 C 
ATOM     27  C   UNL     1      34.049  -6.389 -25.068  0.00  0.00    +0.062 C 
ATOM     28  C   UNL     1      30.863  -3.909 -22.440  0.00  0.00    +0.023 C 
ATOM     29  C   UNL     1      30.462  -6.114 -20.763  0.00  0.00    +0.074 C 
ATOM     30  C   UNL     1      30.013  -3.847 -21.405  0.00  0.00    +0.001 C 
ATOM     31  C   UNL     1      29.803  -4.974 -20.542  0.00  0.00    +0.016 C 
ATOM     32  C   UNL     1      31.108  -2.754 -23.362  0.00  0.00    +0.035 C 
ENDBRANCH  19  23
ENDBRANCH  18  19
ENDBRANCH   1  18
TORSDOF 4
ENDMDL
