MODEL 1
REMARK VINA RESULT:     -12.0      0.000      0.000
REMARK  Name = 46937030
REMARK  7 active torsions:
REMARK  status: ('A' for Active; 'I' for Inactive)
REMARK    1  A    between atoms: C_3  and  C_10
REMARK    2  A    between atoms: C_7  and  C_25
REMARK    3  A    between atoms: N_9  and  C_12
REMARK    4  A    between atoms: C_12  and  C_13
REMARK    5  A    between atoms: C_18  and  C_21
REMARK    6  A    between atoms: C_25  and  N_26
REMARK    7  A    between atoms: N_26  and  C_29
REMARK                            x       y       z     vdW  Elec       q    Type
REMARK                         _______ _______ _______ _____ _____    ______ ____
ROOT
ATOM      1  O   UNL     1      34.253 -25.003 -10.937  0.00  0.00    -0.277 OA
ATOM      2  N   UNL     1      35.042 -23.847 -12.775  0.00  0.00    -0.275 N 
ATOM      3  C   UNL     1      34.946 -22.821 -13.812  0.00  0.00    +0.152 C 
ATOM      4  C   UNL     1      36.395 -22.490 -14.156  0.00  0.00    +0.031 C 
ATOM      5  C   UNL     1      36.402 -24.357 -12.667  0.00  0.00    +0.094 C 
ATOM      6  C   UNL     1      37.133 -23.797 -13.877  0.00  0.00    +0.024 C 
ATOM      7  C   UNL     1      34.059 -24.226 -11.874  0.00  0.00    +0.204 C 
ENDROOT
BRANCH   3  10
ATOM      8  O   UNL     1      34.111 -24.636 -15.119  0.00  0.00    -0.273 OA
ATOM      9  N   UNL     1      33.810 -22.460 -15.889  0.00  0.00    -0.299 N 
ATOM     10  C   UNL     1      34.244 -23.422 -14.993  0.00  0.00    +0.241 C 
ATOM     11  H   UNL     1      33.976 -21.513 -15.677  0.00  0.00    +0.150 HD
BRANCH   9  12
ATOM     12  C   UNL     1      33.125 -22.778 -17.121  0.00  0.00    +0.116 C 
BRANCH  12  13
ATOM     13  C   UNL     1      33.355 -21.736 -18.177  0.00  0.00    -0.003 C 
ATOM     14  C   UNL     1      34.656 -21.387 -18.541  0.00  0.00    -0.003 C 
ATOM     15  C   UNL     1      32.268 -21.116 -18.793  0.00  0.00    -0.003 C 
ATOM     16  C   UNL     1      34.870 -20.419 -19.522  0.00  0.00    +0.002 C 
ATOM     17  C   UNL     1      32.482 -20.147 -19.774  0.00  0.00    +0.002 C 
ATOM     18  C   UNL     1      33.783 -19.799 -20.139  0.00  0.00    +0.031 C 
BRANCH  18  21
ATOM     19  N   UNL     1      33.727 -19.044 -22.503  0.00  0.00    -0.343 N 
ATOM     20  N   UNL     1      34.485 -17.605 -20.825  0.00  0.00    -0.285 NA
ATOM     21  C   UNL     1      34.005 -18.790 -21.162  0.00  0.00    +0.117 C 
ATOM     22  H   UNL     1      33.885 -18.346 -23.179  0.00  0.00    +0.144 HD
ATOM     23  H   UNL     1      33.372 -19.921 -22.775  0.00  0.00    +0.144 HD
ATOM     24  H   UNL     1      34.637 -16.921 -21.517  0.00  0.00    +0.188 HD
ENDBRANCH  18  21
ENDBRANCH  12  13
ENDBRANCH   9  12
ENDBRANCH   3  10
BRANCH   7  25
ATOM     25  C   UNL     1      32.693 -23.628 -12.092  0.00  0.00    +0.006 C 
BRANCH  25  26
ATOM     26  N   UNL     1      31.909 -24.612 -12.820  0.00  0.00    +0.391 N 
ATOM     27  H   UNL     1      32.205 -24.622 -13.796  0.00  0.00    -0.084 HD
ATOM     28  H   UNL     1      32.058 -25.529 -12.398  0.00  0.00    -0.084 HD
BRANCH  26  29
ATOM     29  C   UNL     1      30.481 -24.287 -12.752  0.00  0.00    -0.061 C 
ATOM     30  C   UNL     1      30.267 -22.779 -12.941  0.00  0.00    -0.021 C 
ATOM     31  C   UNL     1      29.713 -25.219 -13.701  0.00  0.00    -0.021 C 
ATOM     32  C   UNL     1      28.237 -24.867 -13.895  0.00  0.00    -0.002 C 
ATOM     33  C   UNL     1      30.688 -22.165 -14.277  0.00  0.00    -0.002 C 
ATOM     34  C   UNL     1      27.919 -24.179 -15.225  0.00  0.00    -0.000 C 
ATOM     35  C   UNL     1      29.963 -22.643 -15.534  0.00  0.00    -0.000 C 
ATOM     36  C   UNL     1      28.443 -22.752 -15.407  0.00  0.00    -0.000 C 
ENDBRANCH  26  29
ENDBRANCH  25  26
ENDBRANCH   7  25
TORSDOF 7
ENDMDL
MODEL 2
REMARK VINA RESULT:     -10.5      2.230      6.683
REMARK  Name = 46937030
REMARK  7 active torsions:
REMARK  status: ('A' for Active; 'I' for Inactive)
REMARK    1  A    between atoms: C_3  and  C_10
REMARK    2  A    between atoms: C_7  and  C_25
REMARK    3  A    between atoms: N_9  and  C_12
REMARK    4  A    between atoms: C_12  and  C_13
REMARK    5  A    between atoms: C_18  and  C_21
REMARK    6  A    between atoms: C_25  and  N_26
REMARK    7  A    between atoms: N_26  and  C_29
REMARK                            x       y       z     vdW  Elec       q    Type
REMARK                         _______ _______ _______ _____ _____    ______ ____
ROOT
ATOM      1  O   UNL     1      37.336 -22.141 -15.426  0.00  0.00    -0.277 OA
ATOM      2  N   UNL     1      36.242 -23.932 -14.461  0.00  0.00    -0.275 N 
ATOM      3  C   UNL     1      35.107 -24.840 -14.306  0.00  0.00    +0.152 C 
ATOM      4  C   UNL     1      35.720 -26.130 -13.769  0.00  0.00    +0.031 C 
ATOM      5  C   UNL     1      37.431 -24.464 -13.806  0.00  0.00    +0.094 C 
ATOM      6  C   UNL     1      36.937 -25.644 -12.985  0.00  0.00    +0.024 C 
ATOM      7  C   UNL     1      36.303 -22.785 -15.235  0.00  0.00    +0.204 C 
ENDROOT
BRANCH   3  10
ATOM      8  O   UNL     1      34.557 -23.459 -12.438  0.00  0.00    -0.273 OA
ATOM      9  N   UNL     1      32.870 -24.690 -13.466  0.00  0.00    -0.299 N 
ATOM     10  C   UNL     1      34.169 -24.241 -13.302  0.00  0.00    +0.241 C 
ATOM     11  H   UNL     1      32.680 -25.319 -14.200  0.00  0.00    +0.150 HD
BRANCH   9  12
ATOM     12  C   UNL     1      31.778 -24.282 -12.612  0.00  0.00    +0.116 C 
BRANCH  12  13
ATOM     13  C   UNL     1      30.555 -23.913 -13.402  0.00  0.00    -0.003 C 
ATOM     14  C   UNL     1      30.474 -22.663 -14.017  0.00  0.00    -0.003 C 
ATOM     15  C   UNL     1      29.502 -24.819 -13.521  0.00  0.00    -0.003 C 
ATOM     16  C   UNL     1      29.338 -22.319 -14.751  0.00  0.00    +0.002 C 
ATOM     17  C   UNL     1      28.366 -24.475 -14.255  0.00  0.00    +0.002 C 
ATOM     18  C   UNL     1      28.285 -23.226 -14.870  0.00  0.00    +0.031 C 
BRANCH  18  21
ATOM     19  N   UNL     1      26.089 -22.085 -15.083  0.00  0.00    -0.343 N 
ATOM     20  N   UNL     1      26.969 -23.292 -16.880  0.00  0.00    -0.285 NA
ATOM     21  C   UNL     1      27.101 -22.868 -15.636  0.00  0.00    +0.117 C 
ATOM     22  H   UNL     1      25.297 -21.856 -15.620  0.00  0.00    +0.144 HD
ATOM     23  H   UNL     1      26.167 -21.762 -14.157  0.00  0.00    +0.144 HD
ATOM     24  H   UNL     1      26.168 -23.052 -17.400  0.00  0.00    +0.188 HD
ENDBRANCH  18  21
ENDBRANCH  12  13
ENDBRANCH   9  12
ENDBRANCH   3  10
BRANCH   7  25
ATOM     25  C   UNL     1      35.006 -22.338 -15.861  0.00  0.00    +0.006 C 
BRANCH  25  26
ATOM     26  N   UNL     1      35.276 -21.090 -16.555  0.00  0.00    +0.391 N 
ATOM     27  H   UNL     1      34.525 -20.428 -16.361  0.00  0.00    -0.084 HD
ATOM     28  H   UNL     1      36.167 -20.718 -16.228  0.00  0.00    -0.084 HD
BRANCH  26  29
ATOM     29  C   UNL     1      35.360 -21.313 -18.002  0.00  0.00    -0.061 C 
ATOM     30  C   UNL     1      34.128 -22.083 -18.497  0.00  0.00    -0.021 C 
ATOM     31  C   UNL     1      35.664 -19.975 -18.694  0.00  0.00    -0.021 C 
ATOM     32  C   UNL     1      35.580 -20.007 -20.221  0.00  0.00    -0.002 C 
ATOM     33  C   UNL     1      32.763 -21.412 -18.339  0.00  0.00    -0.002 C 
ATOM     34  C   UNL     1      34.313 -19.370 -20.799  0.00  0.00    -0.000 C 
ATOM     35  C   UNL     1      32.523 -20.110 -19.102  0.00  0.00    -0.000 C 
ATOM     36  C   UNL     1      32.996 -20.111 -20.557  0.00  0.00    -0.000 C 
ENDBRANCH  26  29
ENDBRANCH  25  26
ENDBRANCH   7  25
TORSDOF 7
ENDMDL
MODEL 3
REMARK VINA RESULT:     -10.2      1.195      1.713
REMARK  Name = 46937030
REMARK  7 active torsions:
REMARK  status: ('A' for Active; 'I' for Inactive)
REMARK    1  A    between atoms: C_3  and  C_10
REMARK    2  A    between atoms: C_7  and  C_25
REMARK    3  A    between atoms: N_9  and  C_12
REMARK    4  A    between atoms: C_12  and  C_13
REMARK    5  A    between atoms: C_18  and  C_21
REMARK    6  A    between atoms: C_25  and  N_26
REMARK    7  A    between atoms: N_26  and  C_29
REMARK                            x       y       z     vdW  Elec       q    Type
REMARK                         _______ _______ _______ _____ _____    ______ ____
ROOT
ATOM      1  O   UNL     1      34.636 -25.050 -12.711  0.00  0.00    -0.277 OA
ATOM      2  N   UNL     1      35.173 -23.364 -14.196  0.00  0.00    -0.275 N 
ATOM      3  C   UNL     1      34.890 -22.134 -14.933  0.00  0.00    +0.152 C 
ATOM      4  C   UNL     1      36.262 -21.520 -15.193  0.00  0.00    +0.031 C 
ATOM      5  C   UNL     1      36.594 -23.682 -14.235  0.00  0.00    +0.094 C 
ATOM      6  C   UNL     1      37.185 -22.734 -15.266  0.00  0.00    +0.024 C 
ATOM      7  C   UNL     1      34.295 -24.098 -13.414  0.00  0.00    +0.204 C 
ENDROOT
BRANCH   3  10
ATOM      8  O   UNL     1      33.393 -23.412 -16.284  0.00  0.00    -0.273 OA
ATOM      9  N   UNL     1      34.677 -21.749 -17.286  0.00  0.00    -0.299 N 
ATOM     10  C   UNL     1      34.224 -22.510 -16.222  0.00  0.00    +0.241 C 
ATOM     11  H   UNL     1      35.349 -21.050 -17.111  0.00  0.00    +0.150 HD
BRANCH   9  12
ATOM     12  C   UNL     1      34.210 -21.928 -18.642  0.00  0.00    +0.116 C 
BRANCH  12  13
ATOM     13  C   UNL     1      34.263 -20.650 -19.428  0.00  0.00    -0.003 C 
ATOM     14  C   UNL     1      33.094 -20.119 -19.973  0.00  0.00    -0.003 C 
ATOM     15  C   UNL     1      35.480 -19.995 -19.614  0.00  0.00    -0.003 C 
ATOM     16  C   UNL     1      33.142 -18.931 -20.704  0.00  0.00    +0.002 C 
ATOM     17  C   UNL     1      35.529 -18.807 -20.345  0.00  0.00    +0.002 C 
ATOM     18  C   UNL     1      34.360 -18.275 -20.889  0.00  0.00    +0.031 C 
BRANCH  18  21
ATOM     19  N   UNL     1      34.629 -17.040 -23.026  0.00  0.00    -0.343 N 
ATOM     20  N   UNL     1      34.253 -15.879 -21.034  0.00  0.00    -0.285 NA
ATOM     21  C   UNL     1      34.411 -17.037 -21.650  0.00  0.00    +0.117 C 
ATOM     22  H   UNL     1      34.659 -16.190 -23.522  0.00  0.00    +0.144 HD
ATOM     23  H   UNL     1      34.752 -17.893 -23.503  0.00  0.00    +0.144 HD
ATOM     24  H   UNL     1      34.288 -15.039 -21.547  0.00  0.00    +0.188 HD
ENDBRANCH  18  21
ENDBRANCH  12  13
ENDBRANCH   9  12
ENDBRANCH   3  10
BRANCH   7  25
ATOM     25  C   UNL     1      32.850 -23.668 -13.459  0.00  0.00    +0.006 C 
BRANCH  25  26
ATOM     26  N   UNL     1      32.050 -24.830 -13.109  0.00  0.00    +0.391 N 
ATOM     27  H   UNL     1      32.095 -25.510 -13.869  0.00  0.00    -0.084 HD
ATOM     28  H   UNL     1      32.420 -25.238 -12.250  0.00  0.00    -0.084 HD
BRANCH  26  29
ATOM     29  C   UNL     1      30.652 -24.446 -12.887  0.00  0.00    -0.061 C 
ATOM     30  C   UNL     1      30.499 -22.921 -12.957  0.00  0.00    -0.021 C 
ATOM     31  C   UNL     1      29.756 -25.276 -13.818  0.00  0.00    -0.021 C 
ATOM     32  C   UNL     1      28.288 -24.845 -13.850  0.00  0.00    -0.002 C 
ATOM     33  C   UNL     1      30.829 -22.237 -14.284  0.00  0.00    -0.002 C 
ATOM     34  C   UNL     1      27.886 -24.054 -15.098  0.00  0.00    -0.000 C 
ATOM     35  C   UNL     1      29.969 -22.594 -15.496  0.00  0.00    -0.000 C 
ATOM     36  C   UNL     1      28.463 -22.643 -15.235  0.00  0.00    -0.000 C 
ENDBRANCH  26  29
ENDBRANCH  25  26
ENDBRANCH   7  25
TORSDOF 7
ENDMDL
MODEL 4
REMARK VINA RESULT:      -9.8     11.138     16.363
REMARK  Name = 46937030
REMARK  7 active torsions:
REMARK  status: ('A' for Active; 'I' for Inactive)
REMARK    1  A    between atoms: C_3  and  C_10
REMARK    2  A    between atoms: C_7  and  C_25
REMARK    3  A    between atoms: N_9  and  C_12
REMARK    4  A    between atoms: C_12  and  C_13
REMARK    5  A    between atoms: C_18  and  C_21
REMARK    6  A    between atoms: C_25  and  N_26
REMARK    7  A    between atoms: N_26  and  C_29
REMARK                            x       y       z     vdW  Elec       q    Type
REMARK                         _______ _______ _______ _____ _____    ______ ____
ROOT
ATOM      1  O   UNL     1      29.250  -4.949 -21.984  0.00  0.00    -0.277 OA
ATOM      2  N   UNL     1      30.688  -6.137 -20.620  0.00  0.00    -0.275 N 
ATOM      3  C   UNL     1      31.636  -7.216 -20.347  0.00  0.00    +0.152 C 
ATOM      4  C   UNL     1      32.509  -6.679 -19.218  0.00  0.00    +0.031 C 
ATOM      5  C   UNL     1      30.735  -5.122 -19.576  0.00  0.00    +0.094 C 
ATOM      6  C   UNL     1      31.576  -5.732 -18.467  0.00  0.00    +0.024 C 
ATOM      7  C   UNL     1      29.928  -5.955 -21.765  0.00  0.00    +0.204 C 
ENDROOT
BRANCH   3  10
ATOM      8  O   UNL     1      30.188  -8.397 -18.860  0.00  0.00    -0.273 OA
ATOM      9  N   UNL     1      31.006  -9.491 -20.745  0.00  0.00    -0.299 N 
ATOM     10  C   UNL     1      30.856  -8.412 -19.891  0.00  0.00    +0.241 C 
ATOM     11  H   UNL     1      31.570  -9.382 -21.545  0.00  0.00    +0.150 HD
BRANCH   9  12
ATOM     12  C   UNL     1      30.376 -10.773 -20.520  0.00  0.00    +0.116 C 
BRANCH  12  13
ATOM     13  C   UNL     1      31.303 -11.915 -20.822  0.00  0.00    -0.003 C 
ATOM     14  C   UNL     1      32.019 -11.933 -22.019  0.00  0.00    -0.003 C 
ATOM     15  C   UNL     1      31.447 -12.958 -19.906  0.00  0.00    -0.003 C 
ATOM     16  C   UNL     1      32.880 -12.995 -22.300  0.00  0.00    +0.002 C 
ATOM     17  C   UNL     1      32.308 -14.019 -20.187  0.00  0.00    +0.002 C 
ATOM     18  C   UNL     1      33.025 -14.037 -21.384  0.00  0.00    +0.031 C 
BRANCH  18  21
ATOM     19  N   UNL     1      34.139 -16.164 -20.753  0.00  0.00    -0.343 N 
ATOM     20  N   UNL     1      34.555 -15.189 -22.835  0.00  0.00    -0.285 NA
ATOM     21  C   UNL     1      33.922 -15.143 -21.676  0.00  0.00    +0.117 C 
ATOM     22  H   UNL     1      34.751 -16.903 -20.972  0.00  0.00    +0.144 HD
ATOM     23  H   UNL     1      33.680 -16.146 -19.882  0.00  0.00    +0.144 HD
ATOM     24  H   UNL     1      35.163 -15.937 -23.035  0.00  0.00    +0.188 HD
ENDBRANCH  18  21
ENDBRANCH  12  13
ENDBRANCH   9  12
ENDBRANCH   3  10
BRANCH   7  25
ATOM     25  C   UNL     1      29.964  -7.078 -22.771  0.00  0.00    +0.006 C 
BRANCH  25  26
ATOM     26  N   UNL     1      30.257  -6.481 -24.063  0.00  0.00    +0.391 N 
ATOM     27  H   UNL     1      29.440  -6.572 -24.668  0.00  0.00    -0.084 HD
ATOM     28  H   UNL     1      30.486  -5.496 -23.927  0.00  0.00    -0.084 HD
BRANCH  26  29
ATOM     29  C   UNL     1      31.400  -7.150 -24.693  0.00  0.00    -0.061 C 
ATOM     30  C   UNL     1      32.561  -6.164 -24.880  0.00  0.00    -0.021 C 
ATOM     31  C   UNL     1      31.707  -8.441 -23.919  0.00  0.00    -0.021 C 
ATOM     32  C   UNL     1      33.001  -9.146 -24.331  0.00  0.00    -0.002 C 
ATOM     33  C   UNL     1      33.180  -5.552 -23.623  0.00  0.00    -0.002 C 
ATOM     34  C   UNL     1      34.165  -8.955 -23.355  0.00  0.00    -0.000 C 
ATOM     35  C   UNL     1      33.863  -6.500 -22.638  0.00  0.00    -0.000 C 
ATOM     36  C   UNL     1      34.773  -7.553 -23.272  0.00  0.00    -0.000 C 
ENDBRANCH  26  29
ENDBRANCH  25  26
ENDBRANCH   7  25
TORSDOF 7
ENDMDL
MODEL 5
REMARK VINA RESULT:      -9.6      1.583      2.453
REMARK  Name = 46937030
REMARK  7 active torsions:
REMARK  status: ('A' for Active; 'I' for Inactive)
REMARK    1  A    between atoms: C_3  and  C_10
REMARK    2  A    between atoms: C_7  and  C_25
REMARK    3  A    between atoms: N_9  and  C_12
REMARK    4  A    between atoms: C_12  and  C_13
REMARK    5  A    between atoms: C_18  and  C_21
REMARK    6  A    between atoms: C_25  and  N_26
REMARK    7  A    between atoms: N_26  and  C_29
REMARK                            x       y       z     vdW  Elec       q    Type
REMARK                         _______ _______ _______ _____ _____    ______ ____
ROOT
ATOM      1  O   UNL     1      32.379 -24.633 -11.988  0.00  0.00    -0.277 OA
ATOM      2  N   UNL     1      34.515 -23.764 -12.137  0.00  0.00    -0.275 N 
ATOM      3  C   UNL     1      35.491 -22.762 -12.561  0.00  0.00    +0.152 C 
ATOM      4  C   UNL     1      36.614 -22.864 -11.533  0.00  0.00    +0.031 C 
ATOM      5  C   UNL     1      35.077 -24.644 -11.119  0.00  0.00    +0.094 C 
ATOM      6  C   UNL     1      36.563 -24.326 -11.097  0.00  0.00    +0.024 C 
ATOM      7  C   UNL     1      33.177 -23.839 -12.491  0.00  0.00    +0.204 C 
ENDROOT
BRANCH   3  10
ATOM      8  O   UNL     1      36.186 -24.313 -14.236  0.00  0.00    -0.273 OA
ATOM      9  N   UNL     1      36.187 -22.040 -14.734  0.00  0.00    -0.299 N 
ATOM     10  C   UNL     1      35.983 -23.143 -13.924  0.00  0.00    +0.241 C 
ATOM     11  H   UNL     1      35.987 -21.147 -14.371  0.00  0.00    +0.150 HD
BRANCH   9  12
ATOM     12  C   UNL     1      36.681 -22.133 -16.090  0.00  0.00    +0.116 C 
BRANCH  12  13
ATOM     13  C   UNL     1      35.670 -21.653 -17.090  0.00  0.00    -0.003 C 
ATOM     14  C   UNL     1      36.070 -20.832 -18.145  0.00  0.00    -0.003 C 
ATOM     15  C   UNL     1      34.332 -22.027 -16.965  0.00  0.00    -0.003 C 
ATOM     16  C   UNL     1      35.131 -20.384 -19.075  0.00  0.00    +0.002 C 
ATOM     17  C   UNL     1      33.393 -21.580 -17.895  0.00  0.00    +0.002 C 
ATOM     18  C   UNL     1      33.793 -20.759 -18.950  0.00  0.00    +0.031 C 
BRANCH  18  21
ATOM     19  N   UNL     1      33.189 -19.512 -21.011  0.00  0.00    -0.343 N 
ATOM     20  N   UNL     1      31.539 -20.609 -19.772  0.00  0.00    -0.285 NA
ATOM     21  C   UNL     1      32.814 -20.294 -19.920  0.00  0.00    +0.117 C 
ATOM     22  H   UNL     1      32.510 -19.208 -21.655  0.00  0.00    +0.144 HD
ATOM     23  H   UNL     1      34.133 -19.264 -21.137  0.00  0.00    +0.144 HD
ATOM     24  H   UNL     1      30.875 -20.295 -20.427  0.00  0.00    +0.188 HD
ENDBRANCH  18  21
ENDBRANCH  12  13
ENDBRANCH   9  12
ENDBRANCH   3  10
BRANCH   7  25
ATOM     25  C   UNL     1      32.718 -22.874 -13.555  0.00  0.00    +0.006 C 
BRANCH  25  26
ATOM     26  N   UNL     1      31.317 -22.588 -13.292  0.00  0.00    +0.391 N 
ATOM     27  H   UNL     1      30.948 -23.286 -12.646  0.00  0.00    -0.084 HD
ATOM     28  H   UNL     1      31.242 -21.656 -12.886  0.00  0.00    -0.084 HD
BRANCH  26  29
ATOM     29  C   UNL     1      30.542 -22.625 -14.536  0.00  0.00    -0.061 C 
ATOM     30  C   UNL     1      30.448 -24.063 -15.065  0.00  0.00    -0.021 C 
ATOM     31  C   UNL     1      29.216 -21.880 -14.318  0.00  0.00    -0.021 C 
ATOM     32  C   UNL     1      28.210 -22.009 -15.463  0.00  0.00    -0.002 C 
ATOM     33  C   UNL     1      29.732 -25.094 -14.192  0.00  0.00    -0.002 C 
ATOM     34  C   UNL     1      27.057 -22.978 -15.189  0.00  0.00    -0.000 C 
ATOM     35  C   UNL     1      28.247 -24.872 -13.912  0.00  0.00    -0.000 C 
ATOM     36  C   UNL     1      27.408 -24.467 -15.125  0.00  0.00    -0.000 C 
ENDBRANCH  26  29
ENDBRANCH  25  26
ENDBRANCH   7  25
TORSDOF 7
ENDMDL
MODEL 6
REMARK VINA RESULT:      -9.6     12.836     16.513
REMARK  Name = 46937030
REMARK  7 active torsions:
REMARK  status: ('A' for Active; 'I' for Inactive)
REMARK    1  A    between atoms: C_3  and  C_10
REMARK    2  A    between atoms: C_7  and  C_25
REMARK    3  A    between atoms: N_9  and  C_12
REMARK    4  A    between atoms: C_12  and  C_13
REMARK    5  A    between atoms: C_18  and  C_21
REMARK    6  A    between atoms: C_25  and  N_26
REMARK    7  A    between atoms: N_26  and  C_29
REMARK                            x       y       z     vdW  Elec       q    Type
REMARK                         _______ _______ _______ _____ _____    ______ ____
ROOT
ATOM      1  O   UNL     1      30.247  -4.511 -23.273  0.00  0.00    -0.277 OA
ATOM      2  N   UNL     1      31.961  -5.525 -24.444  0.00  0.00    -0.275 N 
ATOM      3  C   UNL     1      32.581  -6.653 -25.137  0.00  0.00    +0.152 C 
ATOM      4  C   UNL     1      33.541  -6.008 -26.132  0.00  0.00    +0.031 C 
ATOM      5  C   UNL     1      32.663  -4.282 -24.735  0.00  0.00    +0.094 C 
ATOM      6  C   UNL     1      33.939  -4.704 -25.446  0.00  0.00    +0.024 C 
ATOM      7  C   UNL     1      30.781  -5.529 -23.717  0.00  0.00    +0.204 C 
ENDROOT
BRANCH   3  10
ATOM      8  O   UNL     1      34.052  -6.938 -23.278  0.00  0.00    -0.273 OA
ATOM      9  N   UNL     1      33.125  -8.822 -24.283  0.00  0.00    -0.299 N 
ATOM     10  C   UNL     1      33.331  -7.463 -24.123  0.00  0.00    +0.241 C 
ATOM     11  H   UNL     1      32.521  -9.124 -25.000  0.00  0.00    +0.150 HD
BRANCH   9  12
ATOM     12  C   UNL     1      33.752  -9.821 -23.447  0.00  0.00    +0.116 C 
BRANCH  12  13
ATOM     13  C   UNL     1      33.358 -11.214 -23.845  0.00  0.00    -0.003 C 
ATOM     14  C   UNL     1      32.995 -11.485 -25.165  0.00  0.00    -0.003 C 
ATOM     15  C   UNL     1      33.353 -12.236 -22.896  0.00  0.00    -0.003 C 
ATOM     16  C   UNL     1      32.629 -12.780 -25.535  0.00  0.00    +0.002 C 
ATOM     17  C   UNL     1      32.987 -13.530 -23.266  0.00  0.00    +0.002 C 
ATOM     18  C   UNL     1      32.625 -13.802 -24.586  0.00  0.00    +0.031 C 
BRANCH  18  21
ATOM     19  N   UNL     1      32.803 -16.267 -24.352  0.00  0.00    -0.343 N 
ATOM     20  N   UNL     1      31.354 -15.336 -25.930  0.00  0.00    -0.285 NA
ATOM     21  C   UNL     1      32.244 -15.151 -24.971  0.00  0.00    +0.117 C 
ATOM     22  H   UNL     1      32.529 -17.172 -24.629  0.00  0.00    +0.144 HD
ATOM     23  H   UNL     1      33.470 -16.152 -23.638  0.00  0.00    +0.144 HD
ATOM     24  H   UNL     1      31.095 -16.248 -26.193  0.00  0.00    +0.188 HD
ENDBRANCH  18  21
ENDBRANCH  12  13
ENDBRANCH   9  12
ENDBRANCH   3  10
BRANCH   7  25
ATOM     25  C   UNL     1      30.151  -6.878 -23.484  0.00  0.00    +0.006 C 
BRANCH  25  26
ATOM     26  N   UNL     1      30.090  -7.076 -22.045  0.00  0.00    +0.391 N 
ATOM     27  H   UNL     1      30.337  -6.204 -21.576  0.00  0.00    -0.084 HD
ATOM     28  H   UNL     1      29.143  -7.357 -21.791  0.00  0.00    -0.084 HD
BRANCH  26  29
ATOM     29  C   UNL     1      31.024  -8.128 -21.629  0.00  0.00    -0.061 C 
ATOM     30  C   UNL     1      31.891  -7.642 -20.461  0.00  0.00    -0.021 C 
ATOM     31  C   UNL     1      30.239  -9.431 -21.415  0.00  0.00    -0.021 C 
ATOM     32  C   UNL     1      31.043 -10.569 -20.782  0.00  0.00    -0.002 C 
ATOM     33  C   UNL     1      31.183  -7.286 -19.153  0.00  0.00    -0.002 C 
ATOM     34  C   UNL     1      30.743 -10.809 -19.300  0.00  0.00    -0.000 C 
ATOM     35  C   UNL     1      30.446  -8.407 -18.421  0.00  0.00    -0.000 C 
ATOM     36  C   UNL     1      31.207  -9.729 -18.319  0.00  0.00    -0.000 C 
ENDBRANCH  26  29
ENDBRANCH  25  26
ENDBRANCH   7  25
TORSDOF 7
ENDMDL
MODEL 7
REMARK VINA RESULT:      -9.4      1.646      4.875
REMARK  Name = 46937030
REMARK  7 active torsions:
REMARK  status: ('A' for Active; 'I' for Inactive)
REMARK    1  A    between atoms: C_3  and  C_10
REMARK    2  A    between atoms: C_7  and  C_25
REMARK    3  A    between atoms: N_9  and  C_12
REMARK    4  A    between atoms: C_12  and  C_13
REMARK    5  A    between atoms: C_18  and  C_21
REMARK    6  A    between atoms: C_25  and  N_26
REMARK    7  A    between atoms: N_26  and  C_29
REMARK                            x       y       z     vdW  Elec       q    Type
REMARK                         _______ _______ _______ _____ _____    ______ ____
ROOT
ATOM      1  O   UNL     1      29.986 -24.053 -11.808  0.00  0.00    -0.277 OA
ATOM      2  N   UNL     1      30.212 -23.411 -14.016  0.00  0.00    -0.275 N 
ATOM      3  C   UNL     1      30.754 -23.548 -15.367  0.00  0.00    +0.152 C 
ATOM      4  C   UNL     1      29.700 -22.911 -16.266  0.00  0.00    +0.031 C 
ATOM      5  C   UNL     1      29.069 -22.508 -13.999  0.00  0.00    +0.094 C 
ATOM      6  C   UNL     1      29.062 -21.852 -15.370  0.00  0.00    +0.024 C 
ATOM      7  C   UNL     1      30.579 -24.125 -12.886  0.00  0.00    +0.204 C 
ENDROOT
BRANCH   3  10
ATOM      8  O   UNL     1      32.382 -22.015 -14.530  0.00  0.00    -0.273 OA
ATOM      9  N   UNL     1      32.740 -23.024 -16.597  0.00  0.00    -0.299 N 
ATOM     10  C   UNL     1      32.040 -22.779 -15.429  0.00  0.00    +0.241 C 
ATOM     11  H   UNL     1      32.362 -23.662 -17.246  0.00  0.00    +0.150 HD
BRANCH   9  12
ATOM     12  C   UNL     1      34.000 -22.390 -16.913  0.00  0.00    +0.116 C 
BRANCH  12  13
ATOM     13  C   UNL     1      33.888 -21.477 -18.099  0.00  0.00    -0.003 C 
ATOM     14  C   UNL     1      32.632 -21.151 -18.611  0.00  0.00    -0.003 C 
ATOM     15  C   UNL     1      35.039 -20.956 -18.690  0.00  0.00    -0.003 C 
ATOM     16  C   UNL     1      32.527 -20.302 -19.714  0.00  0.00    +0.002 C 
ATOM     17  C   UNL     1      34.934 -20.108 -19.793  0.00  0.00    +0.002 C 
ATOM     18  C   UNL     1      33.678 -19.781 -20.304  0.00  0.00    +0.031 C 
BRANCH  18  21
ATOM     19  N   UNL     1      32.718 -19.190 -22.516  0.00  0.00    -0.343 N 
ATOM     20  N   UNL     1      34.291 -17.790 -21.503  0.00  0.00    -0.285 NA
ATOM     21  C   UNL     1      33.570 -18.896 -21.453  0.00  0.00    +0.117 C 
ATOM     22  H   UNL     1      32.660 -18.576 -23.284  0.00  0.00    +0.144 HD
ATOM     23  H   UNL     1      32.174 -20.010 -22.499  0.00  0.00    +0.144 HD
ATOM     24  H   UNL     1      34.219 -17.190 -22.280  0.00  0.00    +0.188 HD
ENDBRANCH  18  21
ENDBRANCH  12  13
ENDBRANCH   9  12
ENDBRANCH   3  10
BRANCH   7  25
ATOM     25  C   UNL     1      31.778 -25.027 -13.032  0.00  0.00    +0.006 C 
BRANCH  25  26
ATOM     26  N   UNL     1      32.728 -24.642 -12.001  0.00  0.00    +0.391 N 
ATOM     27  H   UNL     1      32.269 -24.018 -11.337  0.00  0.00    -0.084 HD
ATOM     28  H   UNL     1      33.057 -25.482 -11.526  0.00  0.00    -0.084 HD
BRANCH  26  29
ATOM     29  C   UNL     1      33.879 -23.953 -12.593  0.00  0.00    -0.061 C 
ATOM     30  C   UNL     1      34.860 -23.513 -11.498  0.00  0.00    -0.021 C 
ATOM     31  C   UNL     1      34.449 -24.820 -13.726  0.00  0.00    -0.021 C 
ATOM     32  C   UNL     1      35.778 -24.330 -14.305  0.00  0.00    -0.002 C 
ATOM     33  C   UNL     1      35.520 -24.607 -10.657  0.00  0.00    -0.002 C 
ATOM     34  C   UNL     1      37.002 -25.125 -13.845  0.00  0.00    -0.000 C 
ATOM     35  C   UNL     1      36.434 -25.598 -11.378  0.00  0.00    -0.000 C 
ATOM     36  C   UNL     1      37.410 -24.975 -12.377  0.00  0.00    -0.000 C 
ENDBRANCH  26  29
ENDBRANCH  25  26
ENDBRANCH   7  25
TORSDOF 7
ENDMDL
MODEL 8
REMARK VINA RESULT:      -9.4      8.368     13.149
REMARK  Name = 46937030
REMARK  7 active torsions:
REMARK  status: ('A' for Active; 'I' for Inactive)
REMARK    1  A    between atoms: C_3  and  C_10
REMARK    2  A    between atoms: C_7  and  C_25
REMARK    3  A    between atoms: N_9  and  C_12
REMARK    4  A    between atoms: C_12  and  C_13
REMARK    5  A    between atoms: C_18  and  C_21
REMARK    6  A    between atoms: C_25  and  N_26
REMARK    7  A    between atoms: N_26  and  C_29
REMARK                            x       y       z     vdW  Elec       q    Type
REMARK                         _______ _______ _______ _____ _____    ______ ____
ROOT
ATOM      1  O   UNL     1      33.233 -15.995 -24.733  0.00  0.00    -0.277 OA
ATOM      2  N   UNL     1      33.125 -13.789 -24.056  0.00  0.00    -0.275 N 
ATOM      3  C   UNL     1      33.378 -12.697 -23.117  0.00  0.00    +0.152 C 
ATOM      4  C   UNL     1      33.431 -11.448 -23.992  0.00  0.00    +0.031 C 
ATOM      5  C   UNL     1      32.744 -13.276 -25.365  0.00  0.00    +0.094 C 
ATOM      6  C   UNL     1      32.503 -11.790 -25.155  0.00  0.00    +0.024 C 
ATOM      7  C   UNL     1      33.341 -15.142 -23.850  0.00  0.00    +0.204 C 
ENDROOT
BRANCH   3  10
ATOM      8  O   UNL     1      31.615 -13.635 -21.810  0.00  0.00    -0.273 OA
ATOM      9  N   UNL     1      31.941 -11.330 -21.776  0.00  0.00    -0.299 N 
ATOM     10  C   UNL     1      32.224 -12.629 -22.164  0.00  0.00    +0.241 C 
ATOM     11  H   UNL     1      32.503 -10.602 -22.128  0.00  0.00    +0.150 HD
BRANCH   9  12
ATOM     12  C   UNL     1      30.860 -10.990 -20.879  0.00  0.00    +0.116 C 
BRANCH  12  13
ATOM     13  C   UNL     1      30.919  -9.552 -20.449  0.00  0.00    -0.003 C 
ATOM     14  C   UNL     1      30.834  -9.226 -19.095  0.00  0.00    -0.003 C 
ATOM     15  C   UNL     1      31.058  -8.544 -21.403  0.00  0.00    -0.003 C 
ATOM     16  C   UNL     1      30.888  -7.891 -18.695  0.00  0.00    +0.002 C 
ATOM     17  C   UNL     1      31.112  -7.208 -21.002  0.00  0.00    +0.002 C 
ATOM     18  C   UNL     1      31.027  -6.882 -19.649  0.00  0.00    +0.031 C 
BRANCH  18  21
ATOM     19  N   UNL     1      30.530  -4.477 -20.011  0.00  0.00    -0.343 N 
ATOM     20  N   UNL     1      31.676  -5.167 -18.096  0.00  0.00    -0.285 NA
ATOM     21  C   UNL     1      31.085  -5.490 -19.232  0.00  0.00    +0.117 C 
ATOM     22  H   UNL     1      30.580  -3.541 -19.709  0.00  0.00    +0.144 HD
ATOM     23  H   UNL     1      30.088  -4.697 -20.863  0.00  0.00    +0.144 HD
ATOM     24  H   UNL     1      31.717  -4.225 -17.812  0.00  0.00    +0.188 HD
ENDBRANCH  18  21
ENDBRANCH  12  13
ENDBRANCH   9  12
ENDBRANCH   3  10
BRANCH   7  25
ATOM     25  C   UNL     1      33.732 -15.546 -22.451  0.00  0.00    +0.006 C 
BRANCH  25  26
ATOM     26  N   UNL     1      34.939 -16.348 -22.561  0.00  0.00    +0.391 N 
ATOM     27  H   UNL     1      35.394 -16.150 -23.453  0.00  0.00    -0.084 HD
ATOM     28  H   UNL     1      35.562 -16.114 -21.789  0.00  0.00    -0.084 HD
BRANCH  26  29
ATOM     29  C   UNL     1      34.617 -17.777 -22.493  0.00  0.00    -0.061 C 
ATOM     30  C   UNL     1      35.899 -18.609 -22.360  0.00  0.00    -0.021 C 
ATOM     31  C   UNL     1      33.538 -17.992 -21.420  0.00  0.00    -0.021 C 
ATOM     32  C   UNL     1      33.244 -19.456 -21.087  0.00  0.00    -0.002 C 
ATOM     33  C   UNL     1      36.755 -18.397 -21.111  0.00  0.00    -0.002 C 
ATOM     34  C   UNL     1      33.850 -19.941 -19.768  0.00  0.00    -0.000 C 
ATOM     35  C   UNL     1      36.133 -18.748 -19.760  0.00  0.00    -0.000 C 
ATOM     36  C   UNL     1      35.374 -20.076 -19.717  0.00  0.00    -0.000 C 
ENDBRANCH  26  29
ENDBRANCH  25  26
ENDBRANCH   7  25
TORSDOF 7
ENDMDL
MODEL 9
REMARK VINA RESULT:      -9.1      1.911      5.226
REMARK  Name = 46937030
REMARK  7 active torsions:
REMARK  status: ('A' for Active; 'I' for Inactive)
REMARK    1  A    between atoms: C_3  and  C_10
REMARK    2  A    between atoms: C_7  and  C_25
REMARK    3  A    between atoms: N_9  and  C_12
REMARK    4  A    between atoms: C_12  and  C_13
REMARK    5  A    between atoms: C_18  and  C_21
REMARK    6  A    between atoms: C_25  and  N_26
REMARK    7  A    between atoms: N_26  and  C_29
REMARK                            x       y       z     vdW  Elec       q    Type
REMARK                         _______ _______ _______ _____ _____    ______ ____
ROOT
ATOM      1  O   UNL     1      31.791 -23.429 -12.408  0.00  0.00    -0.277 OA
ATOM      2  N   UNL     1      32.217 -23.157 -14.663  0.00  0.00    -0.275 N 
ATOM      3  C   UNL     1      32.995 -23.378 -15.881  0.00  0.00    +0.152 C 
ATOM      4  C   UNL     1      31.981 -23.233 -17.012  0.00  0.00    +0.031 C 
ATOM      5  C   UNL     1      30.899 -22.620 -14.974  0.00  0.00    +0.094 C 
ATOM      6  C   UNL     1      30.958 -22.251 -16.447  0.00  0.00    +0.024 C 
ATOM      7  C   UNL     1      32.556 -23.524 -13.370  0.00  0.00    +0.204 C 
ENDROOT
BRANCH   3  10
ATOM      8  O   UNL     1      34.318 -21.597 -15.000  0.00  0.00    -0.273 OA
ATOM      9  N   UNL     1      34.599 -22.218 -17.226  0.00  0.00    -0.299 N 
ATOM     10  C   UNL     1      34.039 -22.306 -15.964  0.00  0.00    +0.241 C 
ATOM     11  H   UNL     1      34.293 -22.845 -17.921  0.00  0.00    +0.150 HD
BRANCH   9  12
ATOM     12  C   UNL     1      35.614 -21.249 -17.576  0.00  0.00    +0.116 C 
BRANCH  12  13
ATOM     13  C   UNL     1      35.233 -20.448 -18.787  0.00  0.00    -0.003 C 
ATOM     14  C   UNL     1      33.931 -20.513 -19.283  0.00  0.00    -0.003 C 
ATOM     15  C   UNL     1      36.180 -19.639 -19.415  0.00  0.00    -0.003 C 
ATOM     16  C   UNL     1      33.575 -19.768 -20.408  0.00  0.00    +0.002 C 
ATOM     17  C   UNL     1      35.824 -18.895 -20.540  0.00  0.00    +0.002 C 
ATOM     18  C   UNL     1      34.522 -18.959 -21.036  0.00  0.00    +0.031 C 
BRANCH  18  21
ATOM     19  N   UNL     1      33.231 -18.664 -23.136  0.00  0.00    -0.343 N 
ATOM     20  N   UNL     1      34.698 -16.996 -22.412  0.00  0.00    -0.285 NA
ATOM     21  C   UNL     1      34.152 -18.182 -22.208  0.00  0.00    +0.117 C 
ATOM     22  H   UNL     1      32.995 -18.121 -23.923  0.00  0.00    +0.144 HD
ATOM     23  H   UNL     1      32.816 -19.547 -23.005  0.00  0.00    +0.144 HD
ATOM     24  H   UNL     1      34.449 -16.469 -23.205  0.00  0.00    +0.188 HD
ENDBRANCH  18  21
ENDBRANCH  12  13
ENDBRANCH   9  12
ENDBRANCH   3  10
BRANCH   7  25
ATOM     25  C   UNL     1      33.950 -24.068 -13.179  0.00  0.00    +0.006 C 
BRANCH  25  26
ATOM     26  N   UNL     1      34.636 -23.167 -12.268  0.00  0.00    +0.391 N 
ATOM     27  H   UNL     1      34.142 -22.274 -12.243  0.00  0.00    -0.084 HD
ATOM     28  H   UNL     1      34.651 -23.587 -11.339  0.00  0.00    -0.084 HD
BRANCH  26  29
ATOM     29  C   UNL     1      36.016 -22.942 -12.708  0.00  0.00    -0.061 C 
ATOM     30  C   UNL     1      36.995 -23.219 -11.559  0.00  0.00    -0.021 C 
ATOM     31  C   UNL     1      36.251 -23.709 -14.018  0.00  0.00    -0.021 C 
ATOM     32  C   UNL     1      37.705 -23.739 -14.494  0.00  0.00    -0.002 C 
ATOM     33  C   UNL     1      37.049 -24.641 -11.001  0.00  0.00    -0.002 C 
ATOM     34  C   UNL     1      38.426 -25.066 -14.248  0.00  0.00    -0.000 C 
ATOM     35  C   UNL     1      37.505 -25.754 -11.943  0.00  0.00    -0.000 C 
ATOM     36  C   UNL     1      38.734 -25.425 -12.792  0.00  0.00    -0.000 C 
ENDBRANCH  26  29
ENDBRANCH  25  26
ENDBRANCH   7  25
TORSDOF 7
ENDMDL
