MODEL 1
REMARK VINA RESULT:     -12.8      0.000      0.000
REMARK  Name = 11167118
REMARK  6 active torsions:
REMARK  status: ('A' for Active; 'I' for Inactive)
REMARK    1  A    between atoms: N_2  and  C_6
REMARK    2  A    between atoms: N_2  and  C_15
REMARK    3  A    between atoms: C_8  and  O_25
REMARK    4  A    between atoms: C_17  and  C_24
REMARK    5  A    between atoms: O_25  and  C_27
REMARK    6  A    between atoms: C_30  and  C_34
REMARK                            x       y       z     vdW  Elec       q    Type
REMARK                         _______ _______ _______ _____ _____    ______ ____
ROOT
ATOM      1  N   UNL     1      32.662 -20.972 -19.501  0.00  0.00    -0.302 N 
ATOM      2  N   UNL     1      34.525 -21.436 -18.383  0.00  0.00    -0.302 N 
ATOM      3  C   UNL     1      33.609 -20.114 -19.997  0.00  0.00    +0.063 C 
ATOM      4  C   UNL     1      34.764 -20.424 -19.283  0.00  0.00    +0.060 C 
ATOM      5  C   UNL     1      33.256 -21.742 -18.541  0.00  0.00    +0.225 C 
ATOM      6  C   UNL     1      33.558 -19.123 -20.979  0.00  0.00    +0.053 C 
ATOM      7  C   UNL     1      34.744 -18.427 -21.233  0.00  0.00    +0.147 C 
ATOM      8  C   UNL     1      35.946 -19.714 -19.551  0.00  0.00    +0.019 C 
ATOM      9  C   UNL     1      35.918 -18.715 -20.533  0.00  0.00    +0.039 C 
ATOM     10  H   UNL     1      31.721 -21.024 -19.787  0.00  0.00    +0.150 HD
ATOM     11  H   UNL     1      35.165 -21.846 -17.757  0.00  0.00    +0.150 HD
ENDROOT
BRANCH   5  12
ATOM     12  N   UNL     1      32.505 -22.669 -17.908  0.00  0.00    -0.303 N 
ATOM     13  H   UNL     1      32.226 -23.429 -18.469  0.00  0.00    +0.150 HD
BRANCH  12  15
ATOM     14 CL   UNL     1      30.660 -22.900 -12.282  0.00  0.00    -0.082 Cl
ATOM     15  C   UNL     1      32.052 -22.723 -16.560  0.00  0.00    +0.047 C 
ATOM     16  C   UNL     1      30.692 -22.653 -16.291  0.00  0.00    +0.019 C 
ATOM     17  C   UNL     1      30.249 -22.706 -14.969  0.00  0.00    +0.083 C 
ATOM     18  C   UNL     1      32.977 -22.847 -15.532  0.00  0.00    +0.015 C 
ATOM     19  C   UNL     1      31.170 -22.830 -13.929  0.00  0.00    +0.062 C 
ATOM     20  C   UNL     1      32.535 -22.900 -14.211  0.00  0.00    +0.013 C 
BRANCH  17  24
ATOM     21  F   UNL     1      28.297 -23.770 -14.161  0.00  0.00    -0.166 F 
ATOM     22  F   UNL     1      28.457 -21.623 -13.861  0.00  0.00    -0.166 F 
ATOM     23  F   UNL     1      28.092 -22.416 -15.858  0.00  0.00    -0.166 F 
ATOM     24  C   UNL     1      28.779 -22.629 -14.710  0.00  0.00    +0.419 C 
ENDBRANCH  17  24
ENDBRANCH  12  15
ENDBRANCH   5  12
BRANCH   7  25
ATOM     25  O   UNL     1      34.753 -17.447 -22.181  0.00  0.00    -0.453 OA
BRANCH  25  27
ATOM     26  N   UNL     1      33.198 -13.738 -21.136  0.00  0.00    -0.239 NA
ATOM     27  C   UNL     1      34.235 -16.212 -21.833  0.00  0.00    +0.149 C 
ATOM     28  C   UNL     1      33.956 -15.295 -22.824  0.00  0.00    +0.061 C 
ATOM     29  C   UNL     1      34.009 -15.925 -20.504  0.00  0.00    +0.058 C 
ATOM     30  C   UNL     1      33.439 -14.073 -22.424  0.00  0.00    +0.137 C 
ATOM     31  C   UNL     1      33.490 -14.675 -20.207  0.00  0.00    +0.102 C 
BRANCH  30  34
ATOM     32  O   UNL     1      32.453 -13.340 -24.421  0.00  0.00    -0.268 OA
ATOM     33  N   UNL     1      33.572 -11.755 -23.153  0.00  0.00    -0.298 N 
ATOM     34  C   UNL     1      33.119 -13.055 -23.410  0.00  0.00    +0.264 C 
ATOM     35  C   UNL     1      33.316 -10.631 -24.026  0.00  0.00    +0.111 C 
ATOM     36  H   UNL     1      34.095 -11.598 -22.334  0.00  0.00    +0.150 HD
ENDBRANCH  30  34
ENDBRANCH  25  27
ENDBRANCH   7  25
TORSDOF 6
ENDMDL
MODEL 2
REMARK VINA RESULT:     -12.8      5.560     10.486
REMARK  Name = 11167118
REMARK  6 active torsions:
REMARK  status: ('A' for Active; 'I' for Inactive)
REMARK    1  A    between atoms: N_2  and  C_6
REMARK    2  A    between atoms: N_2  and  C_15
REMARK    3  A    between atoms: C_8  and  O_25
REMARK    4  A    between atoms: C_17  and  C_24
REMARK    5  A    between atoms: O_25  and  C_27
REMARK    6  A    between atoms: C_30  and  C_34
REMARK                            x       y       z     vdW  Elec       q    Type
REMARK                         _______ _______ _______ _____ _____    ______ ____
ROOT
ATOM      1  N   UNL     1      33.635 -19.021 -20.761  0.00  0.00    -0.302 N 
ATOM      2  N   UNL     1      35.712 -19.429 -20.084  0.00  0.00    -0.302 N 
ATOM      3  C   UNL     1      33.524 -20.007 -19.816  0.00  0.00    +0.063 C 
ATOM      4  C   UNL     1      34.834 -20.245 -19.409  0.00  0.00    +0.060 C 
ATOM      5  C   UNL     1      34.960 -18.708 -20.887  0.00  0.00    +0.225 C 
ATOM      6  C   UNL     1      32.424 -20.693 -19.296  0.00  0.00    +0.053 C 
ATOM      7  C   UNL     1      32.688 -21.659 -18.320  0.00  0.00    +0.147 C 
ATOM      8  C   UNL     1      35.081 -21.219 -18.427  0.00  0.00    +0.019 C 
ATOM      9  C   UNL     1      33.992 -21.919 -17.892  0.00  0.00    +0.039 C 
ATOM     10  H   UNL     1      32.892 -18.610 -21.260  0.00  0.00    +0.150 HD
ATOM     11  H   UNL     1      36.691 -19.392 -19.989  0.00  0.00    +0.150 HD
ENDROOT
BRANCH   5  12
ATOM     12  N   UNL     1      35.311 -17.750 -21.772  0.00  0.00    -0.303 N 
ATOM     13  H   UNL     1      36.268 -17.729 -22.001  0.00  0.00    +0.150 HD
BRANCH  12  15
ATOM     14 CL   UNL     1      32.006 -13.677 -24.530  0.00  0.00    -0.082 Cl
ATOM     15  C   UNL     1      34.517 -16.766 -22.426  0.00  0.00    +0.047 C 
ATOM     16  C   UNL     1      34.187 -15.596 -21.755  0.00  0.00    +0.019 C 
ATOM     17  C   UNL     1      33.409 -14.632 -22.397  0.00  0.00    +0.083 C 
ATOM     18  C   UNL     1      34.084 -16.990 -23.726  0.00  0.00    +0.015 C 
ATOM     19  C   UNL     1      32.969 -14.847 -23.703  0.00  0.00    +0.062 C 
ATOM     20  C   UNL     1      33.306 -16.026 -24.367  0.00  0.00    +0.013 C 
BRANCH  17  24
ATOM     21  F   UNL     1      33.493 -12.270 -22.299  0.00  0.00    -0.166 F 
ATOM     22  F   UNL     1      31.736 -13.239 -21.463  0.00  0.00    -0.166 F 
ATOM     23  F   UNL     1      33.647 -13.375 -20.425  0.00  0.00    -0.166 F 
ATOM     24  C   UNL     1      33.070 -13.382 -21.651  0.00  0.00    +0.419 C 
ENDBRANCH  17  24
ENDBRANCH  12  15
ENDBRANCH   5  12
BRANCH   7  25
ATOM     25  O   UNL     1      31.652 -22.360 -17.778  0.00  0.00    -0.453 OA
BRANCH  25  27
ATOM     26  N   UNL     1      31.892 -23.344 -13.748  0.00  0.00    -0.239 NA
ATOM     27  C   UNL     1      31.732 -22.687 -16.436  0.00  0.00    +0.149 C 
ATOM     28  C   UNL     1      32.905 -23.215 -15.939  0.00  0.00    +0.061 C 
ATOM     29  C   UNL     1      30.638 -22.479 -15.624  0.00  0.00    +0.058 C 
ATOM     30  C   UNL     1      32.935 -23.526 -14.590  0.00  0.00    +0.137 C 
ATOM     31  C   UNL     1      30.767 -22.824 -14.288  0.00  0.00    +0.102 C 
BRANCH  30  34
ATOM     32  O   UNL     1      35.121 -24.367 -14.700  0.00  0.00    -0.268 OA
ATOM     33  N   UNL     1      34.133 -24.265 -12.605  0.00  0.00    -0.298 N 
ATOM     34  C   UNL     1      34.135 -24.086 -13.993  0.00  0.00    +0.264 C 
ATOM     35  C   UNL     1      35.258 -24.789 -11.863  0.00  0.00    +0.111 C 
ATOM     36  H   UNL     1      33.319 -24.022 -12.106  0.00  0.00    +0.150 HD
ENDBRANCH  30  34
ENDBRANCH  25  27
ENDBRANCH   7  25
TORSDOF 6
ENDMDL
MODEL 3
REMARK VINA RESULT:     -12.5      5.704     10.324
REMARK  Name = 11167118
REMARK  6 active torsions:
REMARK  status: ('A' for Active; 'I' for Inactive)
REMARK    1  A    between atoms: N_2  and  C_6
REMARK    2  A    between atoms: N_2  and  C_15
REMARK    3  A    between atoms: C_8  and  O_25
REMARK    4  A    between atoms: C_17  and  C_24
REMARK    5  A    between atoms: O_25  and  C_27
REMARK    6  A    between atoms: C_30  and  C_34
REMARK                            x       y       z     vdW  Elec       q    Type
REMARK                         _______ _______ _______ _____ _____    ______ ____
ROOT
ATOM      1  N   UNL     1      35.144 -19.692 -19.862  0.00  0.00    -0.302 N 
ATOM      2  N   UNL     1      33.072 -19.314 -20.573  0.00  0.00    -0.302 N 
ATOM      3  C   UNL     1      34.346 -20.524 -19.121  0.00  0.00    +0.063 C 
ATOM      4  C   UNL     1      33.057 -20.269 -19.584  0.00  0.00    +0.060 C 
ATOM      5  C   UNL     1      34.339 -18.989 -20.715  0.00  0.00    +0.225 C 
ATOM      6  C   UNL     1      34.630 -21.451 -18.116  0.00  0.00    +0.053 C 
ATOM      7  C   UNL     1      33.543 -22.139 -17.569  0.00  0.00    +0.147 C 
ATOM      8  C   UNL     1      31.977 -20.970 -19.022  0.00  0.00    +0.019 C 
ATOM      9  C   UNL     1      32.239 -21.905 -18.013  0.00  0.00    +0.039 C 
ATOM     10  H   UNL     1      36.123 -19.614 -19.792  0.00  0.00    +0.150 HD
ATOM     11  H   UNL     1      32.303 -18.950 -21.068  0.00  0.00    +0.150 HD
ENDROOT
BRANCH   5  12
ATOM     12  N   UNL     1      34.915 -18.099 -21.551  0.00  0.00    -0.303 N 
ATOM     13  H   UNL     1      35.888 -18.201 -21.659  0.00  0.00    +0.150 HD
BRANCH  12  15
ATOM     14 CL   UNL     1      32.517 -13.698 -24.714  0.00  0.00    -0.082 Cl
ATOM     15  C   UNL     1      34.338 -17.035 -22.303  0.00  0.00    +0.047 C 
ATOM     16  C   UNL     1      34.083 -15.820 -21.684  0.00  0.00    +0.019 C 
ATOM     17  C   UNL     1      33.519 -14.778 -22.421  0.00  0.00    +0.083 C 
ATOM     18  C   UNL     1      34.041 -17.231 -23.645  0.00  0.00    +0.015 C 
ATOM     19  C   UNL     1      33.215 -14.963 -23.770  0.00  0.00    +0.062 C 
ATOM     20  C   UNL     1      33.476 -16.189 -24.382  0.00  0.00    +0.013 C 
BRANCH  17  24
ATOM     21  F   UNL     1      33.848 -12.437 -22.358  0.00  0.00    -0.166 F 
ATOM     22  F   UNL     1      31.934 -13.192 -21.658  0.00  0.00    -0.166 F 
ATOM     23  F   UNL     1      33.727 -13.501 -20.459  0.00  0.00    -0.166 F 
ATOM     24  C   UNL     1      33.256 -13.480 -21.729  0.00  0.00    +0.419 C 
ENDBRANCH  17  24
ENDBRANCH  12  15
ENDBRANCH   5  12
BRANCH   7  25
ATOM     25  O   UNL     1      33.761 -23.056 -16.584  0.00  0.00    -0.453 OA
BRANCH  25  27
ATOM     26  N   UNL     1      31.040 -23.195 -13.446  0.00  0.00    -0.239 NA
ATOM     27  C   UNL     1      32.855 -23.102 -15.539  0.00  0.00    +0.149 C 
ATOM     28  C   UNL     1      31.509 -23.212 -15.818  0.00  0.00    +0.061 C 
ATOM     29  C   UNL     1      33.317 -23.039 -14.242  0.00  0.00    +0.058 C 
ATOM     30  C   UNL     1      30.643 -23.254 -14.737  0.00  0.00    +0.137 C 
ATOM     31  C   UNL     1      32.371 -23.089 -13.231  0.00  0.00    +0.102 C 
BRANCH  30  34
ATOM     32  O   UNL     1      28.534 -24.174 -14.288  0.00  0.00    -0.268 OA
ATOM     33  N   UNL     1      28.640 -22.520 -15.908  0.00  0.00    -0.298 N 
ATOM     34  C   UNL     1      29.210 -23.368 -14.951  0.00  0.00    +0.264 C 
ATOM     35  C   UNL     1      27.228 -22.498 -16.218  0.00  0.00    +0.111 C 
ATOM     36  H   UNL     1      29.233 -21.905 -16.398  0.00  0.00    +0.150 HD
ENDBRANCH  30  34
ENDBRANCH  25  27
ENDBRANCH   7  25
TORSDOF 6
ENDMDL
MODEL 4
REMARK VINA RESULT:     -12.4      2.223      2.646
REMARK  Name = 11167118
REMARK  6 active torsions:
REMARK  status: ('A' for Active; 'I' for Inactive)
REMARK    1  A    between atoms: N_2  and  C_6
REMARK    2  A    between atoms: N_2  and  C_15
REMARK    3  A    between atoms: C_8  and  O_25
REMARK    4  A    between atoms: C_17  and  C_24
REMARK    5  A    between atoms: O_25  and  C_27
REMARK    6  A    between atoms: C_30  and  C_34
REMARK                            x       y       z     vdW  Elec       q    Type
REMARK                         _______ _______ _______ _____ _____    ______ ____
ROOT
ATOM      1  N   UNL     1      32.328 -20.519 -19.667  0.00  0.00    -0.302 N 
ATOM      2  N   UNL     1      34.201 -21.189 -18.676  0.00  0.00    -0.302 N 
ATOM      3  C   UNL     1      33.327 -19.758 -20.219  0.00  0.00    +0.063 C 
ATOM      4  C   UNL     1      34.486 -20.195 -19.583  0.00  0.00    +0.060 C 
ATOM      5  C   UNL     1      32.899 -21.358 -18.752  0.00  0.00    +0.225 C 
ATOM      6  C   UNL     1      33.317 -18.754 -21.189  0.00  0.00    +0.053 C 
ATOM      7  C   UNL     1      34.551 -18.182 -21.515  0.00  0.00    +0.147 C 
ATOM      8  C   UNL     1      35.716 -19.608 -19.922  0.00  0.00    +0.019 C 
ATOM      9  C   UNL     1      35.730 -18.600 -20.894  0.00  0.00    +0.039 C 
ATOM     10  H   UNL     1      31.371 -20.469 -19.892  0.00  0.00    +0.150 HD
ATOM     11  H   UNL     1      34.833 -21.670 -18.094  0.00  0.00    +0.150 HD
ENDROOT
BRANCH   5  12
ATOM     12  N   UNL     1      32.097 -22.210 -18.077  0.00  0.00    -0.303 N 
ATOM     13  H   UNL     1      31.381 -22.619 -18.616  0.00  0.00    +0.150 HD
BRANCH  12  15
ATOM     14 CL   UNL     1      32.159 -23.880 -12.392  0.00  0.00    -0.082 Cl
ATOM     15  C   UNL     1      32.122 -22.613 -16.712  0.00  0.00    +0.047 C 
ATOM     16  C   UNL     1      33.338 -22.891 -16.103  0.00  0.00    +0.019 C 
ATOM     17  C   UNL     1      33.362 -23.285 -14.765  0.00  0.00    +0.083 C 
ATOM     18  C   UNL     1      30.930 -22.720 -16.009  0.00  0.00    +0.015 C 
ATOM     19  C   UNL     1      32.169 -23.396 -14.049  0.00  0.00    +0.062 C 
ATOM     20  C   UNL     1      30.953 -23.115 -14.671  0.00  0.00    +0.013 C 
BRANCH  17  24
ATOM     21  F   UNL     1      35.713 -23.390 -14.997  0.00  0.00    -0.166 F 
ATOM     22  F   UNL     1      34.930 -22.788 -13.060  0.00  0.00    -0.166 F 
ATOM     23  F   UNL     1      34.749 -24.861 -13.709  0.00  0.00    -0.166 F 
ATOM     24  C   UNL     1      34.685 -23.577 -14.134  0.00  0.00    +0.419 C 
ENDBRANCH  17  24
ENDBRANCH  12  15
ENDBRANCH   5  12
BRANCH   7  25
ATOM     25  O   UNL     1      34.602 -17.197 -22.457  0.00  0.00    -0.453 OA
BRANCH  25  27
ATOM     26  N   UNL     1      33.248 -13.421 -21.370  0.00  0.00    -0.239 NA
ATOM     27  C   UNL     1      34.151 -15.940 -22.095  0.00  0.00    +0.149 C 
ATOM     28  C   UNL     1      33.912 -15.001 -23.076  0.00  0.00    +0.061 C 
ATOM     29  C   UNL     1      33.950 -15.653 -20.762  0.00  0.00    +0.058 C 
ATOM     30  C   UNL     1      33.462 -13.757 -22.663  0.00  0.00    +0.137 C 
ATOM     31  C   UNL     1      33.499 -14.380 -20.451  0.00  0.00    +0.102 C 
BRANCH  30  34
ATOM     32  O   UNL     1      32.583 -12.981 -24.693  0.00  0.00    -0.268 OA
ATOM     33  N   UNL     1      33.611 -11.420 -23.321  0.00  0.00    -0.298 N 
ATOM     34  C   UNL     1      33.188 -12.716 -23.638  0.00  0.00    +0.264 C 
ATOM     35  C   UNL     1      33.393 -10.275 -24.177  0.00  0.00    +0.111 C 
ATOM     36  H   UNL     1      34.086 -11.280 -22.470  0.00  0.00    +0.150 HD
ENDBRANCH  30  34
ENDBRANCH  25  27
ENDBRANCH   7  25
TORSDOF 6
ENDMDL
MODEL 5
REMARK VINA RESULT:     -12.2      5.771     10.278
REMARK  Name = 11167118
REMARK  6 active torsions:
REMARK  status: ('A' for Active; 'I' for Inactive)
REMARK    1  A    between atoms: N_2  and  C_6
REMARK    2  A    between atoms: N_2  and  C_15
REMARK    3  A    between atoms: C_8  and  O_25
REMARK    4  A    between atoms: C_17  and  C_24
REMARK    5  A    between atoms: O_25  and  C_27
REMARK    6  A    between atoms: C_30  and  C_34
REMARK                            x       y       z     vdW  Elec       q    Type
REMARK                         _______ _______ _______ _____ _____    ______ ____
ROOT
ATOM      1  N   UNL     1      33.707 -18.864 -20.887  0.00  0.00    -0.302 N 
ATOM      2  N   UNL     1      35.816 -18.688 -20.210  0.00  0.00    -0.302 N 
ATOM      3  C   UNL     1      33.894 -19.893 -20.000  0.00  0.00    +0.063 C 
ATOM      4  C   UNL     1      35.219 -19.761 -19.592  0.00  0.00    +0.060 C 
ATOM      5  C   UNL     1      34.882 -18.172 -20.979  0.00  0.00    +0.225 C 
ATOM      6  C   UNL     1      33.045 -20.898 -19.533  0.00  0.00    +0.053 C 
ATOM      7  C   UNL     1      33.584 -21.799 -18.610  0.00  0.00    +0.147 C 
ATOM      8  C   UNL     1      35.744 -20.676 -18.664  0.00  0.00    +0.019 C 
ATOM      9  C   UNL     1      34.909 -21.692 -18.182  0.00  0.00    +0.039 C 
ATOM     10  H   UNL     1      32.873 -18.660 -21.370  0.00  0.00    +0.150 HD
ATOM     11  H   UNL     1      36.742 -18.372 -20.102  0.00  0.00    +0.150 HD
ENDROOT
BRANCH   5  12
ATOM     12  N   UNL     1      34.933 -17.104 -21.804  0.00  0.00    -0.303 N 
ATOM     13  H   UNL     1      35.583 -17.180 -22.540  0.00  0.00    +0.150 HD
BRANCH  12  15
ATOM     14 CL   UNL     1      31.868 -12.034 -21.658  0.00  0.00    -0.082 Cl
ATOM     15  C   UNL     1      34.197 -15.885 -21.779  0.00  0.00    +0.047 C 
ATOM     16  C   UNL     1      33.842 -15.276 -22.974  0.00  0.00    +0.019 C 
ATOM     17  C   UNL     1      33.120 -14.082 -22.950  0.00  0.00    +0.083 C 
ATOM     18  C   UNL     1      33.845 -15.325 -20.559  0.00  0.00    +0.015 C 
ATOM     19  C   UNL     1      32.761 -13.510 -21.729  0.00  0.00    +0.062 C 
ATOM     20  C   UNL     1      33.124 -14.131 -20.534  0.00  0.00    +0.013 C 
BRANCH  17  24
ATOM     21  F   UNL     1      31.408 -13.347 -24.407  0.00  0.00    -0.166 F 
ATOM     22  F   UNL     1      33.253 -12.197 -24.377  0.00  0.00    -0.166 F 
ATOM     23  F   UNL     1      33.220 -14.173 -25.296  0.00  0.00    -0.166 F 
ATOM     24  C   UNL     1      32.751 -13.449 -24.252  0.00  0.00    +0.419 C 
ENDBRANCH  17  24
ENDBRANCH  12  15
ENDBRANCH   5  12
BRANCH   7  25
ATOM     25  O   UNL     1      32.801 -22.802 -18.120  0.00  0.00    -0.453 OA
BRANCH  25  27
ATOM     26  N   UNL     1      31.939 -22.763 -14.055  0.00  0.00    -0.239 NA
ATOM     27  C   UNL     1      32.514 -22.789 -16.767  0.00  0.00    +0.149 C 
ATOM     28  C   UNL     1      31.198 -22.772 -16.356  0.00  0.00    +0.061 C 
ATOM     29  C   UNL     1      33.550 -22.794 -15.857  0.00  0.00    +0.058 C 
ATOM     30  C   UNL     1      30.963 -22.760 -14.991  0.00  0.00    +0.137 C 
ATOM     31  C   UNL     1      33.211 -22.780 -14.514  0.00  0.00    +0.102 C 
BRANCH  30  34
ATOM     32  O   UNL     1      29.378 -22.914 -13.270  0.00  0.00    -0.268 OA
ATOM     33  N   UNL     1      28.580 -22.499 -15.406  0.00  0.00    -0.298 N 
ATOM     34  C   UNL     1      29.602 -22.741 -14.481  0.00  0.00    +0.264 C 
ATOM     35  C   UNL     1      27.180 -22.428 -15.051  0.00  0.00    +0.111 C 
ATOM     36  H   UNL     1      28.827 -22.371 -16.351  0.00  0.00    +0.150 HD
ENDBRANCH  30  34
ENDBRANCH  25  27
ENDBRANCH   7  25
TORSDOF 6
ENDMDL
MODEL 6
REMARK VINA RESULT:     -12.1      6.181     10.829
REMARK  Name = 11167118
REMARK  6 active torsions:
REMARK  status: ('A' for Active; 'I' for Inactive)
REMARK    1  A    between atoms: N_2  and  C_6
REMARK    2  A    between atoms: N_2  and  C_15
REMARK    3  A    between atoms: C_8  and  O_25
REMARK    4  A    between atoms: C_17  and  C_24
REMARK    5  A    between atoms: O_25  and  C_27
REMARK    6  A    between atoms: C_30  and  C_34
REMARK                            x       y       z     vdW  Elec       q    Type
REMARK                         _______ _______ _______ _____ _____    ______ ____
ROOT
ATOM      1  N   UNL     1      33.026 -22.603 -16.589  0.00  0.00    -0.302 N 
ATOM      2  N   UNL     1      30.830 -22.278 -16.694  0.00  0.00    -0.302 N 
ATOM      3  C   UNL     1      32.541 -22.987 -15.365  0.00  0.00    +0.063 C 
ATOM      4  C   UNL     1      31.168 -22.774 -15.456  0.00  0.00    +0.060 C 
ATOM      5  C   UNL     1      31.968 -22.188 -17.348  0.00  0.00    +0.225 C 
ATOM      6  C   UNL     1      33.165 -23.486 -14.220  0.00  0.00    +0.053 C 
ATOM      7  C   UNL     1      32.340 -23.776 -13.130  0.00  0.00    +0.147 C 
ATOM      8  C   UNL     1      30.354 -23.071 -14.350  0.00  0.00    +0.019 C 
ATOM      9  C   UNL     1      30.959 -23.574 -13.191  0.00  0.00    +0.039 C 
ATOM     10  H   UNL     1      33.969 -22.624 -16.870  0.00  0.00    +0.150 HD
ATOM     11  H   UNL     1      29.932 -22.041 -17.021  0.00  0.00    +0.150 HD
ENDROOT
BRANCH   5  12
ATOM     12  N   UNL     1      32.210 -21.761 -18.606  0.00  0.00    -0.303 N 
ATOM     13  H   UNL     1      31.531 -22.021 -19.269  0.00  0.00    +0.150 HD
BRANCH  12  15
ATOM     14 CL   UNL     1      36.739 -18.590 -20.739  0.00  0.00    -0.082 Cl
ATOM     15  C   UNL     1      33.292 -20.996 -19.126  0.00  0.00    +0.047 C 
ATOM     16  C   UNL     1      33.076 -20.151 -20.206  0.00  0.00    +0.019 C 
ATOM     17  C   UNL     1      34.136 -19.401 -20.715  0.00  0.00    +0.083 C 
ATOM     18  C   UNL     1      34.548 -21.105 -18.544  0.00  0.00    +0.015 C 
ATOM     19  C   UNL     1      35.403 -19.503 -20.138  0.00  0.00    +0.062 C 
ATOM     20  C   UNL     1      35.609 -20.356 -19.053  0.00  0.00    +0.013 C 
BRANCH  17  24
ATOM     21  F   UNL     1      33.866 -17.193 -21.518  0.00  0.00    -0.166 F 
ATOM     22  F   UNL     1      34.807 -18.629 -22.851  0.00  0.00    -0.166 F 
ATOM     23  F   UNL     1      32.671 -18.767 -22.440  0.00  0.00    -0.166 F 
ATOM     24  C   UNL     1      33.874 -18.499 -21.877  0.00  0.00    +0.419 C 
ENDBRANCH  17  24
ENDBRANCH  12  15
ENDBRANCH   5  12
BRANCH   7  25
ATOM     25  O   UNL     1      32.895 -24.266 -11.984  0.00  0.00    -0.453 OA
BRANCH  25  27
ATOM     26  N   UNL     1      37.009 -23.903 -11.529  0.00  0.00    -0.239 NA
ATOM     27  C   UNL     1      34.264 -24.145 -11.833  0.00  0.00    +0.149 C 
ATOM     28  C   UNL     1      35.099 -24.960 -12.568  0.00  0.00    +0.061 C 
ATOM     29  C   UNL     1      34.766 -23.212 -10.951  0.00  0.00    +0.058 C 
ATOM     30  C   UNL     1      36.463 -24.800 -12.381  0.00  0.00    +0.137 C 
ATOM     31  C   UNL     1      36.145 -23.130 -10.834  0.00  0.00    +0.102 C 
BRANCH  30  34
ATOM     32  O   UNL     1      37.027 -26.663 -13.688  0.00  0.00    -0.268 OA
ATOM     33  N   UNL     1      38.731 -25.176 -13.177  0.00  0.00    -0.298 N 
ATOM     34  C   UNL     1      37.405 -25.622 -13.120  0.00  0.00    +0.264 C 
ATOM     35  C   UNL     1      39.779 -25.871 -13.891  0.00  0.00    +0.111 C 
ATOM     36  H   UNL     1      38.963 -24.344 -12.705  0.00  0.00    +0.150 HD
ENDBRANCH  30  34
ENDBRANCH  25  27
ENDBRANCH   7  25
TORSDOF 6
ENDMDL
MODEL 7
REMARK VINA RESULT:     -11.8      5.127     10.261
REMARK  Name = 11167118
REMARK  6 active torsions:
REMARK  status: ('A' for Active; 'I' for Inactive)
REMARK    1  A    between atoms: N_2  and  C_6
REMARK    2  A    between atoms: N_2  and  C_15
REMARK    3  A    between atoms: C_8  and  O_25
REMARK    4  A    between atoms: C_17  and  C_24
REMARK    5  A    between atoms: O_25  and  C_27
REMARK    6  A    between atoms: C_30  and  C_34
REMARK                            x       y       z     vdW  Elec       q    Type
REMARK                         _______ _______ _______ _____ _____    ______ ____
ROOT
ATOM      1  N   UNL     1      34.118 -14.950 -22.414  0.00  0.00    -0.302 N 
ATOM      2  N   UNL     1      33.212 -15.702 -24.299  0.00  0.00    -0.302 N 
ATOM      3  C   UNL     1      34.150 -16.317 -22.316  0.00  0.00    +0.063 C 
ATOM      4  C   UNL     1      33.579 -16.763 -23.505  0.00  0.00    +0.060 C 
ATOM      5  C   UNL     1      33.549 -14.631 -23.616  0.00  0.00    +0.225 C 
ATOM      6  C   UNL     1      34.616 -17.178 -21.320  0.00  0.00    +0.053 C 
ATOM      7  C   UNL     1      34.487 -18.549 -21.561  0.00  0.00    +0.147 C 
ATOM      8  C   UNL     1      33.457 -18.145 -23.730  0.00  0.00    +0.019 C 
ATOM      9  C   UNL     1      33.918 -19.026 -22.744  0.00  0.00    +0.039 C 
ATOM     10  H   UNL     1      34.446 -14.313 -21.740  0.00  0.00    +0.150 HD
ATOM     11  H   UNL     1      32.788 -15.736 -25.187  0.00  0.00    +0.150 HD
ENDROOT
BRANCH   5  12
ATOM     12  N   UNL     1      33.413 -13.325 -23.932  0.00  0.00    -0.303 N 
ATOM     13  H   UNL     1      33.741 -13.079 -24.827  0.00  0.00    +0.150 HD
BRANCH  12  15
ATOM     14 CL   UNL     1      31.172  -8.808 -20.818  0.00  0.00    -0.082 Cl
ATOM     15  C   UNL     1      32.870 -12.246 -23.178  0.00  0.00    +0.047 C 
ATOM     16  C   UNL     1      32.138 -12.514 -22.029  0.00  0.00    +0.019 C 
ATOM     17  C   UNL     1      31.607 -11.457 -21.290  0.00  0.00    +0.083 C 
ATOM     18  C   UNL     1      33.081 -10.942 -23.602  0.00  0.00    +0.015 C 
ATOM     19  C   UNL     1      31.813 -10.141 -21.707  0.00  0.00    +0.062 C 
ATOM     20  C   UNL     1      32.549  -9.884 -22.863  0.00  0.00    +0.013 C 
BRANCH  17  24
ATOM     21  F   UNL     1      29.547 -11.330 -20.135  0.00  0.00    -0.166 F 
ATOM     22  F   UNL     1      30.757 -13.108 -19.819  0.00  0.00    -0.166 F 
ATOM     23  F   UNL     1      31.382 -11.203 -18.964  0.00  0.00    -0.166 F 
ATOM     24  C   UNL     1      30.824 -11.776 -20.058  0.00  0.00    +0.419 C 
ENDBRANCH  17  24
ENDBRANCH  12  15
ENDBRANCH   5  12
BRANCH   7  25
ATOM     25  O   UNL     1      34.924 -19.436 -20.622  0.00  0.00    -0.453 OA
BRANCH  25  27
ATOM     26  N   UNL     1      32.060 -21.362 -18.307  0.00  0.00    -0.239 NA
ATOM     27  C   UNL     1      33.971 -20.077 -19.852  0.00  0.00    +0.149 C 
ATOM     28  C   UNL     1      34.377 -20.927 -18.845  0.00  0.00    +0.061 C 
ATOM     29  C   UNL     1      32.635 -19.852 -20.105  0.00  0.00    +0.058 C 
ATOM     30  C   UNL     1      33.384 -21.545 -18.102  0.00  0.00    +0.137 C 
ATOM     31  C   UNL     1      31.719 -20.517 -19.307  0.00  0.00    +0.102 C 
BRANCH  30  34
ATOM     32  O   UNL     1      33.114 -23.523 -16.872  0.00  0.00    -0.268 OA
ATOM     33  N   UNL     1      34.803 -22.084 -16.200  0.00  0.00    -0.298 N 
ATOM     34  C   UNL     1      33.734 -22.455 -17.025  0.00  0.00    +0.264 C 
ATOM     35  C   UNL     1      35.284 -22.891 -15.102  0.00  0.00    +0.111 C 
ATOM     36  H   UNL     1      35.250 -21.224 -16.376  0.00  0.00    +0.150 HD
ENDBRANCH  30  34
ENDBRANCH  25  27
ENDBRANCH   7  25
TORSDOF 6
ENDMDL
MODEL 8
REMARK VINA RESULT:     -11.8      6.452     11.759
REMARK  Name = 11167118
REMARK  6 active torsions:
REMARK  status: ('A' for Active; 'I' for Inactive)
REMARK    1  A    between atoms: N_2  and  C_6
REMARK    2  A    between atoms: N_2  and  C_15
REMARK    3  A    between atoms: C_8  and  O_25
REMARK    4  A    between atoms: C_17  and  C_24
REMARK    5  A    between atoms: O_25  and  C_27
REMARK    6  A    between atoms: C_30  and  C_34
REMARK                            x       y       z     vdW  Elec       q    Type
REMARK                         _______ _______ _______ _____ _____    ______ ____
ROOT
ATOM      1  N   UNL     1      33.309 -14.022 -24.042  0.00  0.00    -0.302 N 
ATOM      2  N   UNL     1      33.253 -13.050 -22.044  0.00  0.00    -0.302 N 
ATOM      3  C   UNL     1      33.618 -15.012 -23.145  0.00  0.00    +0.063 C 
ATOM      4  C   UNL     1      33.576 -14.380 -21.905  0.00  0.00    +0.060 C 
ATOM      5  C   UNL     1      33.100 -12.869 -23.338  0.00  0.00    +0.225 C 
ATOM      6  C   UNL     1      33.921 -16.365 -23.306  0.00  0.00    +0.053 C 
ATOM      7  C   UNL     1      34.190 -17.092 -22.142  0.00  0.00    +0.147 C 
ATOM      8  C   UNL     1      33.849 -15.126 -20.747  0.00  0.00    +0.019 C 
ATOM      9  C   UNL     1      34.155 -16.486 -20.884  0.00  0.00    +0.039 C 
ATOM     10  H   UNL     1      33.250 -14.124 -25.020  0.00  0.00    +0.150 HD
ATOM     11  H   UNL     1      33.156 -12.378 -21.331  0.00  0.00    +0.150 HD
ENDROOT
BRANCH   5  12
ATOM     12  N   UNL     1      32.779 -11.750 -24.022  0.00  0.00    -0.303 N 
ATOM     13  H   UNL     1      32.193 -11.894 -24.800  0.00  0.00    +0.150 HD
BRANCH  12  15
ATOM     14 CL   UNL     1      34.370  -6.113 -23.117  0.00  0.00    -0.082 Cl
ATOM     15  C   UNL     1      33.153 -10.394 -23.798  0.00  0.00    +0.047 C 
ATOM     16  C   UNL     1      32.443  -9.631 -22.883  0.00  0.00    +0.019 C 
ATOM     17  C   UNL     1      32.811  -8.303 -22.663  0.00  0.00    +0.083 C 
ATOM     18  C   UNL     1      34.224  -9.857 -24.500  0.00  0.00    +0.015 C 
ATOM     19  C   UNL     1      33.885  -7.752 -23.363  0.00  0.00    +0.062 C 
ATOM     20  C   UNL     1      34.591  -8.529 -24.281  0.00  0.00    +0.013 C 
BRANCH  17  24
ATOM     21  F   UNL     1      31.038  -8.231 -21.100  0.00  0.00    -0.166 F 
ATOM     22  F   UNL     1      32.802  -7.040 -20.659  0.00  0.00    -0.166 F 
ATOM     23  F   UNL     1      31.451  -6.430 -22.257  0.00  0.00    -0.166 F 
ATOM     24  C   UNL     1      32.029  -7.505 -21.670  0.00  0.00    +0.419 C 
ENDBRANCH  17  24
ENDBRANCH  12  15
ENDBRANCH   5  12
BRANCH   7  25
ATOM     25  O   UNL     1      34.492 -18.418 -22.239  0.00  0.00    -0.453 OA
BRANCH  25  27
ATOM     26  N   UNL     1      35.143 -20.508 -18.707  0.00  0.00    -0.239 NA
ATOM     27  C   UNL     1      34.709 -19.114 -21.063  0.00  0.00    +0.149 C 
ATOM     28  C   UNL     1      33.680 -19.850 -20.515  0.00  0.00    +0.061 C 
ATOM     29  C   UNL     1      35.949 -19.057 -20.464  0.00  0.00    +0.058 C 
ATOM     30  C   UNL     1      33.947 -20.529 -19.337  0.00  0.00    +0.137 C 
ATOM     31  C   UNL     1      36.116 -19.771 -19.288  0.00  0.00    +0.102 C 
BRANCH  30  34
ATOM     32  O   UNL     1      31.754 -21.338 -19.154  0.00  0.00    -0.268 OA
ATOM     33  N   UNL     1      33.288 -22.083 -17.584  0.00  0.00    -0.298 N 
ATOM     34  C   UNL     1      32.912 -21.326 -18.700  0.00  0.00    +0.264 C 
ATOM     35  C   UNL     1      32.381 -22.941 -16.857  0.00  0.00    +0.111 C 
ATOM     36  H   UNL     1      34.222 -22.026 -17.277  0.00  0.00    +0.150 HD
ENDBRANCH  30  34
ENDBRANCH  25  27
ENDBRANCH   7  25
TORSDOF 6
ENDMDL
MODEL 9
REMARK VINA RESULT:     -11.7      1.876      2.103
REMARK  Name = 11167118
REMARK  6 active torsions:
REMARK  status: ('A' for Active; 'I' for Inactive)
REMARK    1  A    between atoms: N_2  and  C_6
REMARK    2  A    between atoms: N_2  and  C_15
REMARK    3  A    between atoms: C_8  and  O_25
REMARK    4  A    between atoms: C_17  and  C_24
REMARK    5  A    between atoms: O_25  and  C_27
REMARK    6  A    between atoms: C_30  and  C_34
REMARK                            x       y       z     vdW  Elec       q    Type
REMARK                         _______ _______ _______ _____ _____    ______ ____
ROOT
ATOM      1  N   UNL     1      32.282 -20.465 -19.852  0.00  0.00    -0.302 N 
ATOM      2  N   UNL     1      33.979 -20.943 -18.499  0.00  0.00    -0.302 N 
ATOM      3  C   UNL     1      33.369 -19.824 -20.388  0.00  0.00    +0.063 C 
ATOM      4  C   UNL     1      34.416 -20.138 -19.524  0.00  0.00    +0.060 C 
ATOM      5  C   UNL     1      32.695 -21.120 -18.726  0.00  0.00    +0.225 C 
ATOM      6  C   UNL     1      33.524 -19.020 -21.519  0.00  0.00    +0.053 C 
ATOM      7  C   UNL     1      34.807 -18.524 -21.767  0.00  0.00    +0.147 C 
ATOM      8  C   UNL     1      35.699 -19.630 -19.789  0.00  0.00    +0.019 C 
ATOM      9  C   UNL     1      35.877 -18.821 -20.919  0.00  0.00    +0.039 C 
ATOM     10  H   UNL     1      31.367 -20.455 -20.216  0.00  0.00    +0.150 HD
ATOM     11  H   UNL     1      34.510 -21.309 -17.755  0.00  0.00    +0.150 HD
ENDROOT
BRANCH   5  12
ATOM     12  N   UNL     1      31.783 -21.828 -18.026  0.00  0.00    -0.303 N 
ATOM     13  H   UNL     1      30.920 -21.958 -18.483  0.00  0.00    +0.150 HD
BRANCH  12  15
ATOM     14 CL   UNL     1      32.183 -24.283 -12.647  0.00  0.00    -0.082 Cl
ATOM     15  C   UNL     1      31.869 -22.416 -16.732  0.00  0.00    +0.047 C 
ATOM     16  C   UNL     1      30.716 -22.581 -15.977  0.00  0.00    +0.019 C 
ATOM     17  C   UNL     1      30.801 -23.158 -14.710  0.00  0.00    +0.083 C 
ATOM     18  C   UNL     1      33.105 -22.817 -16.245  0.00  0.00    +0.015 C 
ATOM     19  C   UNL     1      32.039 -23.564 -14.210  0.00  0.00    +0.062 C 
ATOM     20  C   UNL     1      33.191 -23.393 -14.977  0.00  0.00    +0.013 C 
BRANCH  17  24
ATOM     21  F   UNL     1      29.188 -24.625 -13.794  0.00  0.00    -0.166 F 
ATOM     22  F   UNL     1      29.655 -22.828 -12.663  0.00  0.00    -0.166 F 
ATOM     23  F   UNL     1      28.508 -22.681 -14.511  0.00  0.00    -0.166 F 
ATOM     24  C   UNL     1      29.544 -23.323 -13.919  0.00  0.00    +0.419 C 
ENDBRANCH  17  24
ENDBRANCH  12  15
ENDBRANCH   5  12
BRANCH   7  25
ATOM     25  O   UNL     1      35.018 -17.733 -22.858  0.00  0.00    -0.453 OA
BRANCH  25  27
ATOM     26  N   UNL     1      32.618 -14.367 -23.289  0.00  0.00    -0.239 NA
ATOM     27  C   UNL     1      34.219 -16.612 -23.001  0.00  0.00    +0.149 C 
ATOM     28  C   UNL     1      33.428 -16.486 -24.124  0.00  0.00    +0.061 C 
ATOM     29  C   UNL     1      34.229 -15.645 -22.019  0.00  0.00    +0.058 C 
ATOM     30  C   UNL     1      32.647 -15.346 -24.221  0.00  0.00    +0.137 C 
ATOM     31  C   UNL     1      33.413 -14.542 -22.209  0.00  0.00    +0.102 C 
BRANCH  30  34
ATOM     32  O   UNL     1      31.822 -14.072 -26.007  0.00  0.00    -0.268 OA
ATOM     33  N   UNL     1      30.954 -16.205 -25.743  0.00  0.00    -0.298 N 
ATOM     34  C   UNL     1      31.788 -15.142 -25.375  0.00  0.00    +0.264 C 
ATOM     35  C   UNL     1      30.061 -16.165 -26.879  0.00  0.00    +0.111 C 
ATOM     36  H   UNL     1      30.977 -17.025 -25.198  0.00  0.00    +0.150 HD
ENDBRANCH  30  34
ENDBRANCH  25  27
ENDBRANCH   7  25
TORSDOF 6
ENDMDL
