MODEL 1
REMARK VINA RESULT:     -11.7      0.000      0.000
REMARK  Name = 6918151
REMARK  4 active torsions:
REMARK  status: ('A' for Active; 'I' for Inactive)
REMARK    1  A    between atoms: C_2  and  C_11
REMARK    2  A    between atoms: C_7  and  C_18
REMARK    3  A    between atoms: C_11  and  C_12
REMARK    4  A    between atoms: C_18  and  C_23
REMARK                            x       y       z     vdW  Elec       q    Type
REMARK                         _______ _______ _______ _____ _____    ______ ____
ROOT
ATOM      1  O   UNL     1      35.015 -19.661 -19.860  0.00  0.00    -0.479 OA
ATOM      2  C   UNL     1      34.210 -18.689 -20.545  0.00  0.00    +0.171 C 
ATOM      3  C   UNL     1      33.002 -19.340 -21.215  0.00  0.00    +0.049 C 
ATOM      4  C   UNL     1      32.110 -19.956 -20.143  0.00  0.00    +0.033 C 
ATOM      5  C   UNL     1      32.934 -20.727 -19.153  0.00  0.00    +0.012 C 
ATOM      6  C   UNL     1      34.318 -20.530 -19.060  0.00  0.00    +0.134 C 
ATOM      7  C   UNL     1      33.070 -22.362 -17.364  0.00  0.00    -0.021 C 
ATOM      8  C   UNL     1      32.314 -21.639 -18.288  0.00  0.00    -0.006 C 
ATOM      9  C   UNL     1      35.074 -21.264 -18.143  0.00  0.00    +0.036 C 
ATOM     10  C   UNL     1      34.449 -22.177 -17.294  0.00  0.00    -0.001 C 
ENDROOT
BRANCH   2  11
ATOM     11  C   UNL     1      35.103 -18.013 -21.579  0.00  0.00    +0.070 C 
BRANCH  11  12
ATOM     12  C   UNL     1      34.424 -16.827 -22.211  0.00  0.00    -0.019 C 
ATOM     13  C   UNL     1      34.090 -15.732 -21.426  0.00  0.00    -0.004 C 
ATOM     14  C   UNL     1      34.140 -16.846 -23.570  0.00  0.00    -0.004 C 
ATOM     15  C   UNL     1      33.461 -14.633 -22.011  0.00  0.00    -0.000 C 
ATOM     16  C   UNL     1      33.511 -15.746 -24.155  0.00  0.00    -0.000 C 
ATOM     17  C   UNL     1      33.171 -14.641 -23.376  0.00  0.00    -0.000 C 
ENDBRANCH  11  12
ENDBRANCH   2  11
BRANCH   7  18
ATOM     18  C   UNL     1      32.401 -23.334 -16.453  0.00  0.00    +0.047 C 
BRANCH  18  23
ATOM     19  S   UNL     1      32.256 -23.491 -13.701  0.00  0.00    -0.048 S 
ATOM     20  O   UNL     1      29.591 -22.290 -16.222  0.00  0.00    -0.274 OA
ATOM     21  O   UNL     1      30.313 -24.354 -12.154  0.00  0.00    -0.263 OA
ATOM     22  N   UNL     1      29.748 -23.327 -14.161  0.00  0.00    -0.246 N 
ATOM     23  C   UNL     1      31.770 -22.653 -15.241  0.00  0.00    +0.137 C 
ATOM     24  C   UNL     1      30.261 -22.723 -15.290  0.00  0.00    +0.239 C 
ATOM     25  C   UNL     1      30.607 -23.798 -13.201  0.00  0.00    +0.279 C 
ATOM     26  H   UNL     1      28.775 -23.420 -14.045  0.00  0.00    +0.158 HD
ENDBRANCH  18  23
ENDBRANCH   7  18
TORSDOF 4
ENDMDL
MODEL 2
REMARK VINA RESULT:     -11.1      3.478      9.170
REMARK  Name = 6918151
REMARK  4 active torsions:
REMARK  status: ('A' for Active; 'I' for Inactive)
REMARK    1  A    between atoms: C_2  and  C_11
REMARK    2  A    between atoms: C_7  and  C_18
REMARK    3  A    between atoms: C_11  and  C_12
REMARK    4  A    between atoms: C_18  and  C_23
REMARK                            x       y       z     vdW  Elec       q    Type
REMARK                         _______ _______ _______ _____ _____    ______ ____
ROOT
ATOM      1  O   UNL     1      32.165 -22.977 -15.566  0.00  0.00    -0.479 OA
ATOM      2  C   UNL     1      32.766 -22.974 -14.262  0.00  0.00    +0.171 C 
ATOM      3  C   UNL     1      34.205 -23.485 -14.312  0.00  0.00    +0.049 C 
ATOM      4  C   UNL     1      35.039 -22.541 -15.170  0.00  0.00    +0.033 C 
ATOM      5  C   UNL     1      34.311 -22.202 -16.438  0.00  0.00    +0.012 C 
ATOM      6  C   UNL     1      32.933 -22.425 -16.559  0.00  0.00    +0.134 C 
ATOM      7  C   UNL     1      34.341 -21.313 -18.696  0.00  0.00    -0.021 C 
ATOM      8  C   UNL     1      35.007 -21.631 -17.512  0.00  0.00    -0.006 C 
ATOM      9  C   UNL     1      32.271 -22.117 -17.750  0.00  0.00    +0.036 C 
ATOM     10  C   UNL     1      32.975 -21.559 -18.816  0.00  0.00    -0.001 C 
ENDROOT
BRANCH   2  11
ATOM     11  C   UNL     1      31.908 -23.862 -13.368  0.00  0.00    +0.070 C 
BRANCH  11  12
ATOM     12  C   UNL     1      30.456 -23.811 -13.762  0.00  0.00    -0.019 C 
ATOM     13  C   UNL     1      29.884 -22.594 -14.110  0.00  0.00    -0.004 C 
ATOM     14  C   UNL     1      29.708 -24.980 -13.771  0.00  0.00    -0.004 C 
ATOM     15  C   UNL     1      28.539 -22.546 -14.474  0.00  0.00    -0.000 C 
ATOM     16  C   UNL     1      28.363 -24.932 -14.136  0.00  0.00    -0.000 C 
ATOM     17  C   UNL     1      27.778 -23.716 -14.487  0.00  0.00    -0.000 C 
ENDBRANCH  11  12
ENDBRANCH   2  11
BRANCH   7  18
ATOM     18  C   UNL     1      35.093 -20.710 -19.835  0.00  0.00    +0.047 C 
BRANCH  18  23
ATOM     19  S   UNL     1      33.576 -19.169 -21.549  0.00  0.00    -0.048 S 
ATOM     20  O   UNL     1      36.841 -18.268 -19.699  0.00  0.00    -0.274 OA
ATOM     21  O   UNL     1      34.321 -17.581 -23.507  0.00  0.00    -0.263 OA
ATOM     22  N   UNL     1      35.721 -17.786 -21.664  0.00  0.00    -0.246 N 
ATOM     23  C   UNL     1      34.677 -19.267 -20.106  0.00  0.00    +0.137 C 
ATOM     24  C   UNL     1      35.871 -18.400 -20.438  0.00  0.00    +0.239 C 
ATOM     25  C   UNL     1      34.599 -18.040 -22.411  0.00  0.00    +0.279 C 
ATOM     26  H   UNL     1      36.413 -17.171 -22.000  0.00  0.00    +0.158 HD
ENDBRANCH  18  23
ENDBRANCH   7  18
TORSDOF 4
ENDMDL
MODEL 3
REMARK VINA RESULT:     -10.8      4.566      9.666
REMARK  Name = 6918151
REMARK  4 active torsions:
REMARK  status: ('A' for Active; 'I' for Inactive)
REMARK    1  A    between atoms: C_2  and  C_11
REMARK    2  A    between atoms: C_7  and  C_18
REMARK    3  A    between atoms: C_11  and  C_12
REMARK    4  A    between atoms: C_18  and  C_23
REMARK                            x       y       z     vdW  Elec       q    Type
REMARK                         _______ _______ _______ _____ _____    ______ ____
ROOT
ATOM      1  O   UNL     1      33.722 -22.707 -16.239  0.00  0.00    -0.479 OA
ATOM      2  C   UNL     1      34.526 -22.610 -15.054  0.00  0.00    +0.171 C 
ATOM      3  C   UNL     1      36.014 -22.716 -15.382  0.00  0.00    +0.049 C 
ATOM      4  C   UNL     1      36.414 -21.541 -16.268  0.00  0.00    +0.033 C 
ATOM      5  C   UNL     1      35.408 -21.345 -17.365  0.00  0.00    +0.012 C 
ATOM      6  C   UNL     1      34.133 -21.921 -17.285  0.00  0.00    +0.134 C 
ATOM      7  C   UNL     1      34.806 -20.367 -19.503  0.00  0.00    -0.021 C 
ATOM      8  C   UNL     1      35.732 -20.555 -18.476  0.00  0.00    -0.006 C 
ATOM      9  C   UNL     1      33.212 -21.741 -18.319  0.00  0.00    +0.036 C 
ATOM     10  C   UNL     1      33.548 -20.962 -19.426  0.00  0.00    -0.001 C 
ENDROOT
BRANCH   2  11
ATOM     11  C   UNL     1      34.096 -23.739 -14.124  0.00  0.00    +0.070 C 
BRANCH  11  12
ATOM     12  C   UNL     1      35.118 -23.994 -13.049  0.00  0.00    -0.019 C 
ATOM     13  C   UNL     1      35.370 -23.014 -12.098  0.00  0.00    -0.004 C 
ATOM     14  C   UNL     1      35.795 -25.206 -13.022  0.00  0.00    -0.004 C 
ATOM     15  C   UNL     1      36.317 -23.250 -11.102  0.00  0.00    -0.000 C 
ATOM     16  C   UNL     1      36.742 -25.442 -12.025  0.00  0.00    -0.000 C 
ATOM     17  C   UNL     1      37.003 -24.464 -11.066  0.00  0.00    -0.000 C 
ENDBRANCH  11  12
ENDBRANCH   2  11
BRANCH   7  18
ATOM     18  C   UNL     1      35.163 -19.529 -20.684  0.00  0.00    +0.047 C 
BRANCH  18  23
ATOM     19  S   UNL     1      33.747 -19.024 -22.999  0.00  0.00    -0.048 S 
ATOM     20  O   UNL     1      34.406 -16.704 -19.985  0.00  0.00    -0.274 OA
ATOM     21  O   UNL     1      33.739 -16.902 -24.551  0.00  0.00    -0.263 OA
ATOM     22  N   UNL     1      34.078 -16.597 -22.272  0.00  0.00    -0.246 N 
ATOM     23  C   UNL     1      33.970 -18.739 -21.217  0.00  0.00    +0.137 C 
ATOM     24  C   UNL     1      34.180 -17.249 -21.061  0.00  0.00    +0.239 C 
ATOM     25  C   UNL     1      33.851 -17.327 -23.411  0.00  0.00    +0.279 C 
ATOM     26  H   UNL     1      34.169 -15.618 -22.319  0.00  0.00    +0.158 HD
ENDBRANCH  18  23
ENDBRANCH   7  18
TORSDOF 4
ENDMDL
MODEL 4
REMARK VINA RESULT:     -10.6      4.029      8.981
REMARK  Name = 6918151
REMARK  4 active torsions:
REMARK  status: ('A' for Active; 'I' for Inactive)
REMARK    1  A    between atoms: C_2  and  C_11
REMARK    2  A    between atoms: C_7  and  C_18
REMARK    3  A    between atoms: C_11  and  C_12
REMARK    4  A    between atoms: C_18  and  C_23
REMARK                            x       y       z     vdW  Elec       q    Type
REMARK                         _______ _______ _______ _____ _____    ______ ____
ROOT
ATOM      1  O   UNL     1      34.211 -22.014 -17.653  0.00  0.00    -0.479 OA
ATOM      2  C   UNL     1      32.911 -22.617 -17.570  0.00  0.00    +0.171 C 
ATOM      3  C   UNL     1      31.805 -21.565 -17.631  0.00  0.00    +0.049 C 
ATOM      4  C   UNL     1      31.864 -20.857 -18.979  0.00  0.00    +0.033 C 
ATOM      5  C   UNL     1      33.279 -20.489 -19.319  0.00  0.00    +0.012 C 
ATOM      6  C   UNL     1      34.358 -21.088 -18.655  0.00  0.00    +0.134 C 
ATOM      7  C   UNL     1      34.846 -19.203 -20.654  0.00  0.00    -0.021 C 
ATOM      8  C   UNL     1      33.534 -19.553 -20.330  0.00  0.00    -0.006 C 
ATOM      9  C   UNL     1      35.669 -20.726 -18.972  0.00  0.00    +0.036 C 
ATOM     10  C   UNL     1      35.912 -19.786 -19.973  0.00  0.00    -0.001 C 
ENDROOT
BRANCH   2  11
ATOM     11  C   UNL     1      32.854 -23.386 -16.256  0.00  0.00    +0.070 C 
BRANCH  11  12
ATOM     12  C   UNL     1      31.602 -23.074 -15.481  0.00  0.00    -0.019 C 
ATOM     13  C   UNL     1      31.703 -22.614 -14.175  0.00  0.00    -0.004 C 
ATOM     14  C   UNL     1      30.364 -23.250 -16.083  0.00  0.00    -0.004 C 
ATOM     15  C   UNL     1      30.542 -22.324 -13.457  0.00  0.00    -0.000 C 
ATOM     16  C   UNL     1      29.203 -22.960 -15.365  0.00  0.00    -0.000 C 
ATOM     17  C   UNL     1      29.293 -22.498 -14.052  0.00  0.00    -0.000 C 
ENDBRANCH  11  12
ENDBRANCH   2  11
BRANCH   7  18
ATOM     18  C   UNL     1      35.105 -18.201 -21.728  0.00  0.00    +0.047 C 
BRANCH  18  23
ATOM     19  S   UNL     1      33.604 -17.486 -23.930  0.00  0.00    -0.048 S 
ATOM     20  O   UNL     1      34.150 -15.574 -20.622  0.00  0.00    -0.274 OA
ATOM     21  O   UNL     1      33.400 -15.172 -25.162  0.00  0.00    -0.263 OA
ATOM     22  N   UNL     1      33.765 -15.168 -22.867  0.00  0.00    -0.246 N 
ATOM     23  C   UNL     1      33.844 -17.440 -22.128  0.00  0.00    +0.137 C 
ATOM     24  C   UNL     1      33.942 -15.976 -21.762  0.00  0.00    +0.239 C 
ATOM     25  C   UNL     1      33.569 -15.744 -24.096  0.00  0.00    +0.279 C 
ATOM     26  H   UNL     1      33.779 -14.189 -22.773  0.00  0.00    +0.158 HD
ENDBRANCH  18  23
ENDBRANCH   7  18
TORSDOF 4
ENDMDL
MODEL 5
REMARK VINA RESULT:     -10.6      6.300     10.982
REMARK  Name = 6918151
REMARK  4 active torsions:
REMARK  status: ('A' for Active; 'I' for Inactive)
REMARK    1  A    between atoms: C_2  and  C_11
REMARK    2  A    between atoms: C_7  and  C_18
REMARK    3  A    between atoms: C_11  and  C_12
REMARK    4  A    between atoms: C_18  and  C_23
REMARK                            x       y       z     vdW  Elec       q    Type
REMARK                         _______ _______ _______ _____ _____    ______ ____
ROOT
ATOM      1  O   UNL     1      34.043 -17.180 -22.919  0.00  0.00    -0.479 OA
ATOM      2  C   UNL     1      33.926 -17.604 -21.553  0.00  0.00    +0.171 C 
ATOM      3  C   UNL     1      34.548 -16.585 -20.599  0.00  0.00    +0.049 C 
ATOM      4  C   UNL     1      33.786 -15.270 -20.707  0.00  0.00    +0.033 C 
ATOM      5  C   UNL     1      33.551 -14.916 -22.147  0.00  0.00    +0.012 C 
ATOM      6  C   UNL     1      33.679 -15.879 -23.156  0.00  0.00    +0.134 C 
ATOM      7  C   UNL     1      32.953 -13.270 -23.828  0.00  0.00    -0.021 C 
ATOM      8  C   UNL     1      33.173 -13.611 -22.493  0.00  0.00    -0.006 C 
ATOM      9  C   UNL     1      33.471 -15.532 -24.493  0.00  0.00    +0.036 C 
ATOM     10  C   UNL     1      33.106 -14.228 -24.827  0.00  0.00    -0.001 C 
ENDROOT
BRANCH   2  11
ATOM     11  C   UNL     1      34.627 -18.952 -21.437  0.00  0.00    +0.070 C 
BRANCH  11  12
ATOM     12  C   UNL     1      34.011 -19.810 -20.364  0.00  0.00    -0.019 C 
ATOM     13  C   UNL     1      34.832 -20.575 -19.545  0.00  0.00    -0.004 C 
ATOM     14  C   UNL     1      32.632 -19.824 -20.207  0.00  0.00    -0.004 C 
ATOM     15  C   UNL     1      34.262 -21.369 -18.551  0.00  0.00    -0.000 C 
ATOM     16  C   UNL     1      32.062 -20.618 -19.211  0.00  0.00    -0.000 C 
ATOM     17  C   UNL     1      32.877 -21.391 -18.384  0.00  0.00    -0.000 C 
ENDBRANCH  11  12
ENDBRANCH   2  11
BRANCH   7  18
ATOM     18  C   UNL     1      32.557 -11.877 -24.185  0.00  0.00    +0.047 C 
BRANCH  18  23
ATOM     19  S   UNL     1      32.015  -9.933 -22.302  0.00  0.00    -0.048 S 
ATOM     20  O   UNL     1      34.817 -10.050 -24.953  0.00  0.00    -0.274 OA
ATOM     21  O   UNL     1      31.994  -7.314 -22.530  0.00  0.00    -0.263 OA
ATOM     22  N   UNL     1      33.500  -8.519 -23.827  0.00  0.00    -0.246 N 
ATOM     23  C   UNL     1      33.238 -10.835 -23.300  0.00  0.00    +0.137 C 
ATOM     24  C   UNL     1      33.949  -9.788 -24.127  0.00  0.00    +0.239 C 
ATOM     25  C   UNL     1      32.500  -8.361 -22.902  0.00  0.00    +0.279 C 
ATOM     26  H   UNL     1      33.892  -7.734 -24.273  0.00  0.00    +0.158 HD
ENDBRANCH  18  23
ENDBRANCH   7  18
TORSDOF 4
ENDMDL
MODEL 6
REMARK VINA RESULT:     -10.5      4.233      9.258
REMARK  Name = 6918151
REMARK  4 active torsions:
REMARK  status: ('A' for Active; 'I' for Inactive)
REMARK    1  A    between atoms: C_2  and  C_11
REMARK    2  A    between atoms: C_7  and  C_18
REMARK    3  A    between atoms: C_11  and  C_12
REMARK    4  A    between atoms: C_18  and  C_23
REMARK                            x       y       z     vdW  Elec       q    Type
REMARK                         _______ _______ _______ _____ _____    ______ ____
ROOT
ATOM      1  O   UNL     1      34.416 -22.593 -15.971  0.00  0.00    -0.479 OA
ATOM      2  C   UNL     1      33.419 -23.460 -15.410  0.00  0.00    +0.171 C 
ATOM      3  C   UNL     1      32.057 -22.770 -15.341  0.00  0.00    +0.049 C 
ATOM      4  C   UNL     1      31.593 -22.442 -16.755  0.00  0.00    +0.033 C 
ATOM      5  C   UNL     1      32.712 -21.832 -17.548  0.00  0.00    +0.012 C 
ATOM      6  C   UNL     1      34.043 -21.950 -17.124  0.00  0.00    +0.134 C 
ATOM      7  C   UNL     1      33.467 -20.583 -19.488  0.00  0.00    -0.021 C 
ATOM      8  C   UNL     1      32.434 -21.155 -18.743  0.00  0.00    -0.006 C 
ATOM      9  C   UNL     1      35.073 -21.366 -17.864  0.00  0.00    +0.036 C 
ATOM     10  C   UNL     1      34.785 -20.685 -19.047  0.00  0.00    -0.001 C 
ENDROOT
BRANCH   2  11
ATOM     11  C   UNL     1      33.896 -23.854 -14.017  0.00  0.00    +0.070 C 
BRANCH  11  12
ATOM     12  C   UNL     1      35.250 -24.510 -14.057  0.00  0.00    -0.019 C 
ATOM     13  C   UNL     1      35.339 -25.880 -14.267  0.00  0.00    -0.004 C 
ATOM     14  C   UNL     1      36.390 -23.738 -13.884  0.00  0.00    -0.004 C 
ATOM     15  C   UNL     1      36.594 -26.489 -14.304  0.00  0.00    -0.000 C 
ATOM     16  C   UNL     1      37.645 -24.347 -13.923  0.00  0.00    -0.000 C 
ATOM     17  C   UNL     1      37.746 -25.722 -14.132  0.00  0.00    -0.000 C 
ENDBRANCH  11  12
ENDBRANCH   2  11
BRANCH   7  18
ATOM     18  C   UNL     1      33.159 -19.860 -20.755  0.00  0.00    +0.047 C 
BRANCH  18  23
ATOM     19  S   UNL     1      34.441 -17.422 -20.575  0.00  0.00    -0.048 S 
ATOM     20  O   UNL     1      34.160 -19.816 -23.590  0.00  0.00    -0.274 OA
ATOM     21  O   UNL     1      34.489 -15.405 -22.260  0.00  0.00    -0.263 OA
ATOM     22  N   UNL     1      34.333 -17.557 -23.124  0.00  0.00    -0.246 N 
ATOM     23  C   UNL     1      34.364 -19.092 -21.292  0.00  0.00    +0.137 C 
ATOM     24  C   UNL     1      34.272 -18.894 -22.788  0.00  0.00    +0.239 C 
ATOM     25  C   UNL     1      34.428 -16.618 -22.129  0.00  0.00    +0.279 C 
ATOM     26  H   UNL     1      34.309 -17.280 -24.068  0.00  0.00    +0.158 HD
ENDBRANCH  18  23
ENDBRANCH   7  18
TORSDOF 4
ENDMDL
MODEL 7
REMARK VINA RESULT:     -10.4      5.817     10.068
REMARK  Name = 6918151
REMARK  4 active torsions:
REMARK  status: ('A' for Active; 'I' for Inactive)
REMARK    1  A    between atoms: C_2  and  C_11
REMARK    2  A    between atoms: C_7  and  C_18
REMARK    3  A    between atoms: C_11  and  C_12
REMARK    4  A    between atoms: C_18  and  C_23
REMARK                            x       y       z     vdW  Elec       q    Type
REMARK                         _______ _______ _______ _____ _____    ______ ____
ROOT
ATOM      1  O   UNL     1      34.766 -17.211 -20.276  0.00  0.00    -0.479 OA
ATOM      2  C   UNL     1      35.483 -18.129 -21.114  0.00  0.00    +0.171 C 
ATOM      3  C   UNL     1      34.645 -18.554 -22.319  0.00  0.00    +0.049 C 
ATOM      4  C   UNL     1      34.351 -17.330 -23.178  0.00  0.00    +0.033 C 
ATOM      5  C   UNL     1      33.914 -16.178 -22.320  0.00  0.00    +0.012 C 
ATOM      6  C   UNL     1      34.154 -16.177 -20.939  0.00  0.00    +0.134 C 
ATOM      7  C   UNL     1      32.870 -13.996 -22.115  0.00  0.00    -0.021 C 
ATOM      8  C   UNL     1      33.282 -15.072 -22.903  0.00  0.00    -0.006 C 
ATOM      9  C   UNL     1      33.730 -15.105 -20.150  0.00  0.00    +0.036 C 
ATOM     10  C   UNL     1      33.092 -14.014 -20.740  0.00  0.00    -0.001 C 
ENDROOT
BRANCH   2  11
ATOM     11  C   UNL     1      35.846 -19.335 -20.255  0.00  0.00    +0.070 C 
BRANCH  11  12
ATOM     12  C   UNL     1      34.621 -20.033 -19.731  0.00  0.00    -0.019 C 
ATOM     13  C   UNL     1      34.763 -21.068 -18.815  0.00  0.00    -0.004 C 
ATOM     14  C   UNL     1      33.365 -19.634 -20.168  0.00  0.00    -0.004 C 
ATOM     15  C   UNL     1      33.628 -21.715 -18.329  0.00  0.00    -0.000 C 
ATOM     16  C   UNL     1      32.230 -20.282 -19.681  0.00  0.00    -0.000 C 
ATOM     17  C   UNL     1      32.361 -21.322 -18.762  0.00  0.00    -0.000 C 
ENDBRANCH  11  12
ENDBRANCH   2  11
BRANCH   7  18
ATOM     18  C   UNL     1      32.193 -12.827 -22.746  0.00  0.00    +0.047 C 
BRANCH  18  23
ATOM     19  S   UNL     1      31.427 -10.660 -21.218  0.00  0.00    -0.048 S 
ATOM     20  O   UNL     1      33.862 -10.799 -24.209  0.00  0.00    -0.274 OA
ATOM     21  O   UNL     1      30.770  -8.221 -21.946  0.00  0.00    -0.263 OA
ATOM     22  N   UNL     1      32.359  -9.355 -23.207  0.00  0.00    -0.246 N 
ATOM     23  C   UNL     1      32.707 -11.496 -22.203  0.00  0.00    +0.137 C 
ATOM     24  C   UNL     1      33.056 -10.541 -23.322  0.00  0.00    +0.239 C 
ATOM     25  C   UNL     1      31.461  -9.200 -22.182  0.00  0.00    +0.279 C 
ATOM     26  H   UNL     1      32.504  -8.629 -23.854  0.00  0.00    +0.158 HD
ENDBRANCH  18  23
ENDBRANCH   7  18
TORSDOF 4
ENDMDL
MODEL 8
REMARK VINA RESULT:     -10.3      7.276     11.766
REMARK  Name = 6918151
REMARK  4 active torsions:
REMARK  status: ('A' for Active; 'I' for Inactive)
REMARK    1  A    between atoms: C_2  and  C_11
REMARK    2  A    between atoms: C_7  and  C_18
REMARK    3  A    between atoms: C_11  and  C_12
REMARK    4  A    between atoms: C_18  and  C_23
REMARK                            x       y       z     vdW  Elec       q    Type
REMARK                         _______ _______ _______ _____ _____    ______ ____
ROOT
ATOM      1  O   UNL     1      33.301 -15.688 -24.510  0.00  0.00    -0.479 OA
ATOM      2  C   UNL     1      33.308 -16.354 -23.238  0.00  0.00    +0.171 C 
ATOM      3  C   UNL     1      34.208 -15.631 -22.237  0.00  0.00    +0.049 C 
ATOM      4  C   UNL     1      33.653 -14.234 -21.986  0.00  0.00    +0.033 C 
ATOM      5  C   UNL     1      33.281 -13.575 -23.283  0.00  0.00    +0.012 C 
ATOM      6  C   UNL     1      33.116 -14.330 -24.452  0.00  0.00    +0.134 C 
ATOM      7  C   UNL     1      32.722 -11.568 -24.528  0.00  0.00    -0.021 C 
ATOM      8  C   UNL     1      33.067 -12.191 -23.328  0.00  0.00    -0.006 C 
ATOM      9  C   UNL     1      32.783 -13.702 -25.655  0.00  0.00    +0.036 C 
ATOM     10  C   UNL     1      32.583 -12.323 -25.691  0.00  0.00    -0.001 C 
ENDROOT
BRANCH   2  11
ATOM     11  C   UNL     1      33.799 -17.777 -23.477  0.00  0.00    +0.070 C 
BRANCH  11  12
ATOM     12  C   UNL     1      34.301 -18.413 -22.209  0.00  0.00    -0.019 C 
ATOM     13  C   UNL     1      33.420 -19.125 -21.406  0.00  0.00    -0.004 C 
ATOM     14  C   UNL     1      35.638 -18.279 -21.859  0.00  0.00    -0.004 C 
ATOM     15  C   UNL     1      33.885 -19.715 -20.231  0.00  0.00    -0.000 C 
ATOM     16  C   UNL     1      36.102 -18.870 -20.683  0.00  0.00    -0.000 C 
ATOM     17  C   UNL     1      35.226 -19.587 -19.869  0.00  0.00    -0.000 C 
ENDBRANCH  11  12
ENDBRANCH   2  11
BRANCH   7  18
ATOM     18  C   UNL     1      32.503 -10.094 -24.565  0.00  0.00    +0.047 C 
BRANCH  18  23
ATOM     19  S   UNL     1      31.549  -8.189 -22.810  0.00  0.00    -0.048 S 
ATOM     20  O   UNL     1      35.196  -9.197 -23.574  0.00  0.00    -0.274 OA
ATOM     21  O   UNL     1      32.389  -5.741 -22.347  0.00  0.00    -0.263 OA
ATOM     22  N   UNL     1      33.958  -7.348 -22.941  0.00  0.00    -0.246 N 
ATOM     23  C   UNL     1      32.814  -9.427 -23.228  0.00  0.00    +0.137 C 
ATOM     24  C   UNL     1      34.126  -8.676 -23.276  0.00  0.00    +0.239 C 
ATOM     25  C   UNL     1      32.701  -6.880 -22.657  0.00  0.00    +0.279 C 
ATOM     26  H   UNL     1      34.733  -6.743 -22.907  0.00  0.00    +0.158 HD
ENDBRANCH  18  23
ENDBRANCH   7  18
TORSDOF 4
ENDMDL
MODEL 9
REMARK VINA RESULT:     -10.2      1.197      2.081
REMARK  Name = 6918151
REMARK  4 active torsions:
REMARK  status: ('A' for Active; 'I' for Inactive)
REMARK    1  A    between atoms: C_2  and  C_11
REMARK    2  A    between atoms: C_7  and  C_18
REMARK    3  A    between atoms: C_11  and  C_12
REMARK    4  A    between atoms: C_18  and  C_23
REMARK                            x       y       z     vdW  Elec       q    Type
REMARK                         _______ _______ _______ _____ _____    ______ ____
ROOT
ATOM      1  O   UNL     1      33.502 -18.792 -21.160  0.00  0.00    -0.479 OA
ATOM      2  C   UNL     1      34.815 -18.641 -21.721  0.00  0.00    +0.171 C 
ATOM      3  C   UNL     1      35.884 -18.603 -20.630  0.00  0.00    +0.049 C 
ATOM      4  C   UNL     1      35.886 -19.934 -19.887  0.00  0.00    +0.033 C 
ATOM      5  C   UNL     1      34.483 -20.354 -19.558  0.00  0.00    +0.012 C 
ATOM      6  C   UNL     1      33.386 -19.777 -20.213  0.00  0.00    +0.134 C 
ATOM      7  C   UNL     1      32.959 -21.754 -18.290  0.00  0.00    -0.021 C 
ATOM      8  C   UNL     1      34.259 -21.356 -18.604  0.00  0.00    -0.006 C 
ATOM      9  C   UNL     1      32.085 -20.168 -19.887  0.00  0.00    +0.036 C 
ATOM     10  C   UNL     1      31.873 -21.158 -18.928  0.00  0.00    -0.001 C 
ENDROOT
BRANCH   2  11
ATOM     11  C   UNL     1      34.816 -17.346 -22.524  0.00  0.00    +0.070 C 
BRANCH  11  12
ATOM     12  C   UNL     1      34.198 -16.211 -21.753  0.00  0.00    -0.019 C 
ATOM     13  C   UNL     1      34.177 -16.260 -20.365  0.00  0.00    -0.004 C 
ATOM     14  C   UNL     1      33.658 -15.132 -22.438  0.00  0.00    -0.004 C 
ATOM     15  C   UNL     1      33.604 -15.209 -19.649  0.00  0.00    -0.000 C 
ATOM     16  C   UNL     1      33.086 -14.080 -21.721  0.00  0.00    -0.000 C 
ATOM     17  C   UNL     1      33.058 -14.119 -20.328  0.00  0.00    -0.000 C 
ENDBRANCH  11  12
ENDBRANCH   2  11
BRANCH   7  18
ATOM     18  C   UNL     1      32.732 -22.816 -17.268  0.00  0.00    +0.047 C 
BRANCH  18  23
ATOM     19  S   UNL     1      33.347 -22.895 -14.578  0.00  0.00    -0.048 S 
ATOM     20  O   UNL     1      29.921 -22.398 -16.286  0.00  0.00    -0.274 OA
ATOM     21  O   UNL     1      32.113 -24.099 -12.594  0.00  0.00    -0.263 OA
ATOM     22  N   UNL     1      30.833 -23.297 -14.360  0.00  0.00    -0.246 N 
ATOM     23  C   UNL     1      32.306 -22.242 -15.919  0.00  0.00    +0.137 C 
ATOM     24  C   UNL     1      30.889 -22.639 -15.572  0.00  0.00    +0.239 C 
ATOM     25  C   UNL     1      31.994 -23.533 -13.669  0.00  0.00    +0.279 C 
ATOM     26  H   UNL     1      29.969 -23.593 -13.995  0.00  0.00    +0.158 HD
ENDBRANCH  18  23
ENDBRANCH   7  18
TORSDOF 4
ENDMDL
