MODEL 1
REMARK VINA RESULT:     -11.4      0.000      0.000
REMARK  Name = 60795
REMARK  7 active torsions:
REMARK  status: ('A' for Active; 'I' for Inactive)
REMARK    1  A    between atoms: C_1  and  N_2
REMARK    2  A    between atoms: C_1  and  C_17
REMARK    3  A    between atoms: N_3  and  C_11
REMARK    4  A    between atoms: C_17  and  C_18
REMARK    5  A    between atoms: C_18  and  C_19
REMARK    6  A    between atoms: C_19  and  O_20
REMARK    7  A    between atoms: O_20  and  C_26
REMARK                            x       y       z     vdW  Elec       q    Type
REMARK                         _______ _______ _______ _____ _____    ______ ____
ROOT
ATOM      1  C   UNL     1      34.961 -21.435 -18.312  0.00  0.00    -0.077 C 
ENDROOT
BRANCH   1   2
ATOM      2  N   UNL     1      34.884 -20.647 -19.541  0.00  0.00    +0.389 N 
ATOM      3  N   UNL     1      34.416 -18.309 -21.115  0.00  0.00    -0.311 N 
ATOM      4  C   UNL     1      33.517 -20.157 -19.754  0.00  0.00    -0.055 C 
ATOM      5  C   UNL     1      35.817 -19.515 -19.486  0.00  0.00    -0.055 C 
ATOM      6  C   UNL     1      33.410 -19.378 -21.067  0.00  0.00    +0.068 C 
ATOM      7  C   UNL     1      35.787 -18.713 -20.790  0.00  0.00    +0.068 C 
ATOM      8  H   UNL     1      35.144 -21.249 -20.322  0.00  0.00    -0.080 HD
BRANCH   3  11
ATOM      9 CL   UNL     1      33.964 -15.627 -19.825  0.00  0.00    -0.080 Cl
ATOM     10 CL   UNL     1      33.469 -13.250 -21.924  0.00  0.00    -0.081 Cl
ATOM     11  C   UNL     1      34.197 -17.238 -21.988  0.00  0.00    +0.059 C 
ATOM     12  C   UNL     1      33.968 -15.920 -21.536  0.00  0.00    +0.081 C 
ATOM     13  C   UNL     1      34.200 -17.464 -23.380  0.00  0.00    +0.015 C 
ATOM     14  C   UNL     1      33.752 -14.877 -22.438  0.00  0.00    +0.069 C 
ATOM     15  C   UNL     1      33.985 -16.421 -24.281  0.00  0.00    +0.002 C 
ATOM     16  C   UNL     1      33.761 -15.128 -23.810  0.00  0.00    +0.012 C 
ENDBRANCH   3  11
ENDBRANCH   1   2
BRANCH   1  17
ATOM     17  C   UNL     1      35.998 -20.839 -17.363  0.00  0.00    -0.019 C 
BRANCH  17  18
ATOM     18  C   UNL     1      36.426 -21.853 -16.303  0.00  0.00    +0.045 C 
BRANCH  18  19
ATOM     19  C   UNL     1      35.331 -22.083 -15.269  0.00  0.00    +0.205 C 
BRANCH  19  20
ATOM     20  O   UNL     1      34.622 -23.282 -15.575  0.00  0.00    -0.475 OA
BRANCH  20  26
ATOM     21  O   UNL     1      27.677 -21.961 -16.265  0.00  0.00    -0.275 OA
ATOM     22  N   UNL     1      29.925 -22.350 -16.003  0.00  0.00    -0.284 N 
ATOM     23  C   UNL     1      30.747 -23.619 -14.098  0.00  0.00    -0.008 C 
ATOM     24  C   UNL     1      29.356 -23.636 -13.532  0.00  0.00    +0.037 C 
ATOM     25  C   UNL     1      30.990 -22.939 -15.299  0.00  0.00    +0.049 C 
ATOM     26  C   UNL     1      33.353 -23.391 -15.093  0.00  0.00    +0.140 C 
ATOM     27  C   UNL     1      28.318 -23.608 -14.643  0.00  0.00    +0.090 C 
ATOM     28  C   UNL     1      32.292 -22.816 -15.792  0.00  0.00    +0.051 C 
ATOM     29  C   UNL     1      31.820 -24.180 -13.398  0.00  0.00    +0.000 C 
ATOM     30  C   UNL     1      33.118 -24.074 -13.900  0.00  0.00    +0.037 C 
ATOM     31  C   UNL     1      28.595 -22.541 -15.685  0.00  0.00    +0.226 C 
ATOM     32  H   UNL     1      30.141 -21.768 -16.768  0.00  0.00    +0.155 HD
ENDBRANCH  20  26
ENDBRANCH  19  20
ENDBRANCH  18  19
ENDBRANCH  17  18
ENDBRANCH   1  17
TORSDOF 7
ENDMDL
MODEL 2
REMARK VINA RESULT:     -11.0      6.365     12.280
REMARK  Name = 60795
REMARK  7 active torsions:
REMARK  status: ('A' for Active; 'I' for Inactive)
REMARK    1  A    between atoms: C_1  and  N_2
REMARK    2  A    between atoms: C_1  and  C_17
REMARK    3  A    between atoms: N_3  and  C_11
REMARK    4  A    between atoms: C_17  and  C_18
REMARK    5  A    between atoms: C_18  and  C_19
REMARK    6  A    between atoms: C_19  and  O_20
REMARK    7  A    between atoms: O_20  and  C_26
REMARK                            x       y       z     vdW  Elec       q    Type
REMARK                         _______ _______ _______ _____ _____    ______ ____
ROOT
ATOM      1  C   UNL     1      33.683 -15.821 -23.973  0.00  0.00    -0.077 C 
ENDROOT
BRANCH   1   2
ATOM      2  N   UNL     1      34.236 -16.873 -23.120  0.00  0.00    +0.389 N 
ATOM      3  N   UNL     1      34.212 -18.811 -21.021  0.00  0.00    -0.311 N 
ATOM      4  C   UNL     1      34.243 -16.447 -21.715  0.00  0.00    -0.055 C 
ATOM      5  C   UNL     1      33.462 -18.112 -23.262  0.00  0.00    -0.055 C 
ATOM      6  C   UNL     1      34.873 -17.515 -20.820  0.00  0.00    +0.068 C 
ATOM      7  C   UNL     1      34.064 -19.238 -22.417  0.00  0.00    +0.068 C 
ATOM      8  H   UNL     1      35.196 -17.049 -23.415  0.00  0.00    -0.080 HD
BRANCH   3  11
ATOM      9 CL   UNL     1      31.626 -19.989 -20.027  0.00  0.00    -0.080 Cl
ATOM     10 CL   UNL     1      32.009 -22.177 -17.710  0.00  0.00    -0.081 Cl
ATOM     11  C   UNL     1      34.325 -19.772 -20.011  0.00  0.00    +0.059 C 
ATOM     12  C   UNL     1      33.204 -20.414 -19.441  0.00  0.00    +0.081 C 
ATOM     13  C   UNL     1      35.602 -20.127 -19.529  0.00  0.00    +0.015 C 
ATOM     14  C   UNL     1      33.356 -21.368 -18.433  0.00  0.00    +0.069 C 
ATOM     15  C   UNL     1      35.753 -21.081 -18.522  0.00  0.00    +0.002 C 
ATOM     16  C   UNL     1      34.630 -21.701 -17.974  0.00  0.00    +0.012 C 
ENDBRANCH   3  11
ENDBRANCH   1   2
BRANCH   1  17
ATOM     17  C   UNL     1      33.833 -14.459 -23.299  0.00  0.00    -0.019 C 
BRANCH  17  18
ATOM     18  C   UNL     1      32.504 -13.704 -23.277  0.00  0.00    +0.045 C 
BRANCH  18  19
ATOM     19  C   UNL     1      32.657 -12.315 -22.670  0.00  0.00    +0.205 C 
BRANCH  19  20
ATOM     20  O   UNL     1      33.384 -11.474 -23.564  0.00  0.00    -0.475 OA
BRANCH  20  26
ATOM     21  O   UNL     1      29.639  -5.846 -21.382  0.00  0.00    -0.275 OA
ATOM     22  N   UNL     1      30.842  -7.651 -22.139  0.00  0.00    -0.284 N 
ATOM     23  C   UNL     1      33.119  -7.368 -22.946  0.00  0.00    -0.008 C 
ATOM     24  C   UNL     1      32.962  -5.881 -22.814  0.00  0.00    +0.037 C 
ATOM     25  C   UNL     1      32.035  -8.202 -22.640  0.00  0.00    +0.049 C 
ATOM     26  C   UNL     1      33.295 -10.131 -23.361  0.00  0.00    +0.140 C 
ATOM     27  C   UNL     1      31.997  -5.534 -21.690  0.00  0.00    +0.090 C 
ATOM     28  C   UNL     1      32.117  -9.580 -22.856  0.00  0.00    +0.051 C 
ATOM     29  C   UNL     1      34.290  -7.930 -23.464  0.00  0.00    +0.000 C 
ATOM     30  C   UNL     1      34.380  -9.309 -23.662  0.00  0.00    +0.037 C 
ATOM     31  C   UNL     1      30.708  -6.332 -21.751  0.00  0.00    +0.226 C 
ATOM     32  H   UNL     1      30.056  -8.240 -22.061  0.00  0.00    +0.155 HD
ENDBRANCH  20  26
ENDBRANCH  19  20
ENDBRANCH  18  19
ENDBRANCH  17  18
ENDBRANCH   1  17
TORSDOF 7
ENDMDL
MODEL 3
REMARK VINA RESULT:     -11.0      3.206      5.996
REMARK  Name = 60795
REMARK  7 active torsions:
REMARK  status: ('A' for Active; 'I' for Inactive)
REMARK    1  A    between atoms: C_1  and  N_2
REMARK    2  A    between atoms: C_1  and  C_17
REMARK    3  A    between atoms: N_3  and  C_11
REMARK    4  A    between atoms: C_17  and  C_18
REMARK    5  A    between atoms: C_18  and  C_19
REMARK    6  A    between atoms: C_19  and  O_20
REMARK    7  A    between atoms: O_20  and  C_26
REMARK                            x       y       z     vdW  Elec       q    Type
REMARK                         _______ _______ _______ _____ _____    ______ ____
ROOT
ATOM      1  C   UNL     1      33.828 -17.105 -23.730  0.00  0.00    -0.077 C 
ENDROOT
BRANCH   1   2
ATOM      2  N   UNL     1      33.803 -15.655 -23.543  0.00  0.00    +0.389 N 
ATOM      3  N   UNL     1      32.736 -13.159 -22.652  0.00  0.00    -0.311 N 
ATOM      4  C   UNL     1      32.628 -15.071 -24.203  0.00  0.00    -0.055 C 
ATOM      5  C   UNL     1      33.790 -15.320 -22.114  0.00  0.00    -0.055 C 
ATOM      6  C   UNL     1      32.620 -13.548 -24.064  0.00  0.00    +0.068 C 
ATOM      7  C   UNL     1      33.819 -13.803 -21.903  0.00  0.00    +0.068 C 
ATOM      8  H   UNL     1      34.645 -15.265 -23.964  0.00  0.00    -0.080 HD
BRANCH   3  11
ATOM      9 CL   UNL     1      31.054 -13.001 -20.160  0.00  0.00    -0.080 Cl
ATOM     10 CL   UNL     1      30.120 -10.021 -19.418  0.00  0.00    -0.081 Cl
ATOM     11  C   UNL     1      32.304 -11.880 -22.284  0.00  0.00    +0.059 C 
ATOM     12  C   UNL     1      31.508 -11.643 -21.143  0.00  0.00    +0.081 C 
ATOM     13  C   UNL     1      32.668 -10.769 -23.074  0.00  0.00    +0.015 C 
ATOM     14  C   UNL     1      31.095 -10.352 -20.808  0.00  0.00    +0.069 C 
ATOM     15  C   UNL     1      32.256  -9.480 -22.738  0.00  0.00    +0.002 C 
ATOM     16  C   UNL     1      31.470  -9.271 -21.605  0.00  0.00    +0.012 C 
ENDBRANCH   3  11
ENDBRANCH   1   2
BRANCH   1  17
ATOM     17  C   UNL     1      34.494 -17.783 -22.533  0.00  0.00    -0.019 C 
BRANCH  17  18
ATOM     18  C   UNL     1      33.720 -19.028 -22.102  0.00  0.00    +0.045 C 
BRANCH  18  19
ATOM     19  C   UNL     1      33.738 -19.206 -20.590  0.00  0.00    +0.205 C 
BRANCH  19  20
ATOM     20  O   UNL     1      34.599 -20.288 -20.240  0.00  0.00    -0.475 OA
BRANCH  20  26
ATOM     21  O   UNL     1      36.803 -22.716 -13.940  0.00  0.00    -0.275 OA
ATOM     22  N   UNL     1      36.091 -21.982 -15.996  0.00  0.00    -0.284 N 
ATOM     23  C   UNL     1      33.778 -22.284 -16.683  0.00  0.00    -0.008 C 
ATOM     24  C   UNL     1      33.533 -23.091 -15.442  0.00  0.00    +0.037 C 
ATOM     25  C   UNL     1      35.064 -21.789 -16.937  0.00  0.00    +0.049 C 
ATOM     26  C   UNL     1      34.332 -20.941 -19.076  0.00  0.00    +0.140 C 
ATOM     27  C   UNL     1      34.435 -22.629 -14.307  0.00  0.00    +0.090 C 
ATOM     28  C   UNL     1      35.345 -21.127 -18.135  0.00  0.00    +0.051 C 
ATOM     29  C   UNL     1      32.773 -22.103 -17.639  0.00  0.00    +0.000 C 
ATOM     30  C   UNL     1      33.049 -21.425 -18.828  0.00  0.00    +0.037 C 
ATOM     31  C   UNL     1      35.885 -22.485 -14.726  0.00  0.00    +0.226 C 
ATOM     32  H   UNL     1      37.010 -21.744 -16.258  0.00  0.00    +0.155 HD
ENDBRANCH  20  26
ENDBRANCH  19  20
ENDBRANCH  18  19
ENDBRANCH  17  18
ENDBRANCH   1  17
TORSDOF 7
ENDMDL
MODEL 4
REMARK VINA RESULT:     -10.9      5.941     12.008
REMARK  Name = 60795
REMARK  7 active torsions:
REMARK  status: ('A' for Active; 'I' for Inactive)
REMARK    1  A    between atoms: C_1  and  N_2
REMARK    2  A    between atoms: C_1  and  C_17
REMARK    3  A    between atoms: N_3  and  C_11
REMARK    4  A    between atoms: C_17  and  C_18
REMARK    5  A    between atoms: C_18  and  C_19
REMARK    6  A    between atoms: C_19  and  O_20
REMARK    7  A    between atoms: O_20  and  C_26
REMARK                            x       y       z     vdW  Elec       q    Type
REMARK                         _______ _______ _______ _____ _____    ______ ____
ROOT
ATOM      1  C   UNL     1      34.161 -15.634 -24.265  0.00  0.00    -0.077 C 
ENDROOT
BRANCH   1   2
ATOM      2  N   UNL     1      34.432 -16.714 -23.317  0.00  0.00    +0.389 N 
ATOM      3  N   UNL     1      33.798 -18.624 -21.290  0.00  0.00    -0.311 N 
ATOM      4  C   UNL     1      34.154 -16.275 -21.944  0.00  0.00    -0.055 C 
ATOM      5  C   UNL     1      33.622 -17.895 -23.637  0.00  0.00    -0.055 C 
ATOM      6  C   UNL     1      34.488 -17.377 -20.937  0.00  0.00    +0.068 C 
ATOM      7  C   UNL     1      33.937 -19.053 -22.685  0.00  0.00    +0.068 C 
ATOM      8  H   UNL     1      35.418 -16.961 -23.391  0.00  0.00    -0.080 HD
BRANCH   3  11
ATOM      9 CL   UNL     1      36.285 -19.530 -19.856  0.00  0.00    -0.080 Cl
ATOM     10 CL   UNL     1      35.738 -21.727 -17.581  0.00  0.00    -0.081 Cl
ATOM     11  C   UNL     1      33.613 -19.581 -20.286  0.00  0.00    +0.059 C 
ATOM     12  C   UNL     1      34.681 -20.106 -19.526  0.00  0.00    +0.081 C 
ATOM     13  C   UNL     1      32.313 -20.054 -20.008  0.00  0.00    +0.015 C 
ATOM     14  C   UNL     1      34.457 -21.061 -18.533  0.00  0.00    +0.069 C 
ATOM     15  C   UNL     1      32.090 -21.008 -19.015  0.00  0.00    +0.002 C 
ATOM     16  C   UNL     1      33.162 -21.511 -18.278  0.00  0.00    +0.012 C 
ENDBRANCH   3  11
ENDBRANCH   1   2
BRANCH   1  17
ATOM     17  C   UNL     1      32.656 -15.400 -24.387  0.00  0.00    -0.019 C 
BRANCH  17  18
ATOM     18  C   UNL     1      32.357 -14.057 -25.053  0.00  0.00    +0.045 C 
BRANCH  18  19
ATOM     19  C   UNL     1      32.632 -12.890 -24.114  0.00  0.00    +0.205 C 
BRANCH  19  20
ATOM     20  O   UNL     1      33.355 -11.874 -24.805  0.00  0.00    -0.475 OA
BRANCH  20  26
ATOM     21  O   UNL     1      30.554  -7.047 -20.410  0.00  0.00    -0.275 OA
ATOM     22  N   UNL     1      31.443  -8.578 -21.873  0.00  0.00    -0.284 N 
ATOM     23  C   UNL     1      33.545  -8.125 -23.010  0.00  0.00    -0.008 C 
ATOM     24  C   UNL     1      33.538  -6.738 -22.434  0.00  0.00    +0.037 C 
ATOM     25  C   UNL     1      32.473  -8.986 -22.740  0.00  0.00    +0.049 C 
ATOM     26  C   UNL     1      33.415 -10.647 -24.216  0.00  0.00    +0.140 C 
ATOM     27  C   UNL     1      32.831  -6.715 -21.087  0.00  0.00    +0.090 C 
ATOM     28  C   UNL     1      32.401 -10.241 -23.349  0.00  0.00    +0.051 C 
ATOM     29  C   UNL     1      34.549  -8.537 -23.891  0.00  0.00    +0.000 C 
ATOM     30  C   UNL     1      34.488  -9.799 -24.485  0.00  0.00    +0.037 C 
ATOM     31  C   UNL     1      31.492  -7.429 -21.109  0.00  0.00    +0.226 C 
ATOM     32  H   UNL     1      30.640  -9.145 -21.808  0.00  0.00    +0.155 HD
ENDBRANCH  20  26
ENDBRANCH  19  20
ENDBRANCH  18  19
ENDBRANCH  17  18
ENDBRANCH   1  17
TORSDOF 7
ENDMDL
MODEL 5
REMARK VINA RESULT:     -10.9      1.469      2.440
REMARK  Name = 60795
REMARK  7 active torsions:
REMARK  status: ('A' for Active; 'I' for Inactive)
REMARK    1  A    between atoms: C_1  and  N_2
REMARK    2  A    between atoms: C_1  and  C_17
REMARK    3  A    between atoms: N_3  and  C_11
REMARK    4  A    between atoms: C_17  and  C_18
REMARK    5  A    between atoms: C_18  and  C_19
REMARK    6  A    between atoms: C_19  and  O_20
REMARK    7  A    between atoms: O_20  and  C_26
REMARK                            x       y       z     vdW  Elec       q    Type
REMARK                         _______ _______ _______ _____ _____    ______ ____
ROOT
ATOM      1  C   UNL     1      34.277 -19.661 -20.558  0.00  0.00    -0.077 C 
ENDROOT
BRANCH   1   2
ATOM      2  N   UNL     1      34.395 -18.535 -21.483  0.00  0.00    +0.389 N 
ATOM      3  N   UNL     1      33.528 -16.182 -22.851  0.00  0.00    -0.311 N 
ATOM      4  C   UNL     1      33.371 -18.620 -22.531  0.00  0.00    -0.055 C 
ATOM      5  C   UNL     1      34.270 -17.262 -20.764  0.00  0.00    -0.055 C 
ATOM      6  C   UNL     1      33.519 -17.479 -23.539  0.00  0.00    +0.068 C 
ATOM      7  C   UNL     1      34.447 -16.073 -21.713  0.00  0.00    +0.068 C 
ATOM      8  H   UNL     1      35.316 -18.577 -21.919  0.00  0.00    -0.080 HD
BRANCH   3  11
ATOM      9 CL   UNL     1      33.801 -13.552 -21.411  0.00  0.00    -0.080 Cl
ATOM     10 CL   UNL     1      33.034 -11.008 -23.211  0.00  0.00    -0.081 Cl
ATOM     11  C   UNL     1      33.207 -15.041 -23.593  0.00  0.00    +0.059 C 
ATOM     12  C   UNL     1      33.283 -13.736 -23.058  0.00  0.00    +0.081 C 
ATOM     13  C   UNL     1      32.787 -15.178 -24.933  0.00  0.00    +0.015 C 
ATOM     14  C   UNL     1      32.953 -12.621 -23.829  0.00  0.00    +0.069 C 
ATOM     15  C   UNL     1      32.458 -14.063 -25.703  0.00  0.00    +0.002 C 
ATOM     16  C   UNL     1      32.541 -12.784 -25.152  0.00  0.00    +0.012 C 
ENDBRANCH   3  11
ENDBRANCH   1   2
BRANCH   1  17
ATOM     17  C   UNL     1      35.531 -19.771 -19.692  0.00  0.00    -0.019 C 
BRANCH  17  18
ATOM     18  C   UNL     1      35.470 -20.998 -18.783  0.00  0.00    +0.045 C 
BRANCH  18  19
ATOM     19  C   UNL     1      34.034 -21.402 -18.478  0.00  0.00    +0.205 C 
BRANCH  19  20
ATOM     20  O   UNL     1      34.022 -22.598 -17.702  0.00  0.00    -0.475 OA
BRANCH  20  26
ATOM     21  O   UNL     1      27.293 -22.138 -15.475  0.00  0.00    -0.275 OA
ATOM     22  N   UNL     1      29.479 -22.239 -16.171  0.00  0.00    -0.284 N 
ATOM     23  C   UNL     1      31.249 -22.825 -14.609  0.00  0.00    -0.008 C 
ATOM     24  C   UNL     1      30.247 -22.797 -13.491  0.00  0.00    +0.037 C 
ATOM     25  C   UNL     1      30.835 -22.504 -15.909  0.00  0.00    +0.049 C 
ATOM     26  C   UNL     1      33.113 -22.671 -16.691  0.00  0.00    +0.140 C 
ATOM     27  C   UNL     1      28.864 -23.182 -13.993  0.00  0.00    +0.090 C 
ATOM     28  C   UNL     1      31.766 -22.417 -16.948  0.00  0.00    +0.051 C 
ATOM     29  C   UNL     1      32.604 -23.064 -14.360  0.00  0.00    +0.000 C 
ATOM     30  C   UNL     1      33.532 -22.997 -15.401  0.00  0.00    +0.037 C 
ATOM     31  C   UNL     1      28.465 -22.443 -15.256  0.00  0.00    +0.226 C 
ATOM     32  H   UNL     1      29.239 -21.886 -17.059  0.00  0.00    +0.155 HD
ENDBRANCH  20  26
ENDBRANCH  19  20
ENDBRANCH  18  19
ENDBRANCH  17  18
ENDBRANCH   1  17
TORSDOF 7
ENDMDL
MODEL 6
REMARK VINA RESULT:     -10.8      3.357      5.830
REMARK  Name = 60795
REMARK  7 active torsions:
REMARK  status: ('A' for Active; 'I' for Inactive)
REMARK    1  A    between atoms: C_1  and  N_2
REMARK    2  A    between atoms: C_1  and  C_17
REMARK    3  A    between atoms: N_3  and  C_11
REMARK    4  A    between atoms: C_17  and  C_18
REMARK    5  A    between atoms: C_18  and  C_19
REMARK    6  A    between atoms: C_19  and  O_20
REMARK    7  A    between atoms: O_20  and  C_26
REMARK                            x       y       z     vdW  Elec       q    Type
REMARK                         _______ _______ _______ _____ _____    ______ ____
ROOT
ATOM      1  C   UNL     1      33.981 -16.592 -24.001  0.00  0.00    -0.077 C 
ENDROOT
BRANCH   1   2
ATOM      2  N   UNL     1      33.885 -15.165 -23.693  0.00  0.00    +0.389 N 
ATOM      3  N   UNL     1      32.680 -12.801 -22.635  0.00  0.00    -0.311 N 
ATOM      4  C   UNL     1      32.708 -14.577 -24.344  0.00  0.00    -0.055 C 
ATOM      5  C   UNL     1      33.812 -14.955 -22.243  0.00  0.00    -0.055 C 
ATOM      6  C   UNL     1      32.628 -13.073 -24.077  0.00  0.00    +0.068 C 
ATOM      7  C   UNL     1      33.766 -13.462 -21.904  0.00  0.00    +0.068 C 
ATOM      8  H   UNL     1      34.723 -14.706 -24.050  0.00  0.00    -0.080 HD
BRANCH   3  11
ATOM      9 CL   UNL     1      31.030 -12.910 -20.120  0.00  0.00    -0.080 Cl
ATOM     10 CL   UNL     1      29.935 -10.047 -19.167  0.00  0.00    -0.081 Cl
ATOM     11  C   UNL     1      32.180 -11.578 -22.177  0.00  0.00    +0.059 C 
ATOM     12  C   UNL     1      31.389 -11.465 -21.013  0.00  0.00    +0.081 C 
ATOM     13  C   UNL     1      32.467 -10.397 -22.893  0.00  0.00    +0.015 C 
ATOM     14  C   UNL     1      30.906 -10.227 -20.587  0.00  0.00    +0.069 C 
ATOM     15  C   UNL     1      31.986  -9.160 -22.466  0.00  0.00    +0.002 C 
ATOM     16  C   UNL     1      31.205  -9.074 -21.313  0.00  0.00    +0.012 C 
ENDBRANCH   3  11
ENDBRANCH   1   2
BRANCH   1  17
ATOM     17  C   UNL     1      33.744 -17.423 -22.742  0.00  0.00    -0.019 C 
BRANCH  17  18
ATOM     18  C   UNL     1      34.850 -18.460 -22.546  0.00  0.00    +0.045 C 
BRANCH  18  19
ATOM     19  C   UNL     1      34.912 -18.951 -21.106  0.00  0.00    +0.205 C 
BRANCH  19  20
ATOM     20  O   UNL     1      33.773 -19.762 -20.823  0.00  0.00    -0.475 OA
BRANCH  20  26
ATOM     21  O   UNL     1      30.255 -23.114 -15.642  0.00  0.00    -0.275 OA
ATOM     22  N   UNL     1      31.402 -21.989 -17.283  0.00  0.00    -0.284 N 
ATOM     23  C   UNL     1      33.833 -21.927 -17.270  0.00  0.00    -0.008 C 
ATOM     24  C   UNL     1      33.827 -22.616 -15.936  0.00  0.00    +0.037 C 
ATOM     25  C   UNL     1      32.615 -21.601 -17.880  0.00  0.00    +0.049 C 
ATOM     26  C   UNL     1      33.790 -20.470 -19.660  0.00  0.00    +0.140 C 
ATOM     27  C   UNL     1      32.613 -23.523 -15.801  0.00  0.00    +0.090 C 
ATOM     28  C   UNL     1      32.591 -20.865 -19.068  0.00  0.00    +0.051 C 
ATOM     29  C   UNL     1      35.030 -21.514 -17.866  0.00  0.00    +0.000 C 
ATOM     30  C   UNL     1      35.007 -20.796 -19.063  0.00  0.00    +0.037 C 
ATOM     31  C   UNL     1      31.318 -22.841 -16.199  0.00  0.00    +0.226 C 
ATOM     32  H   UNL     1      30.565 -21.632 -17.659  0.00  0.00    +0.155 HD
ENDBRANCH  20  26
ENDBRANCH  19  20
ENDBRANCH  18  19
ENDBRANCH  17  18
ENDBRANCH   1  17
TORSDOF 7
ENDMDL
MODEL 7
REMARK VINA RESULT:     -10.8      4.667      8.195
REMARK  Name = 60795
REMARK  7 active torsions:
REMARK  status: ('A' for Active; 'I' for Inactive)
REMARK    1  A    between atoms: C_1  and  N_2
REMARK    2  A    between atoms: C_1  and  C_17
REMARK    3  A    between atoms: N_3  and  C_11
REMARK    4  A    between atoms: C_17  and  C_18
REMARK    5  A    between atoms: C_18  and  C_19
REMARK    6  A    between atoms: C_19  and  O_20
REMARK    7  A    between atoms: O_20  and  C_26
REMARK                            x       y       z     vdW  Elec       q    Type
REMARK                         _______ _______ _______ _____ _____    ______ ____
ROOT
ATOM      1  C   UNL     1      32.287 -14.399 -25.142  0.00  0.00    -0.077 C 
ENDROOT
BRANCH   1   2
ATOM      2  N   UNL     1      32.877 -13.219 -24.512  0.00  0.00    +0.389 N 
ATOM      3  N   UNL     1      32.916 -10.549 -23.495  0.00  0.00    -0.311 N 
ATOM      4  C   UNL     1      32.844 -12.074 -25.430  0.00  0.00    -0.055 C 
ATOM      5  C   UNL     1      32.165 -12.886 -23.272  0.00  0.00    -0.055 C 
ATOM      6  C   UNL     1      33.511 -10.848 -24.804  0.00  0.00    +0.068 C 
ATOM      7  C   UNL     1      32.809 -11.685 -22.574  0.00  0.00    +0.068 C 
ATOM      8  H   UNL     1      33.849 -13.431 -24.286  0.00  0.00    -0.080 HD
BRANCH   3  11
ATOM      9 CL   UNL     1      30.856  -9.689 -21.476  0.00  0.00    -0.080 Cl
ATOM     10 CL   UNL     1      31.286  -6.702 -20.382  0.00  0.00    -0.081 Cl
ATOM     11  C   UNL     1      33.060  -9.254 -22.986  0.00  0.00    +0.059 C 
ATOM     12  C   UNL     1      32.174  -8.706 -22.034  0.00  0.00    +0.081 C 
ATOM     13  C   UNL     1      34.128  -8.447 -23.431  0.00  0.00    +0.015 C 
ATOM     14  C   UNL     1      32.349  -7.409 -21.549  0.00  0.00    +0.069 C 
ATOM     15  C   UNL     1      34.303  -7.152 -22.946  0.00  0.00    +0.002 C 
ATOM     16  C   UNL     1      33.414  -6.632 -22.005  0.00  0.00    +0.012 C 
ENDBRANCH   3  11
ENDBRANCH   1   2
BRANCH   1  17
ATOM     17  C   UNL     1      32.689 -15.662 -24.384  0.00  0.00    -0.019 C 
BRANCH  17  18
ATOM     18  C   UNL     1      34.082 -15.521 -23.772  0.00  0.00    +0.045 C 
BRANCH  18  19
ATOM     19  C   UNL     1      34.203 -16.290 -22.463  0.00  0.00    +0.205 C 
BRANCH  19  20
ATOM     20  O   UNL     1      34.717 -17.596 -22.716  0.00  0.00    -0.475 OA
BRANCH  20  26
ATOM     21  O   UNL     1      31.585 -21.887 -18.001  0.00  0.00    -0.275 OA
ATOM     22  N   UNL     1      32.604 -20.463 -19.486  0.00  0.00    -0.284 N 
ATOM     23  C   UNL     1      35.019 -20.176 -19.466  0.00  0.00    -0.008 C 
ATOM     24  C   UNL     1      35.091 -21.025 -18.229  0.00  0.00    +0.037 C 
ATOM     25  C   UNL     1      33.768 -19.891 -20.030  0.00  0.00    +0.049 C 
ATOM     26  C   UNL     1      34.813 -18.441 -21.652  0.00  0.00    +0.140 C 
ATOM     27  C   UNL     1      33.969 -22.051 -18.209  0.00  0.00    +0.090 C 
ATOM     28  C   UNL     1      33.663 -19.017 -21.115  0.00  0.00    +0.051 C 
ATOM     29  C   UNL     1      36.165 -19.581 -20.004  0.00  0.00    +0.000 C 
ATOM     30  C   UNL     1      36.062 -18.724 -21.100  0.00  0.00    +0.037 C 
ATOM     31  C   UNL     1      32.611 -21.448 -18.519  0.00  0.00    +0.226 C 
ATOM     32  H   UNL     1      31.733 -20.141 -19.815  0.00  0.00    +0.155 HD
ENDBRANCH  20  26
ENDBRANCH  19  20
ENDBRANCH  18  19
ENDBRANCH  17  18
ENDBRANCH   1  17
TORSDOF 7
ENDMDL
MODEL 8
REMARK VINA RESULT:     -10.7      2.404      4.285
REMARK  Name = 60795
REMARK  7 active torsions:
REMARK  status: ('A' for Active; 'I' for Inactive)
REMARK    1  A    between atoms: C_1  and  N_2
REMARK    2  A    between atoms: C_1  and  C_17
REMARK    3  A    between atoms: N_3  and  C_11
REMARK    4  A    between atoms: C_17  and  C_18
REMARK    5  A    between atoms: C_18  and  C_19
REMARK    6  A    between atoms: C_19  and  O_20
REMARK    7  A    between atoms: O_20  and  C_26
REMARK                            x       y       z     vdW  Elec       q    Type
REMARK                         _______ _______ _______ _____ _____    ______ ____
ROOT
ATOM      1  C   UNL     1      34.682 -21.312 -18.551  0.00  0.00    -0.077 C 
ENDROOT
BRANCH   1   2
ATOM      2  N   UNL     1      34.654 -20.488 -19.759  0.00  0.00    +0.389 N 
ATOM      3  N   UNL     1      34.274 -18.099 -21.278  0.00  0.00    -0.311 N 
ATOM      4  C   UNL     1      33.303 -19.964 -19.994  0.00  0.00    -0.055 C 
ATOM      5  C   UNL     1      35.608 -19.378 -19.648  0.00  0.00    -0.055 C 
ATOM      6  C   UNL     1      33.247 -19.148 -21.286  0.00  0.00    +0.068 C 
ATOM      7  C   UNL     1      35.629 -18.540 -20.930  0.00  0.00    +0.068 C 
ATOM      8  H   UNL     1      34.922 -21.074 -20.549  0.00  0.00    -0.080 HD
BRANCH   3  11
ATOM      9 CL   UNL     1      33.858 -15.442 -19.926  0.00  0.00    -0.080 Cl
ATOM     10 CL   UNL     1      33.466 -12.998 -21.970  0.00  0.00    -0.081 Cl
ATOM     11  C   UNL     1      34.100 -17.000 -22.126  0.00  0.00    +0.059 C 
ATOM     12  C   UNL     1      33.893 -15.690 -21.644  0.00  0.00    +0.081 C 
ATOM     13  C   UNL     1      34.129 -17.189 -23.524  0.00  0.00    +0.015 C 
ATOM     14  C   UNL     1      33.722 -14.618 -22.521  0.00  0.00    +0.069 C 
ATOM     15  C   UNL     1      33.959 -16.117 -24.400  0.00  0.00    +0.002 C 
ATOM     16  C   UNL     1      33.755 -14.832 -23.899  0.00  0.00    +0.012 C 
ENDBRANCH   3  11
ENDBRANCH   1   2
BRANCH   1  17
ATOM     17  C   UNL     1      33.506 -22.287 -18.546  0.00  0.00    -0.019 C 
BRANCH  17  18
ATOM     18  C   UNL     1      32.611 -22.068 -17.326  0.00  0.00    +0.045 C 
BRANCH  18  19
ATOM     19  C   UNL     1      32.517 -23.321 -16.466  0.00  0.00    +0.205 C 
BRANCH  19  20
ATOM     20  O   UNL     1      32.433 -22.957 -15.089  0.00  0.00    -0.475 OA
BRANCH  20  26
ATOM     21  O   UNL     1      38.645 -26.250 -14.078  0.00  0.00    -0.275 OA
ATOM     22  N   UNL     1      36.611 -25.233 -14.396  0.00  0.00    -0.284 N 
ATOM     23  C   UNL     1      35.195 -24.679 -12.497  0.00  0.00    -0.008 C 
ATOM     24  C   UNL     1      36.154 -25.399 -11.594  0.00  0.00    +0.037 C 
ATOM     25  C   UNL     1      35.438 -24.656 -13.877  0.00  0.00    +0.049 C 
ATOM     26  C   UNL     1      33.338 -23.521 -14.243  0.00  0.00    +0.140 C 
ATOM     27  C   UNL     1      37.572 -25.327 -12.141  0.00  0.00    +0.090 C 
ATOM     28  C   UNL     1      34.507 -24.087 -14.751  0.00  0.00    +0.051 C 
ATOM     29  C   UNL     1      34.013 -24.121 -12.000  0.00  0.00    +0.000 C 
ATOM     30  C   UNL     1      33.092 -23.535 -12.871  0.00  0.00    +0.037 C 
ATOM     31  C   UNL     1      37.656 -25.682 -13.614  0.00  0.00    +0.226 C 
ATOM     32  H   UNL     1      36.691 -25.321 -15.374  0.00  0.00    +0.155 HD
ENDBRANCH  20  26
ENDBRANCH  19  20
ENDBRANCH  18  19
ENDBRANCH  17  18
ENDBRANCH   1  17
TORSDOF 7
ENDMDL
MODEL 9
REMARK VINA RESULT:     -10.6      2.386      3.963
REMARK  Name = 60795
REMARK  7 active torsions:
REMARK  status: ('A' for Active; 'I' for Inactive)
REMARK    1  A    between atoms: C_1  and  N_2
REMARK    2  A    between atoms: C_1  and  C_17
REMARK    3  A    between atoms: N_3  and  C_11
REMARK    4  A    between atoms: C_17  and  C_18
REMARK    5  A    between atoms: C_18  and  C_19
REMARK    6  A    between atoms: C_19  and  O_20
REMARK    7  A    between atoms: O_20  and  C_26
REMARK                            x       y       z     vdW  Elec       q    Type
REMARK                         _______ _______ _______ _____ _____    ______ ____
ROOT
ATOM      1  C   UNL     1      34.949 -21.048 -19.074  0.00  0.00    -0.077 C 
ENDROOT
BRANCH   1   2
ATOM      2  N   UNL     1      34.870 -20.154 -20.228  0.00  0.00    +0.389 N 
ATOM      3  N   UNL     1      34.256 -17.731 -21.613  0.00  0.00    -0.311 N 
ATOM      4  C   UNL     1      33.475 -19.786 -20.500  0.00  0.00    -0.055 C 
ATOM      5  C   UNL     1      35.669 -18.944 -19.999  0.00  0.00    -0.055 C 
ATOM      6  C   UNL     1      33.372 -18.897 -21.740  0.00  0.00    +0.068 C 
ATOM      7  C   UNL     1      35.639 -18.024 -21.223  0.00  0.00    +0.068 C 
ATOM      8  H   UNL     1      35.244 -20.646 -21.038  0.00  0.00    -0.080 HD
BRANCH   3  11
ATOM      9 CL   UNL     1      33.786 -15.161 -20.119  0.00  0.00    -0.080 Cl
ATOM     10 CL   UNL     1      33.161 -12.654 -22.025  0.00  0.00    -0.081 Cl
ATOM     11  C   UNL     1      33.981 -16.608 -22.400  0.00  0.00    +0.059 C 
ATOM     12  C   UNL     1      33.737 -15.331 -21.847  0.00  0.00    +0.081 C 
ATOM     13  C   UNL     1      33.940 -16.734 -23.804  0.00  0.00    +0.015 C 
ATOM     14  C   UNL     1      33.464 -14.233 -22.663  0.00  0.00    +0.069 C 
ATOM     15  C   UNL     1      33.669 -15.636 -24.619  0.00  0.00    +0.002 C 
ATOM     16  C   UNL     1      33.431 -14.385 -24.049  0.00  0.00    +0.012 C 
ENDBRANCH   3  11
ENDBRANCH   1   2
BRANCH   1  17
ATOM     17  C   UNL     1      33.592 -21.141 -18.381  0.00  0.00    -0.019 C 
BRANCH  17  18
ATOM     18  C   UNL     1      33.212 -22.595 -18.101  0.00  0.00    +0.045 C 
BRANCH  18  19
ATOM     19  C   UNL     1      32.524 -22.748 -16.751  0.00  0.00    +0.205 C 
BRANCH  19  20
ATOM     20  O   UNL     1      33.068 -23.868 -16.055  0.00  0.00    -0.475 OA
BRANCH  20  26
ATOM     21  O   UNL     1      34.460 -24.664  -9.136  0.00  0.00    -0.275 OA
ATOM     22  N   UNL     1      33.993 -24.356 -11.363  0.00  0.00    -0.284 N 
ATOM     23  C   UNL     1      35.493 -23.060 -12.773  0.00  0.00    -0.008 C 
ATOM     24  C   UNL     1      36.293 -22.695 -11.556  0.00  0.00    +0.037 C 
ATOM     25  C   UNL     1      34.344 -23.848 -12.627  0.00  0.00    +0.049 C 
ATOM     26  C   UNL     1      33.860 -23.605 -14.980  0.00  0.00    +0.140 C 
ATOM     27  C   UNL     1      36.225 -23.798 -10.511  0.00  0.00    +0.090 C 
ATOM     28  C   UNL     1      33.522 -24.113 -13.726  0.00  0.00    +0.051 C 
ATOM     29  C   UNL     1      35.815 -22.544 -14.032  0.00  0.00    +0.000 C 
ATOM     30  C   UNL     1      35.005 -22.824 -15.134  0.00  0.00    +0.037 C 
ATOM     31  C   UNL     1      34.810 -24.280 -10.252  0.00  0.00    +0.226 C 
ATOM     32  H   UNL     1      33.115 -24.791 -11.266  0.00  0.00    +0.155 HD
ENDBRANCH  20  26
ENDBRANCH  19  20
ENDBRANCH  18  19
ENDBRANCH  17  18
ENDBRANCH   1  17
TORSDOF 7
ENDMDL
