MODEL 1
REMARK VINA RESULT:     -11.3      0.000      0.000
REMARK  Name = 445481
REMARK  5 active torsions:
REMARK  status: ('A' for Active; 'I' for Inactive)
REMARK    1  A    between atoms: N_2  and  C_21
REMARK    2  A    between atoms: C_3  and  N_7
REMARK    3  A    between atoms: N_7  and  S_9
REMARK    4  A    between atoms: S_9  and  C_14
REMARK    5  A    between atoms: C_21  and  C_24
REMARK                            x       y       z     vdW  Elec       q    Type
REMARK                         _______ _______ _______ _____ _____    ______ ____
ROOT
ATOM      1  O   UNL     1      35.710 -20.828 -19.093  0.00  0.00    -0.273 OA
ATOM      2  N   UNL     1      34.244 -19.619 -20.479  0.00  0.00    -0.273 N 
ATOM      3  C   UNL     1      33.314 -21.236 -19.082  0.00  0.00    +0.153 C 
ATOM      4  C   UNL     1      32.227 -20.266 -19.535  0.00  0.00    +0.048 C 
ATOM      5  C   UNL     1      32.828 -19.606 -20.761  0.00  0.00    +0.096 C 
ATOM      6  C   UNL     1      34.593 -20.559 -19.510  0.00  0.00    +0.242 C 
ENDROOT
BRANCH   3   7
ATOM      7  N   UNL     1      33.309 -21.392 -17.624  0.00  0.00    -0.171 NA
ATOM      8  H   UNL     1      34.280 -21.482 -17.325  0.00  0.00    +0.149 HD
BRANCH   7   9
ATOM      9  S   UNL     1      32.447 -22.715 -16.956  0.00  0.00    +0.066 S 
ATOM     10  O   UNL     1      32.726 -23.907 -17.732  0.00  0.00    -0.152 OA
ATOM     11  O   UNL     1      31.086 -22.301 -16.673  0.00  0.00    -0.152 OA
BRANCH   9  14
ATOM     12  S   UNL     1      34.760 -22.565 -15.182  0.00  0.00    -0.066 S 
ATOM     13  N   UNL     1      33.336 -24.093 -11.900  0.00  0.00    -0.243 NA
ATOM     14  C   UNL     1      33.138 -23.029 -15.332  0.00  0.00    +0.153 C 
ATOM     15  C   UNL     1      32.607 -23.565 -14.210  0.00  0.00    +0.046 C 
ATOM     16  C   UNL     1      33.565 -23.609 -13.152  0.00  0.00    +0.089 C 
ATOM     17  C   UNL     1      34.799 -23.090 -13.546  0.00  0.00    +0.048 C 
ATOM     18  C   UNL     1      35.866 -23.050 -12.637  0.00  0.00    +0.010 C 
ATOM     19  C   UNL     1      35.638 -23.542 -11.358  0.00  0.00    +0.021 C 
ATOM     20  C   UNL     1      34.385 -24.039 -11.054  0.00  0.00    +0.099 C 
ENDBRANCH   9  14
ENDBRANCH   7   9
ENDBRANCH   3   7
BRANCH   2  21
ATOM     21  C   UNL     1      35.174 -18.814 -21.239  0.00  0.00    +0.135 C 
BRANCH  21  24
ATOM     22  N   UNL     1      34.558 -16.849 -22.623  0.00  0.00    -0.313 N 
ATOM     23  N   UNL     1      33.293 -13.410 -23.065  0.00  0.00    -0.241 NA
ATOM     24  C   UNL     1      34.655 -17.410 -21.393  0.00  0.00    +0.046 C 
ATOM     25  C   UNL     1      34.233 -16.531 -20.449  0.00  0.00    +0.013 C 
ATOM     26  C   UNL     1      33.847 -15.345 -21.135  0.00  0.00    +0.017 C 
ATOM     27  C   UNL     1      34.061 -15.573 -22.495  0.00  0.00    +0.068 C 
ATOM     28  C   UNL     1      33.337 -14.103 -20.734  0.00  0.00    +0.022 C 
ATOM     29  C   UNL     1      33.785 -14.609 -23.456  0.00  0.00    +0.113 C 
ATOM     30  C   UNL     1      33.085 -13.188 -21.748  0.00  0.00    +0.099 C 
ATOM     31  H   UNL     1      34.805 -17.284 -23.471  0.00  0.00    +0.152 HD
ENDBRANCH  21  24
ENDBRANCH   2  21
TORSDOF 5
ENDMDL
MODEL 2
REMARK VINA RESULT:     -10.9      2.946     10.405
REMARK  Name = 445481
REMARK  5 active torsions:
REMARK  status: ('A' for Active; 'I' for Inactive)
REMARK    1  A    between atoms: N_2  and  C_21
REMARK    2  A    between atoms: C_3  and  N_7
REMARK    3  A    between atoms: N_7  and  S_9
REMARK    4  A    between atoms: S_9  and  C_14
REMARK    5  A    between atoms: C_21  and  C_24
REMARK                            x       y       z     vdW  Elec       q    Type
REMARK                         _______ _______ _______ _____ _____    ______ ____
ROOT
ATOM      1  O   UNL     1      35.328 -20.829 -19.222  0.00  0.00    -0.273 OA
ATOM      2  N   UNL     1      33.189 -21.610 -18.631  0.00  0.00    -0.273 N 
ATOM      3  C   UNL     1      33.313 -19.610 -19.821  0.00  0.00    +0.153 C 
ATOM      4  C   UNL     1      31.905 -20.185 -19.935  0.00  0.00    +0.048 C 
ATOM      5  C   UNL     1      31.825 -21.160 -18.776  0.00  0.00    +0.096 C 
ATOM      6  C   UNL     1      34.109 -20.739 -19.215  0.00  0.00    +0.242 C 
ENDROOT
BRANCH   3   7
ATOM      7  N   UNL     1      33.859 -19.283 -21.143  0.00  0.00    -0.171 NA
ATOM      8  H   UNL     1      34.348 -20.111 -21.482  0.00  0.00    +0.149 HD
BRANCH   7   9
ATOM      9  S   UNL     1      34.948 -17.964 -21.263  0.00  0.00    +0.066 S 
ATOM     10  O   UNL     1      36.158 -18.404 -21.929  0.00  0.00    -0.152 OA
ATOM     11  O   UNL     1      34.997 -17.271 -19.991  0.00  0.00    -0.152 OA
BRANCH   9  14
ATOM     12  S   UNL     1      33.975 -15.242 -21.664  0.00  0.00    -0.066 S 
ATOM     13  N   UNL     1      32.758 -15.376 -25.357  0.00  0.00    -0.243 NA
ATOM     14  C   UNL     1      34.203 -16.765 -22.368  0.00  0.00    +0.153 C 
ATOM     15  C   UNL     1      33.792 -16.851 -23.654  0.00  0.00    +0.046 C 
ATOM     16  C   UNL     1      33.255 -15.610 -24.111  0.00  0.00    +0.089 C 
ATOM     17  C   UNL     1      33.291 -14.630 -23.118  0.00  0.00    +0.048 C 
ATOM     18  C   UNL     1      32.804 -13.342 -23.384  0.00  0.00    +0.010 C 
ATOM     19  C   UNL     1      32.297 -13.097 -24.654  0.00  0.00    +0.021 C 
ATOM     20  C   UNL     1      32.299 -14.127 -25.577  0.00  0.00    +0.099 C 
ENDBRANCH   9  14
ENDBRANCH   7   9
ENDBRANCH   3   7
BRANCH   2  21
ATOM     21  C   UNL     1      33.522 -22.777 -17.844  0.00  0.00    +0.135 C 
BRANCH  21  24
ATOM     22  N   UNL     1      33.200 -23.180 -15.418  0.00  0.00    -0.313 N 
ATOM     23  N   UNL     1      31.131 -23.377 -12.368  0.00  0.00    -0.241 NA
ATOM     24  C   UNL     1      32.658 -22.850 -16.616  0.00  0.00    +0.046 C 
ATOM     25  C   UNL     1      31.326 -22.629 -16.476  0.00  0.00    +0.013 C 
ATOM     26  C   UNL     1      31.017 -22.835 -15.101  0.00  0.00    +0.017 C 
ATOM     27  C   UNL     1      32.210 -23.178 -14.463  0.00  0.00    +0.068 C 
ATOM     28  C   UNL     1      29.844 -22.762 -14.338  0.00  0.00    +0.022 C 
ATOM     29  C   UNL     1      32.266 -23.449 -13.102  0.00  0.00    +0.113 C 
ATOM     30  C   UNL     1      29.975 -23.045 -12.985  0.00  0.00    +0.099 C 
ATOM     31  H   UNL     1      34.148 -23.389 -15.258  0.00  0.00    +0.152 HD
ENDBRANCH  21  24
ENDBRANCH   2  21
TORSDOF 5
ENDMDL
MODEL 3
REMARK VINA RESULT:     -10.9      1.028      1.344
REMARK  Name = 445481
REMARK  5 active torsions:
REMARK  status: ('A' for Active; 'I' for Inactive)
REMARK    1  A    between atoms: N_2  and  C_21
REMARK    2  A    between atoms: C_3  and  N_7
REMARK    3  A    between atoms: N_7  and  S_9
REMARK    4  A    between atoms: S_9  and  C_14
REMARK    5  A    between atoms: C_21  and  C_24
REMARK                            x       y       z     vdW  Elec       q    Type
REMARK                         _______ _______ _______ _____ _____    ______ ____
ROOT
ATOM      1  O   UNL     1      35.942 -20.074 -19.327  0.00  0.00    -0.273 OA
ATOM      2  N   UNL     1      34.468 -19.067 -20.860  0.00  0.00    -0.273 N 
ATOM      3  C   UNL     1      33.643 -20.826 -19.572  0.00  0.00    +0.153 C 
ATOM      4  C   UNL     1      32.480 -20.017 -20.136  0.00  0.00    +0.048 C 
ATOM      5  C   UNL     1      33.103 -19.256 -21.290  0.00  0.00    +0.096 C 
ATOM      6  C   UNL     1      34.847 -19.963 -19.860  0.00  0.00    +0.242 C 
ENDROOT
BRANCH   3   7
ATOM      7  N   UNL     1      33.508 -21.007 -18.123  0.00  0.00    -0.171 NA
ATOM      8  H   UNL     1      34.450 -21.043 -17.733  0.00  0.00    +0.149 HD
BRANCH   7   9
ATOM      9  S   UNL     1      32.670 -22.391 -17.556  0.00  0.00    +0.066 S 
ATOM     10  O   UNL     1      33.024 -23.533 -18.377  0.00  0.00    -0.152 OA
ATOM     11  O   UNL     1      31.284 -22.040 -17.311  0.00  0.00    -0.152 OA
BRANCH   9  14
ATOM     12  S   UNL     1      32.130 -23.333 -14.847  0.00  0.00    -0.066 S 
ATOM     13  N   UNL     1      35.654 -23.103 -13.217  0.00  0.00    -0.243 NA
ATOM     14  C   UNL     1      33.307 -22.761 -15.922  0.00  0.00    +0.153 C 
ATOM     15  C   UNL     1      34.547 -22.667 -15.391  0.00  0.00    +0.046 C 
ATOM     16  C   UNL     1      34.560 -23.082 -14.025  0.00  0.00    +0.089 C 
ATOM     17  C   UNL     1      33.293 -23.477 -13.590  0.00  0.00    +0.048 C 
ATOM     18  C   UNL     1      33.110 -23.919 -12.272  0.00  0.00    +0.010 C 
ATOM     19  C   UNL     1      34.225 -23.942 -11.442  0.00  0.00    +0.021 C 
ATOM     20  C   UNL     1      35.441 -23.534 -11.956  0.00  0.00    +0.099 C 
ENDBRANCH   9  14
ENDBRANCH   7   9
ENDBRANCH   3   7
BRANCH   2  21
ATOM     21  C   UNL     1      35.346 -18.122 -21.515  0.00  0.00    +0.135 C 
BRANCH  21  24
ATOM     22  N   UNL     1      34.315 -16.502 -23.085  0.00  0.00    -0.313 N 
ATOM     23  N   UNL     1      32.527 -13.370 -23.869  0.00  0.00    -0.241 NA
ATOM     24  C   UNL     1      34.616 -16.840 -21.808  0.00  0.00    +0.046 C 
ATOM     25  C   UNL     1      34.168 -15.881 -20.958  0.00  0.00    +0.013 C 
ATOM     26  C   UNL     1      33.548 -14.880 -21.758  0.00  0.00    +0.017 C 
ATOM     27  C   UNL     1      33.654 -15.296 -23.086  0.00  0.00    +0.068 C 
ATOM     28  C   UNL     1      32.906 -13.664 -21.484  0.00  0.00    +0.022 C 
ATOM     29  C   UNL     1      33.146 -14.543 -24.137  0.00  0.00    +0.113 C 
ATOM     30  C   UNL     1      32.424 -12.965 -22.583  0.00  0.00    +0.099 C 
ATOM     31  H   UNL     1      34.536 -17.034 -23.884  0.00  0.00    +0.152 HD
ENDBRANCH  21  24
ENDBRANCH   2  21
TORSDOF 5
ENDMDL
MODEL 4
REMARK VINA RESULT:     -10.8      1.257      1.780
REMARK  Name = 445481
REMARK  5 active torsions:
REMARK  status: ('A' for Active; 'I' for Inactive)
REMARK    1  A    between atoms: N_2  and  C_21
REMARK    2  A    between atoms: C_3  and  N_7
REMARK    3  A    between atoms: N_7  and  S_9
REMARK    4  A    between atoms: S_9  and  C_14
REMARK    5  A    between atoms: C_21  and  C_24
REMARK                            x       y       z     vdW  Elec       q    Type
REMARK                         _______ _______ _______ _____ _____    ______ ____
ROOT
ATOM      1  O   UNL     1      35.053 -21.315 -18.052  0.00  0.00    -0.273 OA
ATOM      2  N   UNL     1      34.073 -20.054 -19.780  0.00  0.00    -0.273 N 
ATOM      3  C   UNL     1      32.691 -21.507 -18.593  0.00  0.00    +0.153 C 
ATOM      4  C   UNL     1      31.839 -20.470 -19.317  0.00  0.00    +0.048 C 
ATOM      5  C   UNL     1      32.769 -19.931 -20.387  0.00  0.00    +0.096 C 
ATOM      6  C   UNL     1      34.094 -20.970 -18.728  0.00  0.00    +0.242 C 
ENDROOT
BRANCH   3   7
ATOM      7  N   UNL     1      32.334 -21.586 -17.172  0.00  0.00    -0.171 NA
ATOM      8  H   UNL     1      33.056 -21.089 -16.650  0.00  0.00    +0.149 HD
BRANCH   7   9
ATOM      9  S   UNL     1      32.173 -23.140 -16.465  0.00  0.00    +0.066 S 
ATOM     10  O   UNL     1      32.651 -24.141 -17.398  0.00  0.00    -0.152 OA
ATOM     11  O   UNL     1      30.865 -23.248 -15.848  0.00  0.00    -0.152 OA
BRANCH   9  14
ATOM     12  S   UNL     1      32.617 -23.865 -13.673  0.00  0.00    -0.066 S 
ATOM     13  N   UNL     1      36.326 -22.810 -13.165  0.00  0.00    -0.243 NA
ATOM     14  C   UNL     1      33.301 -23.205 -15.074  0.00  0.00    +0.153 C 
ATOM     15  C   UNL     1      34.592 -22.825 -14.937  0.00  0.00    +0.046 C 
ATOM     16  C   UNL     1      35.071 -23.080 -13.616  0.00  0.00    +0.089 C 
ATOM     17  C   UNL     1      34.087 -23.653 -12.808  0.00  0.00    +0.048 C 
ATOM     18  C   UNL     1      34.374 -23.976 -11.474  0.00  0.00    +0.010 C 
ATOM     19  C   UNL     1      35.654 -23.702 -11.009  0.00  0.00    +0.021 C 
ATOM     20  C   UNL     1      36.566 -23.133 -11.878  0.00  0.00    +0.099 C 
ENDBRANCH   9  14
ENDBRANCH   7   9
ENDBRANCH   3   7
BRANCH   2  21
ATOM     21  C   UNL     1      35.229 -19.376 -20.324  0.00  0.00    +0.135 C 
BRANCH  21  24
ATOM     22  N   UNL     1      34.461 -17.022 -20.471  0.00  0.00    -0.313 N 
ATOM     23  N   UNL     1      33.420 -14.017 -22.345  0.00  0.00    -0.241 NA
ATOM     24  C   UNL     1      34.809 -18.165 -21.111  0.00  0.00    +0.046 C 
ATOM     25  C   UNL     1      34.705 -17.993 -22.453  0.00  0.00    +0.013 C 
ATOM     26  C   UNL     1      34.264 -16.657 -22.664  0.00  0.00    +0.017 C 
ATOM     27  C   UNL     1      34.120 -16.072 -21.405  0.00  0.00    +0.068 C 
ATOM     28  C   UNL     1      33.974 -15.887 -23.799  0.00  0.00    +0.022 C 
ATOM     29  C   UNL     1      33.700 -14.758 -21.246  0.00  0.00    +0.113 C 
ATOM     30  C   UNL     1      33.559 -14.583 -23.565  0.00  0.00    +0.099 C 
ATOM     31  H   UNL     1      34.453 -16.893 -19.495  0.00  0.00    +0.152 HD
ENDBRANCH  21  24
ENDBRANCH   2  21
TORSDOF 5
ENDMDL
MODEL 5
REMARK VINA RESULT:     -10.8      2.714     10.408
REMARK  Name = 445481
REMARK  5 active torsions:
REMARK  status: ('A' for Active; 'I' for Inactive)
REMARK    1  A    between atoms: N_2  and  C_21
REMARK    2  A    between atoms: C_3  and  N_7
REMARK    3  A    between atoms: N_7  and  S_9
REMARK    4  A    between atoms: S_9  and  C_14
REMARK    5  A    between atoms: C_21  and  C_24
REMARK                            x       y       z     vdW  Elec       q    Type
REMARK                         _______ _______ _______ _____ _____    ______ ____
ROOT
ATOM      1  O   UNL     1      31.569 -20.250 -19.509  0.00  0.00    -0.273 OA
ATOM      2  N   UNL     1      32.992 -21.595 -18.205  0.00  0.00    -0.273 N 
ATOM      3  C   UNL     1      33.948 -20.418 -19.975  0.00  0.00    +0.153 C 
ATOM      4  C   UNL     1      35.038 -20.836 -18.993  0.00  0.00    +0.048 C 
ATOM      5  C   UNL     1      34.391 -21.955 -18.200  0.00  0.00    +0.096 C 
ATOM      6  C   UNL     1      32.669 -20.703 -19.228  0.00  0.00    +0.242 C 
ENDROOT
BRANCH   3   7
ATOM      7  N   UNL     1      34.030 -18.984 -20.275  0.00  0.00    -0.171 NA
ATOM      8  H   UNL     1      33.074 -18.631 -20.328  0.00  0.00    +0.149 HD
BRANCH   7   9
ATOM      9  S   UNL     1      34.830 -18.504 -21.713  0.00  0.00    +0.066 S 
ATOM     10  O   UNL     1      34.392 -19.348 -22.808  0.00  0.00    -0.152 OA
ATOM     11  O   UNL     1      36.238 -18.307 -21.431  0.00  0.00    -0.152 OA
BRANCH   9  14
ATOM     12  S   UNL     1      33.757 -16.685 -23.728  0.00  0.00    -0.066 S 
ATOM     13  N   UNL     1      33.367 -13.394 -21.691  0.00  0.00    -0.243 NA
ATOM     14  C   UNL     1      34.246 -16.858 -22.116  0.00  0.00    +0.153 C 
ATOM     15  C   UNL     1      34.125 -15.733 -21.374  0.00  0.00    +0.046 C 
ATOM     16  C   UNL     1      33.603 -14.653 -22.150  0.00  0.00    +0.089 C 
ATOM     17  C   UNL     1      33.354 -15.034 -23.469  0.00  0.00    +0.048 C 
ATOM     18  C   UNL     1      32.837 -14.104 -24.382  0.00  0.00    +0.010 C 
ATOM     19  C   UNL     1      32.593 -12.817 -23.919  0.00  0.00    +0.021 C 
ATOM     20  C   UNL     1      32.871 -12.527 -22.596  0.00  0.00    +0.099 C 
ENDBRANCH   9  14
ENDBRANCH   7   9
ENDBRANCH   3   7
BRANCH   2  21
ATOM     21  C   UNL     1      32.046 -22.218 -17.306  0.00  0.00    +0.135 C 
BRANCH  21  24
ATOM     22  N   UNL     1      31.988 -23.116 -14.995  0.00  0.00    -0.313 N 
ATOM     23  N   UNL     1      33.571 -24.051 -11.794  0.00  0.00    -0.241 NA
ATOM     24  C   UNL     1      32.714 -22.591 -16.012  0.00  0.00    +0.046 C 
ATOM     25  C   UNL     1      34.018 -22.489 -15.645  0.00  0.00    +0.013 C 
ATOM     26  C   UNL     1      34.110 -22.983 -14.313  0.00  0.00    +0.017 C 
ATOM     27  C   UNL     1      32.824 -23.369 -13.932  0.00  0.00    +0.068 C 
ATOM     28  C   UNL     1      35.158 -23.140 -13.396  0.00  0.00    +0.022 C 
ATOM     29  C   UNL     1      32.556 -23.900 -12.677  0.00  0.00    +0.113 C 
ATOM     30  C   UNL     1      34.817 -23.677 -12.162  0.00  0.00    +0.099 C 
ATOM     31  H   UNL     1      31.020 -23.287 -15.014  0.00  0.00    +0.152 HD
ENDBRANCH  21  24
ENDBRANCH   2  21
TORSDOF 5
ENDMDL
MODEL 6
REMARK VINA RESULT:     -10.5      2.213      2.677
REMARK  Name = 445481
REMARK  5 active torsions:
REMARK  status: ('A' for Active; 'I' for Inactive)
REMARK    1  A    between atoms: N_2  and  C_21
REMARK    2  A    between atoms: C_3  and  N_7
REMARK    3  A    between atoms: N_7  and  S_9
REMARK    4  A    between atoms: S_9  and  C_14
REMARK    5  A    between atoms: C_21  and  C_24
REMARK                            x       y       z     vdW  Elec       q    Type
REMARK                         _______ _______ _______ _____ _____    ______ ____
ROOT
ATOM      1  O   UNL     1      35.886 -19.381 -19.506  0.00  0.00    -0.273 OA
ATOM      2  N   UNL     1      34.474 -18.571 -21.206  0.00  0.00    -0.273 N 
ATOM      3  C   UNL     1      33.755 -20.436 -20.008  0.00  0.00    +0.153 C 
ATOM      4  C   UNL     1      32.564 -19.789 -20.707  0.00  0.00    +0.048 C 
ATOM      5  C   UNL     1      33.206 -18.941 -21.788  0.00  0.00    +0.096 C 
ATOM      6  C   UNL     1      34.855 -19.416 -20.162  0.00  0.00    +0.242 C 
ENDROOT
BRANCH   3   7
ATOM      7  N   UNL     1      33.480 -20.645 -18.582  0.00  0.00    -0.171 NA
ATOM      8  H   UNL     1      34.024 -19.955 -18.064  0.00  0.00    +0.149 HD
BRANCH   7   9
ATOM      9  S   UNL     1      33.834 -22.181 -17.907  0.00  0.00    +0.066 S 
ATOM     10  O   UNL     1      35.106 -22.117 -17.215  0.00  0.00    -0.152 OA
ATOM     11  O   UNL     1      33.566 -23.208 -18.896  0.00  0.00    -0.152 OA
BRANCH   9  14
ATOM     12  S   UNL     1      33.277 -23.004 -15.163  0.00  0.00    -0.066 S 
ATOM     13  N   UNL     1      29.396 -22.761 -15.042  0.00  0.00    -0.243 NA
ATOM     14  C   UNL     1      32.611 -22.493 -16.634  0.00  0.00    +0.153 C 
ATOM     15  C   UNL     1      31.262 -22.396 -16.631  0.00  0.00    +0.046 C 
ATOM     16  C   UNL     1      30.719 -22.756 -15.361  0.00  0.00    +0.089 C 
ATOM     17  C   UNL     1      31.716 -23.115 -14.452  0.00  0.00    +0.048 C 
ATOM     18  C   UNL     1      31.371 -23.500 -13.148  0.00  0.00    +0.010 C 
ATOM     19  C   UNL     1      30.022 -23.506 -12.817  0.00  0.00    +0.021 C 
ATOM     20  C   UNL     1      29.102 -23.137 -13.780  0.00  0.00    +0.099 C 
ENDBRANCH   9  14
ENDBRANCH   7   9
ENDBRANCH   3   7
BRANCH   2  21
ATOM     21  C   UNL     1      35.284 -17.511 -21.763  0.00  0.00    +0.135 C 
BRANCH  21  24
ATOM     22  N   UNL     1      34.431 -15.482 -22.906  0.00  0.00    -0.313 N 
ATOM     23  N   UNL     1      32.579 -12.290 -22.985  0.00  0.00    -0.241 NA
ATOM     24  C   UNL     1      34.524 -16.213 -21.769  0.00  0.00    +0.046 C 
ATOM     25  C   UNL     1      33.860 -15.590 -20.763  0.00  0.00    +0.013 C 
ATOM     26  C   UNL     1      33.318 -14.392 -21.307  0.00  0.00    +0.017 C 
ATOM     27  C   UNL     1      33.691 -14.350 -22.652  0.00  0.00    +0.068 C 
ATOM     28  C   UNL     1      32.547 -13.341 -20.791  0.00  0.00    +0.022 C 
ATOM     29  C   UNL     1      33.323 -13.303 -23.487  0.00  0.00    +0.113 C 
ATOM     30  C   UNL     1      32.217 -12.328 -21.683  0.00  0.00    +0.099 C 
ATOM     31  H   UNL     1      34.830 -15.721 -23.774  0.00  0.00    +0.152 HD
ENDBRANCH  21  24
ENDBRANCH   2  21
TORSDOF 5
ENDMDL
MODEL 7
REMARK VINA RESULT:     -10.1      2.820     10.393
REMARK  Name = 445481
REMARK  5 active torsions:
REMARK  status: ('A' for Active; 'I' for Inactive)
REMARK    1  A    between atoms: N_2  and  C_21
REMARK    2  A    between atoms: C_3  and  N_7
REMARK    3  A    between atoms: N_7  and  S_9
REMARK    4  A    between atoms: S_9  and  C_14
REMARK    5  A    between atoms: C_21  and  C_24
REMARK                            x       y       z     vdW  Elec       q    Type
REMARK                         _______ _______ _______ _____ _____    ______ ____
ROOT
ATOM      1  O   UNL     1      31.445 -20.612 -19.609  0.00  0.00    -0.273 OA
ATOM      2  N   UNL     1      33.161 -21.608 -18.346  0.00  0.00    -0.273 N 
ATOM      3  C   UNL     1      33.787 -20.338 -20.197  0.00  0.00    +0.153 C 
ATOM      4  C   UNL     1      34.981 -20.502 -19.263  0.00  0.00    +0.048 C 
ATOM      5  C   UNL     1      34.602 -21.693 -18.406  0.00  0.00    +0.096 C 
ATOM      6  C   UNL     1      32.624 -20.834 -19.375  0.00  0.00    +0.242 C 
ENDROOT
BRANCH   3   7
ATOM      7  N   UNL     1      33.575 -18.928 -20.541  0.00  0.00    -0.171 NA
ATOM      8  H   UNL     1      32.796 -18.891 -21.200  0.00  0.00    +0.149 HD
BRANCH   7   9
ATOM      9  S   UNL     1      34.878 -18.063 -21.244  0.00  0.00    +0.066 S 
ATOM     10  O   UNL     1      35.633 -18.953 -22.103  0.00  0.00    -0.152 OA
ATOM     11  O   UNL     1      35.530 -17.270 -20.219  0.00  0.00    -0.152 OA
BRANCH   9  14
ATOM     12  S   UNL     1      33.964 -15.316 -21.615  0.00  0.00    -0.066 S 
ATOM     13  N   UNL     1      32.768 -15.376 -25.316  0.00  0.00    -0.243 NA
ATOM     14  C   UNL     1      34.165 -16.834 -22.338  0.00  0.00    +0.153 C 
ATOM     15  C   UNL     1      33.761 -16.894 -23.627  0.00  0.00    +0.046 C 
ATOM     16  C   UNL     1      33.252 -15.636 -24.071  0.00  0.00    +0.089 C 
ATOM     17  C   UNL     1      33.302 -14.671 -23.064  0.00  0.00    +0.048 C 
ATOM     18  C   UNL     1      32.844 -13.369 -23.316  0.00  0.00    +0.010 C 
ATOM     19  C   UNL     1      32.350 -13.098 -24.586  0.00  0.00    +0.021 C 
ATOM     20  C   UNL     1      32.337 -14.115 -25.522  0.00  0.00    +0.099 C 
ENDBRANCH   9  14
ENDBRANCH   7   9
ENDBRANCH   3   7
BRANCH   2  21
ATOM     21  C   UNL     1      32.397 -22.366 -17.380  0.00  0.00    +0.135 C 
BRANCH  21  24
ATOM     22  N   UNL     1      34.531 -22.307 -16.119  0.00  0.00    -0.313 N 
ATOM     23  N   UNL     1      36.588 -22.906 -13.112  0.00  0.00    -0.241 NA
ATOM     24  C   UNL     1      33.213 -22.620 -16.143  0.00  0.00    +0.046 C 
ATOM     25  C   UNL     1      32.841 -23.149 -14.949  0.00  0.00    +0.013 C 
ATOM     26  C   UNL     1      34.003 -23.167 -14.127  0.00  0.00    +0.017 C 
ATOM     27  C   UNL     1      35.046 -22.633 -14.886  0.00  0.00    +0.068 C 
ATOM     28  C   UNL     1      34.270 -23.582 -12.816  0.00  0.00    +0.022 C 
ATOM     29  C   UNL     1      36.334 -22.504 -14.380  0.00  0.00    +0.113 C 
ATOM     30  C   UNL     1      35.578 -23.423 -12.377  0.00  0.00    +0.099 C 
ATOM     31  H   UNL     1      35.039 -21.912 -16.863  0.00  0.00    +0.152 HD
ENDBRANCH  21  24
ENDBRANCH   2  21
TORSDOF 5
ENDMDL
MODEL 8
REMARK VINA RESULT:      -9.7      3.787      6.515
REMARK  Name = 445481
REMARK  5 active torsions:
REMARK  status: ('A' for Active; 'I' for Inactive)
REMARK    1  A    between atoms: N_2  and  C_21
REMARK    2  A    between atoms: C_3  and  N_7
REMARK    3  A    between atoms: N_7  and  S_9
REMARK    4  A    between atoms: S_9  and  C_14
REMARK    5  A    between atoms: C_21  and  C_24
REMARK                            x       y       z     vdW  Elec       q    Type
REMARK                         _______ _______ _______ _____ _____    ______ ____
ROOT
ATOM      1  O   UNL     1      33.608 -14.019 -20.177  0.00  0.00    -0.273 OA
ATOM      2  N   UNL     1      32.561 -13.870 -22.279  0.00  0.00    -0.273 N 
ATOM      3  C   UNL     1      34.230 -15.475 -22.021  0.00  0.00    +0.153 C 
ATOM      4  C   UNL     1      33.371 -15.822 -23.232  0.00  0.00    +0.048 C 
ATOM      5  C   UNL     1      32.681 -14.513 -23.565  0.00  0.00    +0.096 C 
ATOM      6  C   UNL     1      33.449 -14.383 -21.333  0.00  0.00    +0.242 C 
ENDROOT
BRANCH   3   7
ATOM      7  N   UNL     1      34.361 -16.625 -21.119  0.00  0.00    -0.171 NA
ATOM      8  H   UNL     1      35.203 -16.478 -20.561  0.00  0.00    +0.149 HD
BRANCH   7   9
ATOM      9  S   UNL     1      34.478 -18.188 -21.814  0.00  0.00    +0.066 S 
ATOM     10  O   UNL     1      35.869 -18.482 -22.096  0.00  0.00    -0.152 OA
ATOM     11  O   UNL     1      33.455 -18.332 -22.833  0.00  0.00    -0.152 OA
BRANCH   9  14
ATOM     12  S   UNL     1      35.288 -20.023 -19.695  0.00  0.00    -0.066 S 
ATOM     13  N   UNL     1      31.855 -21.401 -18.491  0.00  0.00    -0.243 NA
ATOM     14  C   UNL     1      33.986 -19.363 -20.553  0.00  0.00    +0.153 C 
ATOM     15  C   UNL     1      32.774 -19.818 -20.163  0.00  0.00    +0.046 C 
ATOM     16  C   UNL     1      32.892 -20.764 -19.100  0.00  0.00    +0.089 C 
ATOM     17  C   UNL     1      34.224 -20.976 -18.738  0.00  0.00    +0.048 C 
ATOM     18  C   UNL     1      34.537 -21.875 -17.708  0.00  0.00    +0.010 C 
ATOM     19  C   UNL     1      33.482 -22.528 -17.083  0.00  0.00    +0.021 C 
ATOM     20  C   UNL     1      32.194 -22.258 -17.506  0.00  0.00    +0.099 C 
ENDBRANCH   9  14
ENDBRANCH   7   9
ENDBRANCH   3   7
BRANCH   2  21
ATOM     21  C   UNL     1      31.688 -12.733 -22.078  0.00  0.00    +0.135 C 
BRANCH  21  24
ATOM     22  N   UNL     1      31.875 -10.264 -22.226  0.00  0.00    -0.313 N 
ATOM     23  N   UNL     1      33.380  -7.156 -23.529  0.00  0.00    -0.241 NA
ATOM     24  C   UNL     1      32.318 -11.482 -22.624  0.00  0.00    +0.046 C 
ATOM     25  C   UNL     1      33.332 -11.336 -23.515  0.00  0.00    +0.013 C 
ATOM     26  C   UNL     1      33.534  -9.937 -23.683  0.00  0.00    +0.017 C 
ATOM     27  C   UNL     1      32.607  -9.290 -22.864  0.00  0.00    +0.068 C 
ATOM     28  C   UNL     1      34.411  -9.157 -24.450  0.00  0.00    +0.022 C 
ATOM     29  C   UNL     1      32.531  -7.905 -22.787  0.00  0.00    +0.113 C 
ATOM     30  C   UNL     1      34.277  -7.781 -24.324  0.00  0.00    +0.099 C 
ATOM     31  H   UNL     1      31.145 -10.104 -21.585  0.00  0.00    +0.152 HD
ENDBRANCH  21  24
ENDBRANCH   2  21
TORSDOF 5
ENDMDL
MODEL 9
REMARK VINA RESULT:      -9.7      6.052     12.073
REMARK  Name = 445481
REMARK  5 active torsions:
REMARK  status: ('A' for Active; 'I' for Inactive)
REMARK    1  A    between atoms: N_2  and  C_21
REMARK    2  A    between atoms: C_3  and  N_7
REMARK    3  A    between atoms: N_7  and  S_9
REMARK    4  A    between atoms: S_9  and  C_14
REMARK    5  A    between atoms: C_21  and  C_24
REMARK                            x       y       z     vdW  Elec       q    Type
REMARK                         _______ _______ _______ _____ _____    ______ ____
ROOT
ATOM      1  O   UNL     1      32.583 -13.872 -23.528  0.00  0.00    -0.273 OA
ATOM      2  N   UNL     1      33.553 -15.150 -21.808  0.00  0.00    -0.273 N 
ATOM      3  C   UNL     1      32.582 -13.115 -21.219  0.00  0.00    +0.153 C 
ATOM      4  C   UNL     1      32.727 -13.989 -19.978  0.00  0.00    +0.048 C 
ATOM      5  C   UNL     1      33.765 -15.017 -20.386  0.00  0.00    +0.096 C 
ATOM      6  C   UNL     1      32.872 -14.063 -22.356  0.00  0.00    +0.242 C 
ENDROOT
BRANCH   3   7
ATOM      7  N   UNL     1      31.214 -12.602 -21.347  0.00  0.00    -0.171 NA
ATOM      8  H   UNL     1      31.038 -12.455 -22.341  0.00  0.00    +0.149 HD
BRANCH   7   9
ATOM      9  S   UNL     1      30.819 -11.142 -20.539  0.00  0.00    +0.066 S 
ATOM     10  O   UNL     1      31.459 -11.128 -19.238  0.00  0.00    -0.152 OA
ATOM     11  O   UNL     1      29.398 -10.890 -20.682  0.00  0.00    -0.152 OA
BRANCH   9  14
ATOM     12  S   UNL     1      31.394  -8.288 -20.736  0.00  0.00    -0.066 S 
ATOM     13  N   UNL     1      33.395  -8.116 -24.068  0.00  0.00    -0.243 NA
ATOM     14  C   UNL     1      31.580  -9.807 -21.461  0.00  0.00    +0.153 C 
ATOM     15  C   UNL     1      32.272  -9.788 -22.623  0.00  0.00    +0.046 C 
ATOM     16  C   UNL     1      32.684  -8.463 -22.961  0.00  0.00    +0.089 C 
ATOM     17  C   UNL     1      32.268  -7.531 -22.008  0.00  0.00    +0.048 C 
ATOM     18  C   UNL     1      32.582  -6.174 -22.171  0.00  0.00    +0.010 C 
ATOM     19  C   UNL     1      33.309  -5.814 -23.299  0.00  0.00    +0.021 C 
ATOM     20  C   UNL     1      33.679  -6.803 -24.191  0.00  0.00    +0.099 C 
ENDBRANCH   9  14
ENDBRANCH   7   9
ENDBRANCH   3   7
BRANCH   2  21
ATOM     21  C   UNL     1      34.117 -16.251 -22.558  0.00  0.00    +0.135 C 
BRANCH  21  24
ATOM     22  N   UNL     1      33.338 -18.195 -21.229  0.00  0.00    -0.313 N 
ATOM     23  N   UNL     1      33.897 -21.097 -19.018  0.00  0.00    -0.241 NA
ATOM     24  C   UNL     1      34.370 -17.428 -21.658  0.00  0.00    +0.046 C 
ATOM     25  C   UNL     1      35.539 -17.902 -21.154  0.00  0.00    +0.013 C 
ATOM     26  C   UNL     1      35.214 -19.038 -20.360  0.00  0.00    +0.017 C 
ATOM     27  C   UNL     1      33.829 -19.198 -20.425  0.00  0.00    +0.068 C 
ATOM     28  C   UNL     1      35.960 -19.944 -19.594  0.00  0.00    +0.022 C 
ATOM     29  C   UNL     1      33.173 -20.223 -19.756  0.00  0.00    +0.113 C 
ATOM     30  C   UNL     1      35.238 -20.943 -18.953  0.00  0.00    +0.099 C 
ATOM     31  H   UNL     1      32.391 -18.056 -21.455  0.00  0.00    +0.152 HD
ENDBRANCH  21  24
ENDBRANCH   2  21
TORSDOF 5
ENDMDL
