MODEL 1
REMARK VINA RESULT:     -12.0      0.000      0.000
REMARK  Name = 3151
REMARK  5 active torsions:
REMARK  status: ('A' for Active; 'I' for Inactive)
REMARK    1  A    between atoms: N_1  and  C_20
REMARK    2  A    between atoms: C_2  and  N_10
REMARK    3  A    between atoms: C_20  and  C_21
REMARK    4  A    between atoms: C_21  and  C_22
REMARK    5  A    between atoms: C_22  and  N_24
REMARK                            x       y       z     vdW  Elec       q    Type
REMARK                         _______ _______ _______ _____ _____    ______ ____
ROOT
ATOM      1  N   UNL     1      33.261 -15.963 -23.511  0.00  0.00    +0.387 N 
ATOM      2  C   UNL     1      33.251 -13.047 -23.282  0.00  0.00    +0.086 C 
ATOM      3  C   UNL     1      33.793 -13.950 -22.174  0.00  0.00    -0.000 C 
ATOM      4  C   UNL     1      32.225 -13.803 -24.126  0.00  0.00    -0.000 C 
ATOM      5  C   UNL     1      34.307 -15.275 -22.740  0.00  0.00    -0.075 C 
ATOM      6  C   UNL     1      32.792 -15.133 -24.628  0.00  0.00    -0.075 C 
ATOM      7  H   UNL     1      32.471 -16.131 -22.889  0.00  0.00    -0.080 HD
ENDROOT
BRANCH   2  10
ATOM      8 CL   UNL     1      33.543  -6.131 -23.688  0.00  0.00    -0.082 Cl
ATOM      9  O   UNL     1      31.121 -12.683 -21.147  0.00  0.00    -0.247 OA
ATOM     10  N   UNL     1      32.683 -11.843 -22.730  0.00  0.00    -0.282 N 
ATOM     11  N   UNL     1      31.454 -10.372 -21.519  0.00  0.00    -0.305 N 
ATOM     12  C   UNL     1      33.049 -10.547 -23.119  0.00  0.00    +0.079 A 
ATOM     13  C   UNL     1      31.681 -11.762 -21.725  0.00  0.00    +0.328 A 
ATOM     14  C   UNL     1      32.290  -9.649 -22.371  0.00  0.00    +0.077 A 
ATOM     15  C   UNL     1      33.968 -10.113 -24.051  0.00  0.00    +0.020 C 
ATOM     16  C   UNL     1      32.409  -8.284 -22.513  0.00  0.00    +0.030 C 
ATOM     17  C   UNL     1      34.108  -8.731 -24.213  0.00  0.00    +0.013 C 
ATOM     18  C   UNL     1      33.337  -7.827 -23.453  0.00  0.00    +0.059 C 
ATOM     19  H   UNL     1      30.813  -9.984 -20.882  0.00  0.00    +0.170 HD
ENDBRANCH   2  10
BRANCH   1  20
ATOM     20  C   UNL     1      33.753 -17.251 -24.003  0.00  0.00    -0.075 C 
BRANCH  20  21
ATOM     21  C   UNL     1      33.696 -18.335 -22.923  0.00  0.00    +0.002 C 
BRANCH  21  22
ATOM     22  C   UNL     1      33.915 -17.822 -21.501  0.00  0.00    +0.108 C 
BRANCH  22  24
ATOM     23  O   UNL     1      36.818 -18.306 -20.829  0.00  0.00    -0.247 OA
ATOM     24  N   UNL     1      34.501 -18.814 -20.642  0.00  0.00    -0.280 N 
ATOM     25  N   UNL     1      36.000 -20.069 -19.482  0.00  0.00    -0.305 N 
ATOM     26  C   UNL     1      33.796 -19.792 -19.919  0.00  0.00    +0.079 A 
ATOM     27  C   UNL     1      35.894 -18.971 -20.381  0.00  0.00    +0.328 A 
ATOM     28  C   UNL     1      34.721 -20.557 -19.211  0.00  0.00    +0.076 A 
ATOM     29  C   UNL     1      32.442 -20.046 -19.844  0.00  0.00    +0.019 C 
ATOM     30  C   UNL     1      34.347 -21.604 -18.400  0.00  0.00    +0.019 C 
ATOM     31  C   UNL     1      32.037 -21.106 -19.025  0.00  0.00    +0.002 C 
ATOM     32  C   UNL     1      32.979 -21.876 -18.310  0.00  0.00    +0.002 C 
ATOM     33  H   UNL     1      36.840 -20.428 -19.112  0.00  0.00    +0.170 HD
ENDBRANCH  22  24
ENDBRANCH  21  22
ENDBRANCH  20  21
ENDBRANCH   1  20
TORSDOF 5
ENDMDL
MODEL 2
REMARK VINA RESULT:     -11.9      3.591      9.613
REMARK  Name = 3151
REMARK  5 active torsions:
REMARK  status: ('A' for Active; 'I' for Inactive)
REMARK    1  A    between atoms: N_1  and  C_20
REMARK    2  A    between atoms: C_2  and  N_10
REMARK    3  A    between atoms: C_20  and  C_21
REMARK    4  A    between atoms: C_21  and  C_22
REMARK    5  A    between atoms: C_22  and  N_24
REMARK                            x       y       z     vdW  Elec       q    Type
REMARK                         _______ _______ _______ _____ _____    ______ ____
ROOT
ATOM      1  N   UNL     1      33.906 -16.024 -23.635  0.00  0.00    +0.387 N 
ATOM      2  C   UNL     1      33.787 -18.028 -21.508  0.00  0.00    +0.086 C 
ATOM      3  C   UNL     1      34.255 -16.596 -21.253  0.00  0.00    -0.000 C 
ATOM      4  C   UNL     1      34.009 -18.405 -22.972  0.00  0.00    -0.000 C 
ATOM      5  C   UNL     1      33.625 -15.621 -22.250  0.00  0.00    -0.075 C 
ATOM      6  C   UNL     1      33.386 -17.370 -23.912  0.00  0.00    -0.075 C 
ATOM      7  H   UNL     1      34.917 -16.046 -23.758  0.00  0.00    -0.080 HD
ENDROOT
BRANCH   2  10
ATOM      8 CL   UNL     1      32.631 -23.172 -17.004  0.00  0.00    -0.082 Cl
ATOM      9  O   UNL     1      36.748 -18.394 -20.936  0.00  0.00    -0.247 OA
ATOM     10  N   UNL     1      34.458 -18.951 -20.627  0.00  0.00    -0.282 N 
ATOM     11  N   UNL     1      36.030 -20.103 -19.468  0.00  0.00    -0.305 N 
ATOM     12  C   UNL     1      33.803 -19.901 -19.832  0.00  0.00    +0.079 A 
ATOM     13  C   UNL     1      35.860 -19.056 -20.418  0.00  0.00    +0.328 A 
ATOM     14  C   UNL     1      34.775 -20.605 -19.122  0.00  0.00    +0.077 A 
ATOM     15  C   UNL     1      32.460 -20.185 -19.690  0.00  0.00    +0.020 C 
ATOM     16  C   UNL     1      34.459 -21.617 -18.244  0.00  0.00    +0.030 C 
ATOM     17  C   UNL     1      32.115 -21.209 -18.802  0.00  0.00    +0.013 C 
ATOM     18  C   UNL     1      33.104 -21.917 -18.088  0.00  0.00    +0.059 C 
ATOM     19  H   UNL     1      36.891 -20.420 -19.114  0.00  0.00    +0.170 HD
ENDBRANCH   2  10
BRANCH   1  20
ATOM     20  C   UNL     1      33.339 -15.055 -24.574  0.00  0.00    -0.075 C 
BRANCH  20  21
ATOM     21  C   UNL     1      32.632 -13.905 -23.851  0.00  0.00    +0.002 C 
BRANCH  21  22
ATOM     22  C   UNL     1      33.574 -12.906 -23.181  0.00  0.00    +0.108 C 
BRANCH  22  24
ATOM     23  O   UNL     1      33.774 -10.202 -24.508  0.00  0.00    -0.247 OA
ATOM     24  N   UNL     1      32.918 -11.672 -22.844  0.00  0.00    -0.280 N 
ATOM     25  N   UNL     1      32.241  -9.502 -22.849  0.00  0.00    -0.305 N 
ATOM     26  C   UNL     1      32.019 -11.486 -21.781  0.00  0.00    +0.079 A 
ATOM     27  C   UNL     1      33.074 -10.433 -23.532  0.00  0.00    +0.328 A 
ATOM     28  C   UNL     1      31.608 -10.155 -21.790  0.00  0.00    +0.076 A 
ATOM     29  C   UNL     1      31.551 -12.378 -20.838  0.00  0.00    +0.019 C 
ATOM     30  C   UNL     1      30.719  -9.649 -20.869  0.00  0.00    +0.019 C 
ATOM     31  C   UNL     1      30.647 -11.888 -19.890  0.00  0.00    +0.002 C 
ATOM     32  C   UNL     1      30.234 -10.539 -19.905  0.00  0.00    +0.002 C 
ATOM     33  H   UNL     1      32.130  -8.552 -23.085  0.00  0.00    +0.170 HD
ENDBRANCH  22  24
ENDBRANCH  21  22
ENDBRANCH  20  21
ENDBRANCH   1  20
TORSDOF 5
ENDMDL
MODEL 3
REMARK VINA RESULT:     -11.9      3.670      6.529
REMARK  Name = 3151
REMARK  5 active torsions:
REMARK  status: ('A' for Active; 'I' for Inactive)
REMARK    1  A    between atoms: N_1  and  C_20
REMARK    2  A    between atoms: C_2  and  N_10
REMARK    3  A    between atoms: C_20  and  C_21
REMARK    4  A    between atoms: C_21  and  C_22
REMARK    5  A    between atoms: C_22  and  N_24
REMARK                            x       y       z     vdW  Elec       q    Type
REMARK                         _______ _______ _______ _____ _____    ______ ____
ROOT
ATOM      1  N   UNL     1      34.733 -20.784 -19.512  0.00  0.00    +0.387 N 
ATOM      2  C   UNL     1      34.143 -18.236 -20.822  0.00  0.00    +0.086 C 
ATOM      3  C   UNL     1      33.111 -19.359 -20.721  0.00  0.00    -0.000 C 
ATOM      4  C   UNL     1      35.558 -18.811 -20.754  0.00  0.00    -0.000 C 
ATOM      5  C   UNL     1      33.368 -20.239 -19.496  0.00  0.00    -0.075 C 
ATOM      6  C   UNL     1      35.734 -19.708 -19.527  0.00  0.00    -0.075 C 
ATOM      7  H   UNL     1      34.845 -21.330 -20.365  0.00  0.00    -0.080 HD
ENDROOT
BRANCH   2  10
ATOM      8 CL   UNL     1      33.268 -11.768 -23.161  0.00  0.00    -0.082 Cl
ATOM      9  O   UNL     1      33.960 -19.148 -23.715  0.00  0.00    -0.247 OA
ATOM     10  N   UNL     1      33.951 -17.471 -22.029  0.00  0.00    -0.282 N 
ATOM     11  N   UNL     1      33.683 -16.848 -24.192  0.00  0.00    -0.305 N 
ATOM     12  C   UNL     1      33.807 -16.078 -22.065  0.00  0.00    +0.079 A 
ATOM     13  C   UNL     1      33.877 -17.982 -23.353  0.00  0.00    +0.328 A 
ATOM     14  C   UNL     1      33.642 -15.702 -23.397  0.00  0.00    +0.077 A 
ATOM     15  C   UNL     1      33.810 -15.146 -21.049  0.00  0.00    +0.020 C 
ATOM     16  C   UNL     1      33.474 -14.390 -23.779  0.00  0.00    +0.030 C 
ATOM     17  C   UNL     1      33.640 -13.806 -21.411  0.00  0.00    +0.013 C 
ATOM     18  C   UNL     1      33.474 -13.433 -22.761  0.00  0.00    +0.059 C 
ATOM     19  H   UNL     1      33.593 -16.870 -25.172  0.00  0.00    +0.170 HD
ENDBRANCH   2  10
BRANCH   1  20
ATOM     20  C   UNL     1      34.946 -21.663 -18.361  0.00  0.00    -0.075 C 
BRANCH  20  21
ATOM     21  C   UNL     1      33.755 -21.642 -17.398  0.00  0.00    +0.002 C 
BRANCH  21  22
ATOM     22  C   UNL     1      33.101 -23.004 -17.174  0.00  0.00    +0.108 C 
BRANCH  22  24
ATOM     23  O   UNL     1      34.981 -23.949 -15.010  0.00  0.00    -0.247 OA
ATOM     24  N   UNL     1      32.838 -23.268 -15.786  0.00  0.00    -0.280 N 
ATOM     25  N   UNL     1      33.087 -23.838 -13.600  0.00  0.00    -0.305 N 
ATOM     26  C   UNL     1      31.594 -23.128 -15.147  0.00  0.00    +0.079 A 
ATOM     27  C   UNL     1      33.794 -23.715 -14.829  0.00  0.00    +0.328 A 
ATOM     28  C   UNL     1      31.754 -23.479 -13.809  0.00  0.00    +0.076 A 
ATOM     29  C   UNL     1      30.372 -22.726 -15.646  0.00  0.00    +0.019 C 
ATOM     30  C   UNL     1      30.714 -23.447 -12.907  0.00  0.00    +0.019 C 
ATOM     31  C   UNL     1      29.299 -22.686 -14.749  0.00  0.00    +0.002 C 
ATOM     32  C   UNL     1      29.468 -23.042 -13.394  0.00  0.00    +0.002 C 
ATOM     33  H   UNL     1      33.473 -24.129 -12.742  0.00  0.00    +0.170 HD
ENDBRANCH  22  24
ENDBRANCH  21  22
ENDBRANCH  20  21
ENDBRANCH   1  20
TORSDOF 5
ENDMDL
MODEL 4
REMARK VINA RESULT:     -11.8      3.674     10.221
REMARK  Name = 3151
REMARK  5 active torsions:
REMARK  status: ('A' for Active; 'I' for Inactive)
REMARK    1  A    between atoms: N_1  and  C_20
REMARK    2  A    between atoms: C_2  and  N_10
REMARK    3  A    between atoms: C_20  and  C_21
REMARK    4  A    between atoms: C_21  and  C_22
REMARK    5  A    between atoms: C_22  and  N_24
REMARK                            x       y       z     vdW  Elec       q    Type
REMARK                         _______ _______ _______ _____ _____    ______ ____
ROOT
ATOM      1  N   UNL     1      34.059 -14.946 -23.157  0.00  0.00    +0.387 N 
ATOM      2  C   UNL     1      33.910 -17.400 -21.571  0.00  0.00    +0.086 C 
ATOM      3  C   UNL     1      34.096 -16.025 -20.930  0.00  0.00    -0.000 C 
ATOM      4  C   UNL     1      34.428 -17.387 -23.009  0.00  0.00    -0.000 C 
ATOM      5  C   UNL     1      33.493 -14.921 -21.800  0.00  0.00    -0.075 C 
ATOM      6  C   UNL     1      33.812 -16.239 -23.810  0.00  0.00    -0.075 C 
ATOM      7  H   UNL     1      35.067 -14.820 -23.080  0.00  0.00    -0.080 HD
ENDROOT
BRANCH   2  10
ATOM      8 CL   UNL     1      32.663 -22.958 -17.617  0.00  0.00    -0.082 Cl
ATOM      9  O   UNL     1      36.865 -17.878 -21.051  0.00  0.00    -0.247 OA
ATOM     10  N   UNL     1      34.565 -18.421 -20.792  0.00  0.00    -0.282 N 
ATOM     11  N   UNL     1      36.116 -19.716 -19.764  0.00  0.00    -0.305 N 
ATOM     12  C   UNL     1      33.893 -19.435 -20.097  0.00  0.00    +0.079 A 
ATOM     13  C   UNL     1      35.965 -18.573 -20.601  0.00  0.00    +0.328 A 
ATOM     14  C   UNL     1      34.852 -20.227 -19.467  0.00  0.00    +0.077 A 
ATOM     15  C   UNL     1      32.546 -19.706 -19.980  0.00  0.00    +0.020 C 
ATOM     16  C   UNL     1      34.519 -21.318 -18.697  0.00  0.00    +0.030 C 
ATOM     17  C   UNL     1      32.182 -20.810 -19.201  0.00  0.00    +0.013 C 
ATOM     18  C   UNL     1      33.158 -21.606 -18.567  0.00  0.00    +0.059 C 
ATOM     19  H   UNL     1      36.972 -20.084 -19.447  0.00  0.00    +0.170 HD
ENDBRANCH   2  10
BRANCH   1  20
ATOM     20  C   UNL     1      33.508 -13.854 -23.961  0.00  0.00    -0.075 C 
BRANCH  20  21
ATOM     21  C   UNL     1      33.432 -12.545 -23.170  0.00  0.00    +0.002 C 
BRANCH  21  22
ATOM     22  C   UNL     1      32.588 -11.456 -23.831  0.00  0.00    +0.108 C 
BRANCH  22  24
ATOM     23  O   UNL     1      34.944  -9.984 -25.012  0.00  0.00    -0.247 OA
ATOM     24  N   UNL     1      33.075 -10.134 -23.547  0.00  0.00    -0.280 N 
ATOM     25  N   UNL     1      34.304  -8.222 -23.571  0.00  0.00    -0.305 N 
ATOM     26  C   UNL     1      32.516  -9.236 -22.622  0.00  0.00    +0.079 A 
ATOM     27  C   UNL     1      34.205  -9.515 -24.158  0.00  0.00    +0.328 A 
ATOM     28  C   UNL     1      33.275  -8.068 -22.641  0.00  0.00    +0.076 A 
ATOM     29  C   UNL     1      31.423  -9.372 -21.791  0.00  0.00    +0.019 C 
ATOM     30  C   UNL     1      32.985  -6.985 -21.842  0.00  0.00    +0.019 C 
ATOM     31  C   UNL     1      31.108  -8.285 -20.969  0.00  0.00    +0.002 C 
ATOM     32  C   UNL     1      31.880  -7.104 -20.994  0.00  0.00    +0.002 C 
ATOM     33  H   UNL     1      34.989  -7.547 -23.785  0.00  0.00    +0.170 HD
ENDBRANCH  22  24
ENDBRANCH  21  22
ENDBRANCH  20  21
ENDBRANCH   1  20
TORSDOF 5
ENDMDL
MODEL 5
REMARK VINA RESULT:     -11.7      4.659     10.416
REMARK  Name = 3151
REMARK  5 active torsions:
REMARK  status: ('A' for Active; 'I' for Inactive)
REMARK    1  A    between atoms: N_1  and  C_20
REMARK    2  A    between atoms: C_2  and  N_10
REMARK    3  A    between atoms: C_20  and  C_21
REMARK    4  A    between atoms: C_21  and  C_22
REMARK    5  A    between atoms: C_22  and  N_24
REMARK                            x       y       z     vdW  Elec       q    Type
REMARK                         _______ _______ _______ _____ _____    ______ ____
ROOT
ATOM      1  N   UNL     1      34.911 -18.591 -20.636  0.00  0.00    +0.387 N 
ATOM      2  C   UNL     1      34.389 -21.046 -19.134  0.00  0.00    +0.086 C 
ATOM      3  C   UNL     1      33.265 -20.204 -19.736  0.00  0.00    -0.000 C 
ATOM      4  C   UNL     1      35.620 -20.177 -18.876  0.00  0.00    -0.000 C 
ATOM      5  C   UNL     1      33.748 -19.429 -20.963  0.00  0.00    -0.075 C 
ATOM      6  C   UNL     1      36.026 -19.404 -20.133  0.00  0.00    -0.075 C 
ATOM      7  H   UNL     1      34.636 -17.943 -19.899  0.00  0.00    -0.080 HD
ENDROOT
BRANCH   2  10
ATOM      8 CL   UNL     1      36.576 -23.093 -12.880  0.00  0.00    -0.082 Cl
ATOM      9  O   UNL     1      31.668 -22.172 -18.386  0.00  0.00    -0.247 OA
ATOM     10  N   UNL     1      33.951 -21.696 -17.924  0.00  0.00    -0.282 N 
ATOM     11  N   UNL     1      32.711 -22.744 -16.342  0.00  0.00    -0.305 N 
ATOM     12  C   UNL     1      34.772 -21.932 -16.813  0.00  0.00    +0.079 A 
ATOM     13  C   UNL     1      32.648 -22.197 -17.655  0.00  0.00    +0.328 A 
ATOM     14  C   UNL     1      34.004 -22.576 -15.845  0.00  0.00    +0.077 A 
ATOM     15  C   UNL     1      36.101 -21.632 -16.596  0.00  0.00    +0.020 C 
ATOM     16  C   UNL     1      34.517 -22.950 -14.624  0.00  0.00    +0.030 C 
ATOM     17  C   UNL     1      36.646 -22.003 -15.363  0.00  0.00    +0.013 C 
ATOM     18  C   UNL     1      35.862 -22.655 -14.388  0.00  0.00    +0.059 C 
ATOM     19  H   UNL     1      31.964 -23.170 -15.864  0.00  0.00    +0.170 HD
ENDBRANCH   2  10
BRANCH   1  20
ATOM     20  C   UNL     1      35.330 -17.819 -21.808  0.00  0.00    -0.075 C 
BRANCH  20  21
ATOM     21  C   UNL     1      34.133 -17.342 -22.635  0.00  0.00    +0.002 C 
BRANCH  21  22
ATOM     22  C   UNL     1      34.429 -16.150 -23.544  0.00  0.00    +0.108 C 
BRANCH  22  24
ATOM     23  O   UNL     1      32.699 -14.899 -25.678  0.00  0.00    -0.247 OA
ATOM     24  N   UNL     1      33.444 -15.110 -23.428  0.00  0.00    -0.280 N 
ATOM     25  N   UNL     1      31.836 -13.579 -23.916  0.00  0.00    -0.305 N 
ATOM     26  C   UNL     1      33.086 -14.450 -22.240  0.00  0.00    +0.079 A 
ATOM     27  C   UNL     1      32.668 -14.577 -24.498  0.00  0.00    +0.328 A 
ATOM     28  C   UNL     1      32.101 -13.513 -22.547  0.00  0.00    +0.076 A 
ATOM     29  C   UNL     1      33.551 -14.611 -20.951  0.00  0.00    +0.019 C 
ATOM     30  C   UNL     1      31.534 -12.698 -21.594  0.00  0.00    +0.019 C 
ATOM     31  C   UNL     1      32.991 -13.793 -19.965  0.00  0.00    +0.002 C 
ATOM     32  C   UNL     1      31.993 -12.847 -20.282  0.00  0.00    +0.002 C 
ATOM     33  H   UNL     1      31.181 -13.025 -24.399  0.00  0.00    +0.170 HD
ENDBRANCH  22  24
ENDBRANCH  21  22
ENDBRANCH  20  21
ENDBRANCH   1  20
TORSDOF 5
ENDMDL
MODEL 6
REMARK VINA RESULT:     -11.5      4.048      7.148
REMARK  Name = 3151
REMARK  5 active torsions:
REMARK  status: ('A' for Active; 'I' for Inactive)
REMARK    1  A    between atoms: N_1  and  C_20
REMARK    2  A    between atoms: C_2  and  N_10
REMARK    3  A    between atoms: C_20  and  C_21
REMARK    4  A    between atoms: C_21  and  C_22
REMARK    5  A    between atoms: C_22  and  N_24
REMARK                            x       y       z     vdW  Elec       q    Type
REMARK                         _______ _______ _______ _____ _____    ______ ____
ROOT
ATOM      1  N   UNL     1      34.406 -21.194 -19.070  0.00  0.00    +0.387 N 
ATOM      2  C   UNL     1      34.100 -18.647 -20.476  0.00  0.00    +0.086 C 
ATOM      3  C   UNL     1      32.965 -19.666 -20.379  0.00  0.00    -0.000 C 
ATOM      4  C   UNL     1      35.452 -19.347 -20.339  0.00  0.00    -0.000 C 
ATOM      5  C   UNL     1      33.097 -20.526 -19.120  0.00  0.00    -0.075 C 
ATOM      6  C   UNL     1      35.502 -20.216 -19.081  0.00  0.00    -0.075 C 
ATOM      7  H   UNL     1      34.494 -21.775 -19.902  0.00  0.00    -0.080 HD
ENDROOT
BRANCH   2  10
ATOM      8 CL   UNL     1      33.474 -12.228 -23.021  0.00  0.00    -0.082 Cl
ATOM      9  O   UNL     1      34.172 -19.621 -23.354  0.00  0.00    -0.247 OA
ATOM     10  N   UNL     1      34.021 -17.908 -21.711  0.00  0.00    -0.282 N 
ATOM     11  N   UNL     1      33.951 -17.331 -23.902  0.00  0.00    -0.305 N 
ATOM     12  C   UNL     1      33.888 -16.515 -21.790  0.00  0.00    +0.079 A 
ATOM     13  C   UNL     1      34.063 -18.447 -23.025  0.00  0.00    +0.328 A 
ATOM     14  C   UNL     1      33.846 -16.168 -23.139  0.00  0.00    +0.077 A 
ATOM     15  C   UNL     1      33.806 -15.561 -20.797  0.00  0.00    +0.020 C 
ATOM     16  C   UNL     1      33.720 -14.864 -23.562  0.00  0.00    +0.030 C 
ATOM     17  C   UNL     1      33.676 -14.229 -21.202  0.00  0.00    +0.013 C 
ATOM     18  C   UNL     1      33.634 -13.884 -22.569  0.00  0.00    +0.059 C 
ATOM     19  H   UNL     1      33.949 -17.373 -24.886  0.00  0.00    +0.170 HD
ENDBRANCH   2  10
BRANCH   1  20
ATOM     20  C   UNL     1      34.496 -22.050 -17.886  0.00  0.00    -0.075 C 
BRANCH  20  21
ATOM     21  C   UNL     1      35.689 -21.676 -17.001  0.00  0.00    +0.002 C 
BRANCH  21  22
ATOM     22  C   UNL     1      35.370 -21.606 -15.509  0.00  0.00    +0.108 C 
BRANCH  22  24
ATOM     23  O   UNL     1      32.758 -23.023 -14.973  0.00  0.00    -0.247 OA
ATOM     24  N   UNL     1      35.134 -22.902 -14.934  0.00  0.00    -0.280 N 
ATOM     25  N   UNL     1      34.114 -24.768 -14.133  0.00  0.00    -0.305 N 
ATOM     26  C   UNL     1      36.126 -23.795 -14.492  0.00  0.00    +0.079 A 
ATOM     27  C   UNL     1      33.857 -23.496 -14.716  0.00  0.00    +0.328 A 
ATOM     28  C   UNL     1      35.493 -24.936 -14.003  0.00  0.00    +0.076 A 
ATOM     29  C   UNL     1      37.501 -23.677 -14.492  0.00  0.00    +0.019 C 
ATOM     30  C   UNL     1      36.191 -26.007 -13.493  0.00  0.00    +0.019 C 
ATOM     31  C   UNL     1      38.232 -24.752 -13.978  0.00  0.00    +0.002 C 
ATOM     32  C   UNL     1      37.585 -25.905 -13.485  0.00  0.00    +0.002 C 
ATOM     33  H   UNL     1      33.429 -25.424 -13.863  0.00  0.00    +0.170 HD
ENDBRANCH  22  24
ENDBRANCH  21  22
ENDBRANCH  20  21
ENDBRANCH   1  20
TORSDOF 5
ENDMDL
MODEL 7
REMARK VINA RESULT:     -11.4      5.372     11.332
REMARK  Name = 3151
REMARK  5 active torsions:
REMARK  status: ('A' for Active; 'I' for Inactive)
REMARK    1  A    between atoms: N_1  and  C_20
REMARK    2  A    between atoms: C_2  and  N_10
REMARK    3  A    between atoms: C_20  and  C_21
REMARK    4  A    between atoms: C_21  and  C_22
REMARK    5  A    between atoms: C_22  and  N_24
REMARK                            x       y       z     vdW  Elec       q    Type
REMARK                         _______ _______ _______ _____ _____    ______ ____
ROOT
ATOM      1  N   UNL     1      34.095 -20.218 -19.292  0.00  0.00    +0.387 N 
ATOM      2  C   UNL     1      32.976 -22.258 -17.519  0.00  0.00    +0.086 C 
ATOM      3  C   UNL     1      32.103 -21.213 -18.213  0.00  0.00    -0.000 C 
ATOM      4  C   UNL     1      34.404 -21.734 -17.362  0.00  0.00    -0.000 C 
ATOM      5  C   UNL     1      32.740 -20.739 -19.520  0.00  0.00    -0.075 C 
ATOM      6  C   UNL     1      34.964 -21.243 -18.699  0.00  0.00    -0.075 C 
ATOM      7  H   UNL     1      34.028 -19.443 -18.633  0.00  0.00    -0.080 HD
ENDROOT
BRANCH   2  10
ATOM      8 CL   UNL     1      34.701 -24.548 -11.205  0.00  0.00    -0.082 Cl
ATOM      9  O   UNL     1      30.088 -22.279 -16.574  0.00  0.00    -0.247 OA
ATOM     10  N   UNL     1      32.417 -22.628 -16.243  0.00  0.00    -0.282 N 
ATOM     11  N   UNL     1      30.993 -23.055 -14.531  0.00  0.00    -0.305 N 
ATOM     12  C   UNL     1      33.172 -23.072 -15.149  0.00  0.00    +0.079 A 
ATOM     13  C   UNL     1      31.042 -22.607 -15.882  0.00  0.00    +0.328 A 
ATOM     14  C   UNL     1      32.291 -23.332 -14.101  0.00  0.00    +0.077 A 
ATOM     15  C   UNL     1      34.532 -23.257 -15.009  0.00  0.00    +0.020 C 
ATOM     16  C   UNL     1      32.717 -23.786 -12.873  0.00  0.00    +0.030 C 
ATOM     17  C   UNL     1      34.989 -23.719 -13.771  0.00  0.00    +0.013 C 
ATOM     18  C   UNL     1      34.092 -23.980 -12.715  0.00  0.00    +0.059 C 
ATOM     19  H   UNL     1      30.176 -23.152 -13.990  0.00  0.00    +0.170 HD
ENDBRANCH   2  10
BRANCH   1  20
ATOM     20  C   UNL     1      34.670 -19.723 -20.543  0.00  0.00    -0.075 C 
BRANCH  20  21
ATOM     21  C   UNL     1      33.902 -18.514 -21.086  0.00  0.00    +0.002 C 
BRANCH  21  22
ATOM     22  C   UNL     1      34.787 -17.407 -21.656  0.00  0.00    +0.108 C 
BRANCH  22  24
ATOM     23  O   UNL     1      33.947 -17.466 -24.554  0.00  0.00    -0.247 OA
ATOM     24  N   UNL     1      34.041 -16.438 -22.410  0.00  0.00    -0.280 N 
ATOM     25  N   UNL     1      32.960 -15.366 -24.098  0.00  0.00    -0.305 N 
ATOM     26  C   UNL     1      33.539 -15.223 -21.914  0.00  0.00    +0.079 A 
ATOM     27  C   UNL     1      33.687 -16.549 -23.787  0.00  0.00    +0.328 A 
ATOM     28  C   UNL     1      32.878 -14.572 -22.953  0.00  0.00    +0.076 A 
ATOM     29  C   UNL     1      33.621 -14.669 -20.653  0.00  0.00    +0.019 C 
ATOM     30  C   UNL     1      32.271 -13.347 -22.790  0.00  0.00    +0.019 C 
ATOM     31  C   UNL     1      33.012 -13.425 -20.462  0.00  0.00    +0.002 C 
ATOM     32  C   UNL     1      32.343 -12.771 -21.519  0.00  0.00    +0.002 C 
ATOM     33  H   UNL     1      32.576 -15.143 -24.978  0.00  0.00    +0.170 HD
ENDBRANCH  22  24
ENDBRANCH  21  22
ENDBRANCH  20  21
ENDBRANCH   1  20
TORSDOF 5
ENDMDL
MODEL 8
REMARK VINA RESULT:     -11.3      1.704      2.350
REMARK  Name = 3151
REMARK  5 active torsions:
REMARK  status: ('A' for Active; 'I' for Inactive)
REMARK    1  A    between atoms: N_1  and  C_20
REMARK    2  A    between atoms: C_2  and  N_10
REMARK    3  A    between atoms: C_20  and  C_21
REMARK    4  A    between atoms: C_21  and  C_22
REMARK    5  A    between atoms: C_22  and  N_24
REMARK                            x       y       z     vdW  Elec       q    Type
REMARK                         _______ _______ _______ _____ _____    ______ ____
ROOT
ATOM      1  N   UNL     1      33.756 -15.040 -23.498  0.00  0.00    +0.387 N 
ATOM      2  C   UNL     1      32.662 -12.365 -23.042  0.00  0.00    +0.086 C 
ATOM      3  C   UNL     1      32.738 -12.988 -24.436  0.00  0.00    -0.000 C 
ATOM      4  C   UNL     1      33.724 -12.980 -22.130  0.00  0.00    -0.000 C 
ATOM      5  C   UNL     1      32.689 -14.516 -24.363  0.00  0.00    -0.075 C 
ATOM      6  C   UNL     1      33.642 -14.507 -22.134  0.00  0.00    -0.075 C 
ATOM      7  H   UNL     1      34.650 -14.735 -23.881  0.00  0.00    -0.080 HD
ENDROOT
BRANCH   2  10
ATOM      8 CL   UNL     1      30.549  -6.467 -20.071  0.00  0.00    -0.082 Cl
ATOM      9  O   UNL     1      34.322 -10.649 -24.922  0.00  0.00    -0.247 OA
ATOM     10  N   UNL     1      32.806 -10.932 -23.113  0.00  0.00    -0.282 N 
ATOM     11  N   UNL     1      33.421  -8.832 -23.705  0.00  0.00    -0.305 N 
ATOM     12  C   UNL     1      32.153 -10.031 -22.261  0.00  0.00    +0.079 A 
ATOM     13  C   UNL     1      33.610 -10.205 -24.031  0.00  0.00    +0.328 A 
ATOM     14  C   UNL     1      32.535  -8.743 -22.631  0.00  0.00    +0.077 A 
ATOM     15  C   UNL     1      31.277 -10.252 -21.218  0.00  0.00    +0.020 C 
ATOM     16  C   UNL     1      32.068  -7.620 -21.986  0.00  0.00    +0.030 C 
ATOM     17  C   UNL     1      30.787  -9.126 -20.548  0.00  0.00    +0.013 C 
ATOM     18  C   UNL     1      31.178  -7.825 -20.928  0.00  0.00    +0.059 C 
ATOM     19  H   UNL     1      33.846  -8.071 -24.162  0.00  0.00    +0.170 HD
ENDBRANCH   2  10
BRANCH   1  20
ATOM     20  C   UNL     1      33.726 -16.503 -23.480  0.00  0.00    -0.075 C 
BRANCH  20  21
ATOM     21  C   UNL     1      34.166 -17.067 -22.126  0.00  0.00    +0.002 C 
BRANCH  21  22
ATOM     22  C   UNL     1      33.791 -18.530 -21.899  0.00  0.00    +0.108 C 
BRANCH  22  24
ATOM     23  O   UNL     1      36.736 -18.240 -21.301  0.00  0.00    -0.247 OA
ATOM     24  N   UNL     1      34.579 -19.147 -20.867  0.00  0.00    -0.280 N 
ATOM     25  N   UNL     1      36.317 -19.756 -19.535  0.00  0.00    -0.305 N 
ATOM     26  C   UNL     1      34.101 -20.044 -19.898  0.00  0.00    +0.079 A 
ATOM     27  C   UNL     1      35.975 -18.951 -20.658  0.00  0.00    +0.328 A 
ATOM     28  C   UNL     1      35.171 -20.414 -19.086  0.00  0.00    +0.076 A 
ATOM     29  C   UNL     1      32.831 -20.542 -19.688  0.00  0.00    +0.019 C 
ATOM     30  C   UNL     1      35.032 -21.289 -18.032  0.00  0.00    +0.019 C 
ATOM     31  C   UNL     1      32.664 -21.434 -18.623  0.00  0.00    +0.002 C 
ATOM     32  C   UNL     1      33.752 -21.803 -17.804  0.00  0.00    +0.002 C 
ATOM     33  H   UNL     1      37.216 -19.838 -19.140  0.00  0.00    +0.170 HD
ENDBRANCH  22  24
ENDBRANCH  21  22
ENDBRANCH  20  21
ENDBRANCH   1  20
TORSDOF 5
ENDMDL
MODEL 9
REMARK VINA RESULT:     -11.2      3.749      6.599
REMARK  Name = 3151
REMARK  5 active torsions:
REMARK  status: ('A' for Active; 'I' for Inactive)
REMARK    1  A    between atoms: N_1  and  C_20
REMARK    2  A    between atoms: C_2  and  N_10
REMARK    3  A    between atoms: C_20  and  C_21
REMARK    4  A    between atoms: C_21  and  C_22
REMARK    5  A    between atoms: C_22  and  N_24
REMARK                            x       y       z     vdW  Elec       q    Type
REMARK                         _______ _______ _______ _____ _____    ______ ____
ROOT
ATOM      1  N   UNL     1      34.838 -20.736 -19.548  0.00  0.00    +0.387 N 
ATOM      2  C   UNL     1      34.196 -18.178 -20.814  0.00  0.00    +0.086 C 
ATOM      3  C   UNL     1      33.195 -19.332 -20.753  0.00  0.00    -0.000 C 
ATOM      4  C   UNL     1      35.625 -18.713 -20.734  0.00  0.00    -0.000 C 
ATOM      5  C   UNL     1      33.458 -20.230 -19.544  0.00  0.00    -0.075 C 
ATOM      6  C   UNL     1      35.807 -19.632 -19.524  0.00  0.00    -0.075 C 
ATOM      7  H   UNL     1      34.979 -21.259 -20.411  0.00  0.00    -0.080 HD
ENDROOT
BRANCH   2  10
ATOM      8 CL   UNL     1      33.196 -11.684 -23.030  0.00  0.00    -0.082 Cl
ATOM      9  O   UNL     1      34.074 -19.032 -23.727  0.00  0.00    -0.247 OA
ATOM     10  N   UNL     1      34.001 -17.392 -22.007  0.00  0.00    -0.282 N 
ATOM     11  N   UNL     1      33.747 -16.730 -24.160  0.00  0.00    -0.305 N 
ATOM     12  C   UNL     1      33.824 -16.002 -22.016  0.00  0.00    +0.079 A 
ATOM     13  C   UNL     1      33.958 -17.877 -23.342  0.00  0.00    +0.328 A 
ATOM     14  C   UNL     1      33.668 -15.603 -23.342  0.00  0.00    +0.077 A 
ATOM     15  C   UNL     1      33.791 -15.092 -20.980  0.00  0.00    +0.020 C 
ATOM     16  C   UNL     1      33.474 -14.287 -23.699  0.00  0.00    +0.030 C 
ATOM     17  C   UNL     1      33.593 -13.749 -21.317  0.00  0.00    +0.013 C 
ATOM     18  C   UNL     1      33.437 -13.352 -22.662  0.00  0.00    +0.059 C 
ATOM     19  H   UNL     1      33.671 -16.733 -25.141  0.00  0.00    +0.170 HD
ENDBRANCH   2  10
BRANCH   1  20
ATOM     20  C   UNL     1      35.057 -21.633 -18.413  0.00  0.00    -0.075 C 
BRANCH  20  21
ATOM     21  C   UNL     1      33.927 -21.539 -17.383  0.00  0.00    +0.002 C 
BRANCH  21  22
ATOM     22  C   UNL     1      33.034 -22.776 -17.312  0.00  0.00    +0.108 C 
BRANCH  22  24
ATOM     23  O   UNL     1      30.163 -22.284 -16.521  0.00  0.00    -0.247 OA
ATOM     24  N   UNL     1      32.401 -22.926 -16.030  0.00  0.00    -0.280 N 
ATOM     25  N   UNL     1      30.858 -22.950 -14.362  0.00  0.00    -0.305 N 
ATOM     26  C   UNL     1      33.033 -23.349 -14.849  0.00  0.00    +0.079 A 
ATOM     27  C   UNL     1      31.028 -22.668 -15.746  0.00  0.00    +0.328 A 
ATOM     28  C   UNL     1      32.082 -23.362 -13.831  0.00  0.00    +0.076 A 
ATOM     29  C   UNL     1      34.343 -23.713 -14.616  0.00  0.00    +0.019 C 
ATOM     30  C   UNL     1      32.385 -23.734 -12.541  0.00  0.00    +0.019 C 
ATOM     31  C   UNL     1      34.676 -24.095 -13.312  0.00  0.00    +0.002 C 
ATOM     32  C   UNL     1      33.708 -24.106 -12.286  0.00  0.00    +0.002 C 
ATOM     33  H   UNL     1      30.015 -22.868 -13.859  0.00  0.00    +0.170 HD
ENDBRANCH  22  24
ENDBRANCH  21  22
ENDBRANCH  20  21
ENDBRANCH   1  20
TORSDOF 5
ENDMDL
