MODEL 1
REMARK VINA RESULT:     -12.4      0.000      0.000
REMARK  Name = 6102777
REMARK  2 active torsions:
REMARK  status: ('A' for Active; 'I' for Inactive)
REMARK    1  A    between atoms: C_4  and  S_16
REMARK    2  A    between atoms: S_16  and  N_19
REMARK                            x       y       z     vdW  Elec       q    Type
REMARK                         _______ _______ _______ _____ _____    ______ ____
ROOT
ATOM      1  O   UNL     1      32.878 -22.800 -15.777  0.00  0.00    -0.453 OA
ATOM      2  O   UNL     1      36.826 -21.723 -15.838  0.00  0.00    -0.286 OA
ATOM      3  C   UNL     1      35.043 -22.700 -14.650  0.00  0.00    +0.075 A 
ATOM      4  C   UNL     1      35.207 -23.601 -12.417  0.00  0.00    +0.126 C 
ATOM      5  C   UNL     1      33.691 -23.040 -14.696  0.00  0.00    +0.148 A 
ATOM      6  C   UNL     1      35.806 -22.979 -13.513  0.00  0.00    +0.026 C 
ATOM      7  C   UNL     1      34.760 -21.797 -16.967  0.00  0.00    +0.074 A 
ATOM      8  C   UNL     1      35.647 -22.045 -15.820  0.00  0.00    +0.201 A 
ATOM      9  C   UNL     1      33.425 -22.189 -16.879  0.00  0.00    +0.148 A 
ATOM     10  C   UNL     1      33.855 -23.942 -12.458  0.00  0.00    +0.023 C 
ATOM     11  C   UNL     1      33.097 -23.662 -13.596  0.00  0.00    +0.039 C 
ATOM     12  C   UNL     1      35.244 -21.180 -18.124  0.00  0.00    +0.006 C 
ATOM     13  C   UNL     1      32.565 -21.963 -17.956  0.00  0.00    +0.038 C 
ATOM     14  C   UNL     1      34.380 -20.957 -19.196  0.00  0.00    +0.000 C 
ATOM     15  C   UNL     1      33.044 -21.347 -19.113  0.00  0.00    +0.003 C 
ENDROOT
BRANCH   4  16
ATOM     16  S   UNL     1      36.152 -23.953 -10.991  0.00  0.00    +0.081 S 
ATOM     17  O   UNL     1      36.035 -22.823 -10.079  0.00  0.00    -0.149 OA
ATOM     18  O   UNL     1      35.794 -25.288 -10.530  0.00  0.00    -0.149 OA
BRANCH  16  19
ATOM     19  N   UNL     1      37.732 -23.989 -11.637  0.00  0.00    -0.156 N 
ATOM     20  N   UNL     1      39.448 -24.906 -13.053  0.00  0.00    -0.094 NA
ATOM     21  N   UNL     1      37.420 -25.915 -13.082  0.00  0.00    -0.071 NA
ATOM     22  N   UNL     1      39.372 -25.958 -13.881  0.00  0.00    -0.139 N 
ATOM     23  N   UNL     1      38.189 -26.586 -13.929  0.00  0.00    -0.020 NA
ATOM     24  C   UNL     1      38.206 -24.927 -12.585  0.00  0.00    +0.145 C 
ATOM     25  H   UNL     1      38.365 -23.302 -11.324  0.00  0.00    +0.186 HD
ATOM     26  H   UNL     1      40.141 -26.252 -14.422  0.00  0.00    +0.197 HD
ENDBRANCH  16  19
ENDBRANCH   4  16
TORSDOF 2
ENDMDL
MODEL 2
REMARK VINA RESULT:     -12.3      2.834      4.182
REMARK  Name = 6102777
REMARK  2 active torsions:
REMARK  status: ('A' for Active; 'I' for Inactive)
REMARK    1  A    between atoms: C_4  and  S_16
REMARK    2  A    between atoms: S_16  and  N_19
REMARK                            x       y       z     vdW  Elec       q    Type
REMARK                         _______ _______ _______ _____ _____    ______ ____
ROOT
ATOM      1  O   UNL     1      35.914 -20.430 -18.416  0.00  0.00    -0.453 OA
ATOM      2  O   UNL     1      32.012 -21.660 -18.320  0.00  0.00    -0.286 OA
ATOM      3  C   UNL     1      34.135 -21.678 -17.301  0.00  0.00    +0.075 A 
ATOM      4  C   UNL     1      34.668 -22.834 -15.251  0.00  0.00    +0.126 C 
ATOM      5  C   UNL     1      35.451 -21.223 -17.396  0.00  0.00    +0.148 A 
ATOM      6  C   UNL     1      33.738 -22.483 -16.231  0.00  0.00    +0.026 C 
ATOM      7  C   UNL     1      33.693 -20.441 -19.432  0.00  0.00    +0.074 A 
ATOM      8  C   UNL     1      33.178 -21.292 -18.348  0.00  0.00    +0.201 A 
ATOM      9  C   UNL     1      35.034 -20.059 -19.403  0.00  0.00    +0.148 A 
ATOM     10  C   UNL     1      35.984 -22.383 -15.342  0.00  0.00    +0.023 C 
ATOM     11  C   UNL     1      36.376 -21.579 -16.412  0.00  0.00    +0.039 C 
ATOM     12  C   UNL     1      32.858 -20.023 -20.471  0.00  0.00    +0.006 C 
ATOM     13  C   UNL     1      35.545 -19.251 -20.421  0.00  0.00    +0.038 C 
ATOM     14  C   UNL     1      33.374 -19.216 -21.486  0.00  0.00    +0.000 C 
ATOM     15  C   UNL     1      34.715 -18.831 -21.462  0.00  0.00    +0.003 C 
ENDROOT
BRANCH   4  16
ATOM     16  S   UNL     1      34.182 -23.841 -13.909  0.00  0.00    +0.081 S 
ATOM     17  O   UNL     1      32.759 -23.630 -13.675  0.00  0.00    -0.149 OA
ATOM     18  O   UNL     1      34.678 -25.189 -14.151  0.00  0.00    -0.149 OA
BRANCH  16  19
ATOM     19  N   UNL     1      35.068 -23.140 -12.628  0.00  0.00    -0.156 N 
ATOM     20  N   UNL     1      35.751 -22.992 -10.325  0.00  0.00    -0.094 NA
ATOM     21  N   UNL     1      34.279 -24.624 -10.875  0.00  0.00    -0.071 NA
ATOM     22  N   UNL     1      35.375 -23.760  -9.292  0.00  0.00    -0.139 N 
ATOM     23  N   UNL     1      34.503 -24.739  -9.572  0.00  0.00    -0.020 NA
ATOM     24  C   UNL     1      35.039 -23.576 -11.282  0.00  0.00    +0.145 C 
ATOM     25  H   UNL     1      35.645 -22.372 -12.843  0.00  0.00    +0.186 HD
ATOM     26  H   UNL     1      35.719 -23.613  -8.382  0.00  0.00    +0.197 HD
ENDBRANCH  16  19
ENDBRANCH   4  16
TORSDOF 2
ENDMDL
MODEL 3
REMARK VINA RESULT:     -11.8      2.878      3.627
REMARK  Name = 6102777
REMARK  2 active torsions:
REMARK  status: ('A' for Active; 'I' for Inactive)
REMARK    1  A    between atoms: C_4  and  S_16
REMARK    2  A    between atoms: S_16  and  N_19
REMARK                            x       y       z     vdW  Elec       q    Type
REMARK                         _______ _______ _______ _____ _____    ______ ____
ROOT
ATOM      1  O   UNL     1      32.067 -21.130 -18.572  0.00  0.00    -0.453 OA
ATOM      2  O   UNL     1      36.039 -21.456 -17.642  0.00  0.00    -0.286 OA
ATOM      3  C   UNL     1      33.811 -21.989 -17.093  0.00  0.00    +0.075 A 
ATOM      4  C   UNL     1      33.141 -23.311 -15.188  0.00  0.00    +0.126 C 
ATOM      5  C   UNL     1      32.476 -21.837 -17.468  0.00  0.00    +0.148 A 
ATOM      6  C   UNL     1      34.149 -22.724 -15.955  0.00  0.00    +0.026 C 
ATOM      7  C   UNL     1      34.394 -20.608 -19.098  0.00  0.00    +0.074 A 
ATOM      8  C   UNL     1      34.852 -21.360 -17.920  0.00  0.00    +0.201 A 
ATOM      9  C   UNL     1      33.025 -20.536 -19.356  0.00  0.00    +0.148 A 
ATOM     10  C   UNL     1      31.805 -23.161 -15.558  0.00  0.00    +0.023 C 
ATOM     11  C   UNL     1      31.471 -22.426 -16.696  0.00  0.00    +0.039 C 
ATOM     12  C   UNL     1      35.309 -19.977 -19.943  0.00  0.00    +0.006 C 
ATOM     13  C   UNL     1      32.567 -19.828 -20.469  0.00  0.00    +0.038 C 
ATOM     14  C   UNL     1      34.846 -19.270 -21.054  0.00  0.00    +0.000 C 
ATOM     15  C   UNL     1      33.478 -19.195 -21.316  0.00  0.00    +0.003 C 
ENDROOT
BRANCH   4  16
ATOM     16  S   UNL     1      33.553 -24.232 -13.763  0.00  0.00    +0.081 S 
ATOM     17  O   UNL     1      32.332 -24.458 -13.001  0.00  0.00    -0.149 OA
ATOM     18  O   UNL     1      34.361 -25.371 -14.178  0.00  0.00    -0.149 OA
BRANCH  16  19
ATOM     19  N   UNL     1      34.540 -23.122 -12.921  0.00  0.00    -0.156 N 
ATOM     20  N   UNL     1      35.859 -22.434 -11.029  0.00  0.00    -0.094 NA
ATOM     21  N   UNL     1      34.885 -24.478 -10.937  0.00  0.00    -0.071 NA
ATOM     22  N   UNL     1      36.107 -23.108  -9.896  0.00  0.00    -0.139 N 
ATOM     23  N   UNL     1      35.549 -24.322  -9.798  0.00  0.00    -0.020 NA
ATOM     24  C   UNL     1      35.095 -23.335 -11.637  0.00  0.00    +0.145 C 
ATOM     25  H   UNL     1      34.739 -22.266 -13.365  0.00  0.00    +0.186 HD
ATOM     26  H   UNL     1      36.666 -22.731  -9.179  0.00  0.00    +0.197 HD
ENDBRANCH  16  19
ENDBRANCH   4  16
TORSDOF 2
ENDMDL
MODEL 4
REMARK VINA RESULT:     -11.1      8.541     10.880
REMARK  Name = 6102777
REMARK  2 active torsions:
REMARK  status: ('A' for Active; 'I' for Inactive)
REMARK    1  A    between atoms: C_4  and  S_16
REMARK    2  A    between atoms: S_16  and  N_19
REMARK                            x       y       z     vdW  Elec       q    Type
REMARK                         _______ _______ _______ _____ _____    ______ ____
ROOT
ATOM      1  O   UNL     1      33.439 -13.264 -21.878  0.00  0.00    -0.453 OA
ATOM      2  O   UNL     1      33.312 -15.770 -25.111  0.00  0.00    -0.286 OA
ATOM      3  C   UNL     1      33.627 -15.522 -22.790  0.00  0.00    +0.075 A 
ATOM      4  C   UNL     1      34.118 -17.328 -21.267  0.00  0.00    +0.126 C 
ATOM      5  C   UNL     1      33.656 -14.612 -21.733  0.00  0.00    +0.148 A 
ATOM      6  C   UNL     1      33.857 -16.881 -22.563  0.00  0.00    +0.026 C 
ATOM      7  C   UNL     1      33.119 -13.575 -24.279  0.00  0.00    +0.074 A 
ATOM      8  C   UNL     1      33.349 -15.022 -24.145  0.00  0.00    +0.201 A 
ATOM      9  C   UNL     1      33.178 -12.779 -23.136  0.00  0.00    +0.148 A 
ATOM     10  C   UNL     1      34.150 -16.422 -20.207  0.00  0.00    +0.023 C 
ATOM     11  C   UNL     1      33.919 -15.066 -20.439  0.00  0.00    +0.039 C 
ATOM     12  C   UNL     1      32.847 -13.008 -25.527  0.00  0.00    +0.006 C 
ATOM     13  C   UNL     1      32.963 -11.403 -23.240  0.00  0.00    +0.038 C 
ATOM     14  C   UNL     1      32.633 -11.633 -25.624  0.00  0.00    +0.000 C 
ATOM     15  C   UNL     1      32.691 -10.832 -24.484  0.00  0.00    +0.003 C 
ENDROOT
BRANCH   4  16
ATOM     16  S   UNL     1      34.408 -19.025 -20.972  0.00  0.00    +0.081 S 
ATOM     17  O   UNL     1      34.444 -19.710 -22.257  0.00  0.00    -0.149 OA
ATOM     18  O   UNL     1      35.543 -19.139 -20.065  0.00  0.00    -0.149 OA
BRANCH  16  19
ATOM     19  N   UNL     1      32.983 -19.468 -20.142  0.00  0.00    -0.156 N 
ATOM     20  N   UNL     1      31.709 -20.896 -18.682  0.00  0.00    -0.094 NA
ATOM     21  N   UNL     1      33.866 -21.463 -19.078  0.00  0.00    -0.071 NA
ATOM     22  N   UNL     1      32.106 -22.010 -18.051  0.00  0.00    -0.139 N 
ATOM     23  N   UNL     1      33.376 -22.384 -18.258  0.00  0.00    -0.020 NA
ATOM     24  C   UNL     1      32.844 -20.600 -19.304  0.00  0.00    +0.145 C 
ATOM     25  H   UNL     1      32.194 -18.889 -20.256  0.00  0.00    +0.186 HD
ATOM     26  H   UNL     1      31.499 -22.524 -17.471  0.00  0.00    +0.197 HD
ENDBRANCH  16  19
ENDBRANCH   4  16
TORSDOF 2
ENDMDL
MODEL 5
REMARK VINA RESULT:     -11.1      8.436     10.874
REMARK  Name = 6102777
REMARK  2 active torsions:
REMARK  status: ('A' for Active; 'I' for Inactive)
REMARK    1  A    between atoms: C_4  and  S_16
REMARK    2  A    between atoms: S_16  and  N_19
REMARK                            x       y       z     vdW  Elec       q    Type
REMARK                         _______ _______ _______ _____ _____    ______ ____
ROOT
ATOM      1  O   UNL     1      32.851 -15.270 -25.015  0.00  0.00    -0.453 OA
ATOM      2  O   UNL     1      34.134 -13.686 -21.466  0.00  0.00    -0.286 OA
ATOM      3  C   UNL     1      33.728 -15.611 -22.761  0.00  0.00    +0.075 A 
ATOM      4  C   UNL     1      34.116 -17.875 -22.020  0.00  0.00    +0.126 C 
ATOM      5  C   UNL     1      33.279 -16.083 -23.994  0.00  0.00    +0.148 A 
ATOM      6  C   UNL     1      34.148 -16.503 -21.770  0.00  0.00    +0.026 C 
ATOM      7  C   UNL     1      33.291 -13.305 -23.631  0.00  0.00    +0.074 A 
ATOM      8  C   UNL     1      33.752 -14.160 -22.526  0.00  0.00    +0.201 A 
ATOM      9  C   UNL     1      32.867 -13.911 -24.814  0.00  0.00    +0.148 A 
ATOM     10  C   UNL     1      33.666 -18.352 -23.251  0.00  0.00    +0.023 C 
ATOM     11  C   UNL     1      33.248 -17.458 -24.237  0.00  0.00    +0.039 C 
ATOM     12  C   UNL     1      33.278 -11.915 -23.502  0.00  0.00    +0.006 C 
ATOM     13  C   UNL     1      32.425 -13.120 -25.876  0.00  0.00    +0.038 C 
ATOM     14  C   UNL     1      32.835 -11.129 -24.567  0.00  0.00    +0.000 C 
ATOM     15  C   UNL     1      32.410 -11.730 -25.751  0.00  0.00    +0.003 C 
ENDROOT
BRANCH   4  16
ATOM     16  S   UNL     1      34.638 -18.998 -20.789  0.00  0.00    +0.081 S 
ATOM     17  O   UNL     1      35.288 -20.124 -21.447  0.00  0.00    -0.149 OA
ATOM     18  O   UNL     1      35.360 -18.249 -19.769  0.00  0.00    -0.149 OA
BRANCH  16  19
ATOM     19  N   UNL     1      33.141 -19.513 -20.149  0.00  0.00    -0.156 N 
ATOM     20  N   UNL     1      31.771 -20.965 -18.805  0.00  0.00    -0.094 NA
ATOM     21  N   UNL     1      33.998 -21.375 -18.848  0.00  0.00    -0.071 NA
ATOM     22  N   UNL     1      32.149 -22.011 -18.056  0.00  0.00    -0.139 N 
ATOM     23  N   UNL     1      33.459 -22.291 -18.053  0.00  0.00    -0.020 NA
ATOM     24  C   UNL     1      32.962 -20.609 -19.272  0.00  0.00    +0.145 C 
ATOM     25  H   UNL     1      32.338 -19.006 -20.411  0.00  0.00    +0.186 HD
ATOM     26  H   UNL     1      31.501 -22.542 -17.539  0.00  0.00    +0.197 HD
ENDBRANCH  16  19
ENDBRANCH   4  16
TORSDOF 2
ENDMDL
MODEL 6
REMARK VINA RESULT:     -11.1     12.899     15.468
REMARK  Name = 6102777
REMARK  2 active torsions:
REMARK  status: ('A' for Active; 'I' for Inactive)
REMARK    1  A    between atoms: C_4  and  S_16
REMARK    2  A    between atoms: S_16  and  N_19
REMARK                            x       y       z     vdW  Elec       q    Type
REMARK                         _______ _______ _______ _____ _____    ______ ____
ROOT
ATOM      1  O   UNL     1      33.107 -15.570 -24.772  0.00  0.00    -0.453 OA
ATOM      2  O   UNL     1      34.018 -14.256 -21.005  0.00  0.00    -0.286 OA
ATOM      3  C   UNL     1      33.380 -13.715 -23.207  0.00  0.00    +0.075 A 
ATOM      4  C   UNL     1      32.983 -11.475 -24.014  0.00  0.00    +0.126 C 
ATOM      5  C   UNL     1      33.082 -14.231 -24.468  0.00  0.00    +0.148 A 
ATOM      6  C   UNL     1      33.332 -12.338 -22.974  0.00  0.00    +0.026 C 
ATOM      7  C   UNL     1      33.765 -16.078 -22.476  0.00  0.00    +0.074 A 
ATOM      8  C   UNL     1      33.745 -14.648 -22.130  0.00  0.00    +0.201 A 
ATOM      9  C   UNL     1      33.445 -16.456 -23.779  0.00  0.00    +0.148 A 
ATOM     10  C   UNL     1      32.684 -11.986 -25.277  0.00  0.00    +0.023 C 
ATOM     11  C   UNL     1      32.733 -13.362 -25.505  0.00  0.00    +0.039 C 
ATOM     12  C   UNL     1      34.099 -17.039 -21.519  0.00  0.00    +0.006 C 
ATOM     13  C   UNL     1      33.458 -17.808 -24.130  0.00  0.00    +0.038 C 
ATOM     14  C   UNL     1      34.111 -18.388 -21.875  0.00  0.00    +0.000 C 
ATOM     15  C   UNL     1      33.791 -18.772 -23.177  0.00  0.00    +0.003 C 
ENDROOT
BRANCH   4  16
ATOM     16  S   UNL     1      32.920  -9.753 -23.734  0.00  0.00    +0.081 S 
ATOM     17  O   UNL     1      34.276  -9.285 -23.474  0.00  0.00    -0.149 OA
ATOM     18  O   UNL     1      32.146  -9.147 -24.809  0.00  0.00    -0.149 OA
BRANCH  16  19
ATOM     19  N   UNL     1      32.017  -9.682 -22.286  0.00  0.00    -0.156 N 
ATOM     20  N   UNL     1      31.019  -8.506 -20.438  0.00  0.00    -0.094 NA
ATOM     21  N   UNL     1      32.158  -7.279 -21.965  0.00  0.00    -0.071 NA
ATOM     22  N   UNL     1      31.041  -7.191 -20.177  0.00  0.00    -0.139 N 
ATOM     23  N   UNL     1      31.705  -6.426 -21.055  0.00  0.00    -0.020 NA
ATOM     24  C   UNL     1      31.729  -8.501 -21.561  0.00  0.00    +0.145 C 
ATOM     25  H   UNL     1      31.669 -10.531 -21.927  0.00  0.00    +0.186 HD
ATOM     26  H   UNL     1      30.596  -6.810 -19.386  0.00  0.00    +0.197 HD
ENDBRANCH  16  19
ENDBRANCH   4  16
TORSDOF 2
ENDMDL
MODEL 7
REMARK VINA RESULT:     -10.8      3.491      4.934
REMARK  Name = 6102777
REMARK  2 active torsions:
REMARK  status: ('A' for Active; 'I' for Inactive)
REMARK    1  A    between atoms: C_4  and  S_16
REMARK    2  A    between atoms: S_16  and  N_19
REMARK                            x       y       z     vdW  Elec       q    Type
REMARK                         _______ _______ _______ _____ _____    ______ ____
ROOT
ATOM      1  O   UNL     1      35.791 -20.592 -18.259  0.00  0.00    -0.453 OA
ATOM      2  O   UNL     1      31.946 -21.943 -17.880  0.00  0.00    -0.286 OA
ATOM      3  C   UNL     1      34.139 -21.897 -17.021  0.00  0.00    +0.075 A 
ATOM      4  C   UNL     1      34.857 -23.042 -15.022  0.00  0.00    +0.126 C 
ATOM      5  C   UNL     1      35.429 -21.402 -17.211  0.00  0.00    +0.148 A 
ATOM      6  C   UNL     1      33.847 -22.717 -15.928  0.00  0.00    +0.026 C 
ATOM      7  C   UNL     1      33.501 -20.669 -19.107  0.00  0.00    +0.074 A 
ATOM      8  C   UNL     1      33.094 -21.539 -17.993  0.00  0.00    +0.201 A 
ATOM      9  C   UNL     1      34.828 -20.246 -19.176  0.00  0.00    +0.148 A 
ATOM     10  C   UNL     1      36.149 -22.550 -15.208  0.00  0.00    +0.023 C 
ATOM     11  C   UNL     1      36.435 -21.731 -16.301  0.00  0.00    +0.039 C 
ATOM     12  C   UNL     1      32.579 -20.275 -20.079  0.00  0.00    +0.006 C 
ATOM     13  C   UNL     1      35.237 -19.420 -20.225  0.00  0.00    +0.038 C 
ATOM     14  C   UNL     1      32.993 -19.450 -21.126  0.00  0.00    +0.000 C 
ATOM     15  C   UNL     1      34.319 -19.024 -21.199  0.00  0.00    +0.003 C 
ENDROOT
BRANCH   4  16
ATOM     16  S   UNL     1      34.504 -24.067 -13.653  0.00  0.00    +0.081 S 
ATOM     17  O   UNL     1      34.063 -25.361 -14.156  0.00  0.00    -0.149 OA
ATOM     18  O   UNL     1      35.633 -24.000 -12.734  0.00  0.00    -0.149 OA
BRANCH  16  19
ATOM     19  N   UNL     1      33.171 -23.253 -12.961  0.00  0.00    -0.156 N 
ATOM     20  N   UNL     1      30.854 -23.083 -12.337  0.00  0.00    -0.094 NA
ATOM     21  N   UNL     1      31.518 -24.981 -13.379  0.00  0.00    -0.071 NA
ATOM     22  N   UNL     1      29.872 -23.977 -12.523  0.00  0.00    -0.139 N 
ATOM     23  N   UNL     1      30.220 -25.116 -13.138  0.00  0.00    -0.020 NA
ATOM     24  C   UNL     1      31.853 -23.761 -12.889  0.00  0.00    +0.145 C 
ATOM     25  H   UNL     1      33.334 -22.359 -12.581  0.00  0.00    +0.186 HD
ATOM     26  H   UNL     1      28.949 -23.806 -12.226  0.00  0.00    +0.197 HD
ENDBRANCH  16  19
ENDBRANCH   4  16
TORSDOF 2
ENDMDL
MODEL 8
REMARK VINA RESULT:     -10.3     13.816     16.202
REMARK  Name = 6102777
REMARK  2 active torsions:
REMARK  status: ('A' for Active; 'I' for Inactive)
REMARK    1  A    between atoms: C_4  and  S_16
REMARK    2  A    between atoms: S_16  and  N_19
REMARK                            x       y       z     vdW  Elec       q    Type
REMARK                         _______ _______ _______ _____ _____    ______ ____
ROOT
ATOM      1  O   UNL     1      33.113 -15.415 -24.784  0.00  0.00    -0.453 OA
ATOM      2  O   UNL     1      34.001 -14.326 -20.940  0.00  0.00    -0.286 OA
ATOM      3  C   UNL     1      33.384 -13.655 -23.112  0.00  0.00    +0.075 A 
ATOM      4  C   UNL     1      33.005 -11.371 -23.791  0.00  0.00    +0.126 C 
ATOM      5  C   UNL     1      33.093 -14.096 -24.403  0.00  0.00    +0.148 A 
ATOM      6  C   UNL     1      33.341 -12.294 -22.801  0.00  0.00    +0.026 C 
ATOM      7  C   UNL     1      33.751 -16.058 -22.516  0.00  0.00    +0.074 A 
ATOM      8  C   UNL     1      33.735 -14.651 -22.088  0.00  0.00    +0.201 A 
ATOM      9  C   UNL     1      33.439 -16.360 -23.841  0.00  0.00    +0.148 A 
ATOM     10  C   UNL     1      32.714 -11.806 -25.084  0.00  0.00    +0.023 C 
ATOM     11  C   UNL     1      32.757 -13.167 -25.390  0.00  0.00    +0.039 C 
ATOM     12  C   UNL     1      34.072 -17.075 -21.613  0.00  0.00    +0.006 C 
ATOM     13  C   UNL     1      33.447 -17.688 -24.269  0.00  0.00    +0.038 C 
ATOM     14  C   UNL     1      34.080 -18.402 -22.047  0.00  0.00    +0.000 C 
ATOM     15  C   UNL     1      33.768 -18.708 -23.371  0.00  0.00    +0.003 C 
ENDROOT
BRANCH   4  16
ATOM     16  S   UNL     1      32.949  -9.667 -23.413  0.00  0.00    +0.081 S 
ATOM     17  O   UNL     1      32.152  -9.496 -22.205  0.00  0.00    -0.149 OA
ATOM     18  O   UNL     1      34.310  -9.149 -23.455  0.00  0.00    -0.149 OA
BRANCH  16  19
ATOM     19  N   UNL     1      32.077  -9.056 -24.748  0.00  0.00    -0.156 N 
ATOM     20  N   UNL     1      30.958  -7.300 -25.954  0.00  0.00    -0.094 NA
ATOM     21  N   UNL     1      31.869  -6.773 -23.948  0.00  0.00    -0.071 NA
ATOM     22  N   UNL     1      30.793  -6.018 -25.599  0.00  0.00    -0.139 N 
ATOM     23  N   UNL     1      31.316  -5.661 -24.417  0.00  0.00    -0.020 NA
ATOM     24  C   UNL     1      31.633  -7.720 -24.891  0.00  0.00    +0.145 C 
ATOM     25  H   UNL     1      31.866  -9.684 -25.477  0.00  0.00    +0.186 HD
ATOM     26  H   UNL     1      30.315  -5.376 -26.172  0.00  0.00    +0.197 HD
ENDBRANCH  16  19
ENDBRANCH   4  16
TORSDOF 2
ENDMDL
MODEL 9
REMARK VINA RESULT:     -10.1     10.841     13.152
REMARK  Name = 6102777
REMARK  2 active torsions:
REMARK  status: ('A' for Active; 'I' for Inactive)
REMARK    1  A    between atoms: C_4  and  S_16
REMARK    2  A    between atoms: S_16  and  N_19
REMARK                            x       y       z     vdW  Elec       q    Type
REMARK                         _______ _______ _______ _____ _____    ______ ____
ROOT
ATOM      1  O   UNL     1      32.100 -10.494 -22.358  0.00  0.00    -0.453 OA
ATOM      2  O   UNL     1      31.381 -13.394 -19.560  0.00  0.00    -0.286 OA
ATOM      3  C   UNL     1      32.215 -12.842 -21.693  0.00  0.00    +0.075 A 
ATOM      4  C   UNL     1      33.164 -14.422 -23.250  0.00  0.00    +0.126 C 
ATOM      5  C   UNL     1      32.431 -11.805 -22.600  0.00  0.00    +0.148 A 
ATOM      6  C   UNL     1      32.579 -14.152 -22.013  0.00  0.00    +0.026 C 
ATOM      7  C   UNL     1      31.250 -11.118 -20.154  0.00  0.00    +0.074 A 
ATOM      8  C   UNL     1      31.597 -12.528 -20.396  0.00  0.00    +0.201 A 
ATOM      9  C   UNL     1      31.522 -10.182 -21.151  0.00  0.00    +0.148 A 
ATOM     10  C   UNL     1      33.381 -13.388 -24.162  0.00  0.00    +0.023 C 
ATOM     11  C   UNL     1      33.016 -12.081 -23.838  0.00  0.00    +0.039 C 
ATOM     12  C   UNL     1      30.660 -10.724 -18.951  0.00  0.00    +0.006 C 
ATOM     13  C   UNL     1      31.202  -8.839 -20.944  0.00  0.00    +0.038 C 
ATOM     14  C   UNL     1      30.342  -9.380 -18.750  0.00  0.00    +0.000 C 
ATOM     15  C   UNL     1      30.612  -8.439 -19.744  0.00  0.00    +0.003 C 
ENDROOT
BRANCH   4  16
ATOM     16  S   UNL     1      33.623 -16.056 -23.660  0.00  0.00    +0.081 S 
ATOM     17  O   UNL     1      32.422 -16.881 -23.649  0.00  0.00    -0.149 OA
ATOM     18  O   UNL     1      34.449 -16.006 -24.860  0.00  0.00    -0.149 OA
BRANCH  16  19
ATOM     19  N   UNL     1      34.602 -16.473 -22.325  0.00  0.00    -0.156 N 
ATOM     20  N   UNL     1      35.279 -17.938 -20.539  0.00  0.00    -0.094 NA
ATOM     21  N   UNL     1      33.559 -18.614 -21.850  0.00  0.00    -0.071 NA
ATOM     22  N   UNL     1      34.769 -19.132 -20.201  0.00  0.00    -0.139 N 
ATOM     23  N   UNL     1      33.748 -19.571 -20.950  0.00  0.00    -0.020 NA
ATOM     24  C   UNL     1      34.488 -17.665 -21.570  0.00  0.00    +0.145 C 
ATOM     25  H   UNL     1      35.302 -15.834 -22.058  0.00  0.00    +0.186 HD
ATOM     26  H   UNL     1      35.124 -19.654 -19.446  0.00  0.00    +0.197 HD
ENDBRANCH  16  19
ENDBRANCH   4  16
TORSDOF 2
ENDMDL
