MODEL 1
REMARK VINA RESULT:     -12.2      0.000      0.000
REMARK  Name = 447734
REMARK  5 active torsions:
REMARK  status: ('A' for Active; 'I' for Inactive)
REMARK    1  A    between atoms: C_3  and  C_19
REMARK    2  A    between atoms: C_9  and  C_13
REMARK    3  A    between atoms: N_18  and  C_24
REMARK    4  A    between atoms: C_21  and  O_27
REMARK    5  A    between atoms: O_27  and  C_28
REMARK                            x       y       z     vdW  Elec       q    Type
REMARK                         _______ _______ _______ _____ _____    ______ ____
ROOT
ATOM      1  C   UNL     1      33.335 -19.789 -20.155  0.00  0.00    +0.000 C 
ATOM      2  C   UNL     1      34.647 -19.988 -19.664  0.00  0.00    +0.000 C 
ATOM      3  C   UNL     1      34.202 -18.233 -21.811  0.00  0.00    +0.054 C 
ATOM      4  C   UNL     1      33.130 -18.908 -21.229  0.00  0.00    +0.005 C 
ATOM      5  C   UNL     1      35.716 -19.301 -20.262  0.00  0.00    +0.000 C 
ATOM      6  C   UNL     1      35.493 -18.429 -21.328  0.00  0.00    +0.005 C 
ATOM      7  C   UNL     1      34.853 -20.870 -18.590  0.00  0.00    +0.003 C 
ATOM      8  C   UNL     1      32.267 -20.478 -19.557  0.00  0.00    +0.000 C 
ATOM      9  C   UNL     1      33.780 -21.546 -18.008  0.00  0.00    +0.031 C 
ATOM     10  C   UNL     1      32.489 -21.350 -18.491  0.00  0.00    +0.003 C 
ENDROOT
BRANCH   9  13
ATOM     11  N   UNL     1      35.126 -22.325 -16.073  0.00  0.00    -0.343 N 
ATOM     12  N   UNL     1      33.153 -23.432 -16.658  0.00  0.00    -0.285 NA
ATOM     13  C   UNL     1      34.009 -22.455 -16.897  0.00  0.00    +0.117 C 
ATOM     14  H   UNL     1      35.261 -22.951 -15.325  0.00  0.00    +0.144 HD
ATOM     15  H   UNL     1      35.778 -21.605 -16.237  0.00  0.00    +0.144 HD
ATOM     16  H   UNL     1      33.306 -24.048 -15.905  0.00  0.00    +0.188 HD
ENDBRANCH   9  13
BRANCH   3  19
ATOM     17  O   UNL     1      34.127 -17.737 -24.083  0.00  0.00    -0.270 OA
ATOM     18  N   UNL     1      33.563 -16.028 -22.577  0.00  0.00    -0.280 N 
ATOM     19  C   UNL     1      33.973 -17.323 -22.922  0.00  0.00    +0.249 C 
ATOM     20  H   UNL     1      33.485 -15.846 -21.613  0.00  0.00    +0.155 HD
BRANCH  18  24
ATOM     21  C   UNL     1      33.175 -12.586 -23.853  0.00  0.00    +0.140 C 
ATOM     22  C   UNL     1      33.489 -13.651 -23.009  0.00  0.00    +0.052 C 
ATOM     23  C   UNL     1      32.623 -12.832 -25.110  0.00  0.00    +0.037 C 
ATOM     24  C   UNL     1      33.245 -14.946 -23.435  0.00  0.00    +0.054 C 
ATOM     25  C   UNL     1      32.383 -14.143 -25.522  0.00  0.00    +0.004 C 
ATOM     26  C   UNL     1      32.697 -15.207 -24.679  0.00  0.00    +0.015 C 
BRANCH  21  27
ATOM     27  O   UNL     1      33.408 -11.307 -23.451  0.00  0.00    -0.479 OA
BRANCH  27  28
ATOM     28  C   UNL     1      33.283 -10.287 -24.434  0.00  0.00    +0.166 C 
ATOM     29  C   UNL     1      34.594  -9.524 -24.541  0.00  0.00    +0.044 C 
ATOM     30  C   UNL     1      32.302  -9.222 -23.970  0.00  0.00    +0.044 C 
ATOM     31  C   UNL     1      34.570  -8.555 -23.359  0.00  0.00    +0.004 C 
ATOM     32  C   UNL     1      33.101  -8.386 -22.973  0.00  0.00    +0.004 C 
ENDBRANCH  27  28
ENDBRANCH  21  27
ENDBRANCH  18  24
ENDBRANCH   3  19
TORSDOF 5
ENDMDL
MODEL 2
REMARK VINA RESULT:     -11.6      4.988     12.266
REMARK  Name = 447734
REMARK  5 active torsions:
REMARK  status: ('A' for Active; 'I' for Inactive)
REMARK    1  A    between atoms: C_3  and  C_19
REMARK    2  A    between atoms: C_9  and  C_13
REMARK    3  A    between atoms: N_18  and  C_24
REMARK    4  A    between atoms: C_21  and  O_27
REMARK    5  A    between atoms: O_27  and  C_28
REMARK                            x       y       z     vdW  Elec       q    Type
REMARK                         _______ _______ _______ _____ _____    ______ ____
ROOT
ATOM      1  C   UNL     1      34.788 -19.740 -19.980  0.00  0.00    +0.000 C 
ATOM      2  C   UNL     1      33.467 -19.657 -20.480  0.00  0.00    +0.000 C 
ATOM      3  C   UNL     1      34.012 -21.215 -18.208  0.00  0.00    +0.054 C 
ATOM      4  C   UNL     1      35.044 -20.523 -18.843  0.00  0.00    +0.005 C 
ATOM      5  C   UNL     1      32.440 -20.359 -19.829  0.00  0.00    +0.000 C 
ATOM      6  C   UNL     1      32.713 -21.132 -18.700  0.00  0.00    +0.005 C 
ATOM      7  C   UNL     1      33.212 -18.873 -21.618  0.00  0.00    +0.003 C 
ATOM      8  C   UNL     1      35.815 -19.038 -20.632  0.00  0.00    +0.000 C 
ATOM      9  C   UNL     1      34.244 -18.183 -22.254  0.00  0.00    +0.031 C 
ATOM     10  C   UNL     1      35.544 -18.265 -21.761  0.00  0.00    +0.003 C 
ENDROOT
BRANCH   9  13
ATOM     11  N   UNL     1      34.578 -16.141 -23.627  0.00  0.00    -0.343 N 
ATOM     12  N   UNL     1      33.104 -17.810 -24.336  0.00  0.00    -0.285 NA
ATOM     13  C   UNL     1      33.963 -17.376 -23.431  0.00  0.00    +0.117 C 
ATOM     14  H   UNL     1      34.374 -15.612 -24.431  0.00  0.00    +0.144 HD
ATOM     15  H   UNL     1      35.219 -15.799 -22.962  0.00  0.00    +0.144 HD
ATOM     16  H   UNL     1      32.912 -17.265 -25.133  0.00  0.00    +0.188 HD
ENDBRANCH   9  13
BRANCH   3  19
ATOM     17  O   UNL     1      35.454 -22.413 -16.831  0.00  0.00    -0.270 OA
ATOM     18  N   UNL     1      33.202 -22.271 -16.186  0.00  0.00    -0.280 N 
ATOM     19  C   UNL     1      34.293 -22.020 -17.030  0.00  0.00    +0.249 C 
ATOM     20  H   UNL     1      32.341 -21.895 -16.477  0.00  0.00    +0.155 HD
BRANCH  18  24
ATOM     21  C   UNL     1      34.337 -23.915 -13.082  0.00  0.00    +0.140 C 
ATOM     22  C   UNL     1      34.361 -23.199 -14.279  0.00  0.00    +0.052 C 
ATOM     23  C   UNL     1      33.130 -24.416 -12.594  0.00  0.00    +0.037 C 
ATOM     24  C   UNL     1      33.178 -22.996 -14.970  0.00  0.00    +0.054 C 
ATOM     25  C   UNL     1      31.948 -24.203 -13.302  0.00  0.00    +0.004 C 
ATOM     26  C   UNL     1      31.972 -23.488 -14.499  0.00  0.00    +0.015 C 
BRANCH  21  27
ATOM     27  O   UNL     1      35.490 -24.123 -12.391  0.00  0.00    -0.479 OA
BRANCH  27  28
ATOM     28  C   UNL     1      35.913 -25.472 -12.230  0.00  0.00    +0.166 C 
ATOM     29  C   UNL     1      37.270 -25.497 -11.544  0.00  0.00    +0.044 C 
ATOM     30  C   UNL     1      36.201 -26.101 -13.584  0.00  0.00    +0.044 C 
ATOM     31  C   UNL     1      38.270 -25.189 -12.659  0.00  0.00    +0.004 C 
ATOM     32  C   UNL     1      37.571 -25.548 -13.971  0.00  0.00    +0.004 C 
ENDBRANCH  27  28
ENDBRANCH  21  27
ENDBRANCH  18  24
ENDBRANCH   3  19
TORSDOF 5
ENDMDL
MODEL 3
REMARK VINA RESULT:     -11.5      3.347     10.838
REMARK  Name = 447734
REMARK  5 active torsions:
REMARK  status: ('A' for Active; 'I' for Inactive)
REMARK    1  A    between atoms: C_3  and  C_19
REMARK    2  A    between atoms: C_9  and  C_13
REMARK    3  A    between atoms: N_18  and  C_24
REMARK    4  A    between atoms: C_21  and  O_27
REMARK    5  A    between atoms: O_27  and  C_28
REMARK                            x       y       z     vdW  Elec       q    Type
REMARK                         _______ _______ _______ _____ _____    ______ ____
ROOT
ATOM      1  C   UNL     1      33.811 -16.301 -22.280  0.00  0.00    +0.000 C 
ATOM      2  C   UNL     1      33.400 -16.902 -23.493  0.00  0.00    +0.000 C 
ATOM      3  C   UNL     1      34.243 -18.506 -21.348  0.00  0.00    +0.054 C 
ATOM      4  C   UNL     1      34.230 -17.117 -21.217  0.00  0.00    +0.005 C 
ATOM      5  C   UNL     1      33.420 -18.301 -23.608  0.00  0.00    +0.000 C 
ATOM      6  C   UNL     1      33.839 -19.096 -22.542  0.00  0.00    +0.005 C 
ATOM      7  C   UNL     1      32.982 -16.084 -24.557  0.00  0.00    +0.003 C 
ATOM      8  C   UNL     1      33.791 -14.901 -22.165  0.00  0.00    +0.000 C 
ATOM      9  C   UNL     1      32.969 -14.696 -24.426  0.00  0.00    +0.031 C 
ATOM     10  C   UNL     1      33.373 -14.105 -23.232  0.00  0.00    +0.003 C 
ENDROOT
BRANCH   9  13
ATOM     11  N   UNL     1      31.185 -13.751 -25.871  0.00  0.00    -0.343 N 
ATOM     12  N   UNL     1      33.424 -13.203 -26.253  0.00  0.00    -0.285 NA
ATOM     13  C   UNL     1      32.533 -13.864 -25.537  0.00  0.00    +0.117 C 
ATOM     14  H   UNL     1      30.911 -13.182 -26.627  0.00  0.00    +0.144 HD
ATOM     15  H   UNL     1      30.506 -14.239 -25.351  0.00  0.00    +0.144 HD
ATOM     16  H   UNL     1      33.131 -12.639 -27.005  0.00  0.00    +0.188 HD
ENDBRANCH   9  13
BRANCH   3  19
ATOM     17  O   UNL     1      35.864 -19.285 -19.872  0.00  0.00    -0.270 OA
ATOM     18  N   UNL     1      33.687 -20.130 -19.642  0.00  0.00    -0.280 N 
ATOM     19  C   UNL     1      34.678 -19.337 -20.237  0.00  0.00    +0.249 C 
ATOM     20  H   UNL     1      32.791 -20.066 -20.042  0.00  0.00    +0.155 HD
BRANCH  18  24
ATOM     21  C   UNL     1      32.794 -22.502 -16.958  0.00  0.00    +0.140 C 
ATOM     22  C   UNL     1      32.675 -21.636 -18.044  0.00  0.00    +0.052 C 
ATOM     23  C   UNL     1      34.045 -22.733 -16.384  0.00  0.00    +0.037 C 
ATOM     24  C   UNL     1      33.808 -21.012 -18.540  0.00  0.00    +0.054 C 
ATOM     25  C   UNL     1      35.175 -22.096 -16.895  0.00  0.00    +0.004 C 
ATOM     26  C   UNL     1      35.056 -21.230 -17.981  0.00  0.00    +0.015 C 
BRANCH  21  27
ATOM     27  O   UNL     1      31.692 -23.123 -16.459  0.00  0.00    -0.479 OA
BRANCH  27  28
ATOM     28  C   UNL     1      30.890 -22.383 -15.546  0.00  0.00    +0.166 C 
ATOM     29  C   UNL     1      31.286 -22.740 -14.121  0.00  0.00    +0.044 C 
ATOM     30  C   UNL     1      29.442 -22.839 -15.624  0.00  0.00    +0.044 C 
ATOM     31  C   UNL     1      30.581 -24.069 -13.849  0.00  0.00    +0.004 C 
ATOM     32  C   UNL     1      29.416 -24.146 -14.836  0.00  0.00    +0.004 C 
ENDBRANCH  27  28
ENDBRANCH  21  27
ENDBRANCH  18  24
ENDBRANCH   3  19
TORSDOF 5
ENDMDL
MODEL 4
REMARK VINA RESULT:     -11.4      2.414      4.556
REMARK  Name = 447734
REMARK  5 active torsions:
REMARK  status: ('A' for Active; 'I' for Inactive)
REMARK    1  A    between atoms: C_3  and  C_19
REMARK    2  A    between atoms: C_9  and  C_13
REMARK    3  A    between atoms: N_18  and  C_24
REMARK    4  A    between atoms: C_21  and  O_27
REMARK    5  A    between atoms: O_27  and  C_28
REMARK                            x       y       z     vdW  Elec       q    Type
REMARK                         _______ _______ _______ _____ _____    ______ ____
ROOT
ATOM      1  C   UNL     1      34.943 -21.680 -17.037  0.00  0.00    +0.000 C 
ATOM      2  C   UNL     1      33.955 -22.467 -16.399  0.00  0.00    +0.000 C 
ATOM      3  C   UNL     1      33.304 -20.983 -18.693  0.00  0.00    +0.054 C 
ATOM      4  C   UNL     1      34.601 -20.944 -18.183  0.00  0.00    +0.005 C 
ATOM      5  C   UNL     1      32.654 -22.495 -16.926  0.00  0.00    +0.000 C 
ATOM      6  C   UNL     1      32.331 -21.757 -18.065  0.00  0.00    +0.005 C 
ATOM      7  C   UNL     1      34.298 -23.203 -15.252  0.00  0.00    +0.003 C 
ATOM      8  C   UNL     1      36.245 -21.652 -16.510  0.00  0.00    +0.000 C 
ATOM      9  C   UNL     1      35.595 -23.163 -14.742  0.00  0.00    +0.031 C 
ATOM     10  C   UNL     1      36.567 -22.389 -15.369  0.00  0.00    +0.003 C 
ENDROOT
BRANCH   9  13
ATOM     11  N   UNL     1      35.128 -24.981 -13.116  0.00  0.00    -0.343 N 
ATOM     12  N   UNL     1      37.020 -23.633 -12.865  0.00  0.00    -0.285 NA
ATOM     13  C   UNL     1      35.933 -23.931 -13.554  0.00  0.00    +0.117 C 
ATOM     14  H   UNL     1      35.376 -25.488 -12.310  0.00  0.00    +0.144 HD
ATOM     15  H   UNL     1      34.312 -25.216 -13.615  0.00  0.00    +0.144 HD
ATOM     16  H   UNL     1      37.251 -24.152 -12.061  0.00  0.00    +0.188 HD
ENDBRANCH   9  13
BRANCH   3  19
ATOM     17  O   UNL     1      31.790 -20.214 -20.284  0.00  0.00    -0.270 OA
ATOM     18  N   UNL     1      34.020 -19.506 -20.472  0.00  0.00    -0.280 N 
ATOM     19  C   UNL     1      32.965 -20.216 -19.881  0.00  0.00    +0.249 C 
ATOM     20  H   UNL     1      34.898 -19.606 -20.039  0.00  0.00    +0.155 HD
BRANCH  18  24
ATOM     21  C   UNL     1      34.060 -16.464 -22.561  0.00  0.00    +0.140 C 
ATOM     22  C   UNL     1      34.094 -17.293 -21.441  0.00  0.00    +0.052 C 
ATOM     23  C   UNL     1      33.920 -17.018 -23.834  0.00  0.00    +0.037 C 
ATOM     24  C   UNL     1      33.987 -18.664 -21.610  0.00  0.00    +0.054 C 
ATOM     25  C   UNL     1      33.813 -18.400 -23.986  0.00  0.00    +0.004 C 
ATOM     26  C   UNL     1      33.847 -19.229 -22.866  0.00  0.00    +0.015 C 
BRANCH  21  27
ATOM     27  O   UNL     1      34.164 -15.116 -22.414  0.00  0.00    -0.479 OA
BRANCH  27  28
ATOM     28  C   UNL     1      32.970 -14.404 -22.111  0.00  0.00    +0.166 C 
ATOM     29  C   UNL     1      32.194 -14.150 -23.394  0.00  0.00    +0.044 C 
ATOM     30  C   UNL     1      33.299 -13.001 -21.625  0.00  0.00    +0.044 C 
ATOM     31  C   UNL     1      32.891 -12.948 -24.032  0.00  0.00    +0.004 C 
ATOM     32  C   UNL     1      33.626 -12.229 -22.901  0.00  0.00    +0.004 C 
ENDBRANCH  27  28
ENDBRANCH  21  27
ENDBRANCH  18  24
ENDBRANCH   3  19
TORSDOF 5
ENDMDL
MODEL 5
REMARK VINA RESULT:     -11.4      2.861      5.315
REMARK  Name = 447734
REMARK  5 active torsions:
REMARK  status: ('A' for Active; 'I' for Inactive)
REMARK    1  A    between atoms: C_3  and  C_19
REMARK    2  A    between atoms: C_9  and  C_13
REMARK    3  A    between atoms: N_18  and  C_24
REMARK    4  A    between atoms: C_21  and  O_27
REMARK    5  A    between atoms: O_27  and  C_28
REMARK                            x       y       z     vdW  Elec       q    Type
REMARK                         _______ _______ _______ _____ _____    ______ ____
ROOT
ATOM      1  C   UNL     1      33.915 -15.730 -22.636  0.00  0.00    +0.000 C 
ATOM      2  C   UNL     1      33.897 -15.648 -21.224  0.00  0.00    +0.000 C 
ATOM      3  C   UNL     1      33.428 -13.350 -22.768  0.00  0.00    +0.054 C 
ATOM      4  C   UNL     1      33.678 -14.571 -23.394  0.00  0.00    +0.005 C 
ATOM      5  C   UNL     1      33.643 -14.411 -20.610  0.00  0.00    +0.000 C 
ATOM      6  C   UNL     1      33.411 -13.270 -21.379  0.00  0.00    +0.005 C 
ATOM      7  C   UNL     1      34.134 -16.808 -20.466  0.00  0.00    +0.003 C 
ATOM      8  C   UNL     1      34.169 -16.968 -23.250  0.00  0.00    +0.000 C 
ATOM      9  C   UNL     1      34.385 -18.029 -21.092  0.00  0.00    +0.031 C 
ATOM     10  C   UNL     1      34.403 -18.109 -22.481  0.00  0.00    +0.003 C 
ENDROOT
BRANCH   9  13
ATOM     11  N   UNL     1      33.619 -20.149 -20.052  0.00  0.00    -0.343 N 
ATOM     12  N   UNL     1      35.825 -19.431 -19.774  0.00  0.00    -0.285 NA
ATOM     13  C   UNL     1      34.628 -19.219 -20.292  0.00  0.00    +0.117 C 
ATOM     14  H   UNL     1      33.805 -20.949 -19.508  0.00  0.00    +0.144 HD
ATOM     15  H   UNL     1      32.719 -20.007 -20.427  0.00  0.00    +0.144 HD
ATOM     16  H   UNL     1      35.992 -20.236 -19.233  0.00  0.00    +0.188 HD
ENDBRANCH   9  13
BRANCH   3  19
ATOM     17  O   UNL     1      32.739 -12.288 -24.720  0.00  0.00    -0.270 OA
ATOM     18  N   UNL     1      33.457 -10.936 -22.941  0.00  0.00    -0.280 N 
ATOM     19  C   UNL     1      33.184 -12.160 -23.567  0.00  0.00    +0.249 C 
ATOM     20  H   UNL     1      33.807 -10.994 -22.023  0.00  0.00    +0.155 HD
BRANCH  18  24
ATOM     21  C   UNL     1      32.076  -7.563 -23.522  0.00  0.00    +0.140 C 
ATOM     22  C   UNL     1      32.236  -8.851 -23.014  0.00  0.00    +0.052 C 
ATOM     23  C   UNL     1      32.977  -7.069 -24.466  0.00  0.00    +0.037 C 
ATOM     24  C   UNL     1      33.295  -9.627 -23.456  0.00  0.00    +0.054 C 
ATOM     25  C   UNL     1      34.037  -7.864 -24.901  0.00  0.00    +0.004 C 
ATOM     26  C   UNL     1      34.198  -9.152 -24.393  0.00  0.00    +0.015 C 
BRANCH  21  27
ATOM     27  O   UNL     1      31.042  -6.787 -23.099  0.00  0.00    -0.479 OA
BRANCH  27  28
ATOM     28  C   UNL     1      31.361  -5.481 -22.634  0.00  0.00    +0.166 C 
ATOM     29  C   UNL     1      31.931  -5.571 -21.226  0.00  0.00    +0.044 C 
ATOM     30  C   UNL     1      30.093  -4.664 -22.439  0.00  0.00    +0.044 C 
ATOM     31  C   UNL     1      30.706  -5.723 -20.325  0.00  0.00    +0.004 C 
ATOM     32  C   UNL     1      29.521  -5.170 -21.117  0.00  0.00    +0.004 C 
ENDBRANCH  27  28
ENDBRANCH  21  27
ENDBRANCH  18  24
ENDBRANCH   3  19
TORSDOF 5
ENDMDL
MODEL 6
REMARK VINA RESULT:     -11.1      4.759     11.803
REMARK  Name = 447734
REMARK  5 active torsions:
REMARK  status: ('A' for Active; 'I' for Inactive)
REMARK    1  A    between atoms: C_3  and  C_19
REMARK    2  A    between atoms: C_9  and  C_13
REMARK    3  A    between atoms: N_18  and  C_24
REMARK    4  A    between atoms: C_21  and  O_27
REMARK    5  A    between atoms: O_27  and  C_28
REMARK                            x       y       z     vdW  Elec       q    Type
REMARK                         _______ _______ _______ _____ _____    ______ ____
ROOT
ATOM      1  C   UNL     1      35.080 -19.338 -20.342  0.00  0.00    +0.000 C 
ATOM      2  C   UNL     1      33.735 -19.358 -20.782  0.00  0.00    +0.000 C 
ATOM      3  C   UNL     1      34.509 -20.895 -18.563  0.00  0.00    +0.054 C 
ATOM      4  C   UNL     1      35.450 -20.112 -19.231  0.00  0.00    +0.005 C 
ATOM      5  C   UNL     1      32.800 -20.151 -20.099  0.00  0.00    +0.000 C 
ATOM      6  C   UNL     1      33.186 -20.914 -18.996  0.00  0.00    +0.005 C 
ATOM      7  C   UNL     1      33.365 -18.583 -21.894  0.00  0.00    +0.003 C 
ATOM      8  C   UNL     1      36.015 -18.543 -21.027  0.00  0.00    +0.000 C 
ATOM      9  C   UNL     1      34.307 -17.800 -22.563  0.00  0.00    +0.031 C 
ATOM     10  C   UNL     1      35.629 -17.781 -22.130  0.00  0.00    +0.003 C 
ENDROOT
BRANCH   9  13
ATOM     11  N   UNL     1      34.517 -15.784 -23.996  0.00  0.00    -0.343 N 
ATOM     12  N   UNL     1      32.943 -17.433 -24.507  0.00  0.00    -0.285 NA
ATOM     13  C   UNL     1      33.907 -17.004 -23.712  0.00  0.00    +0.117 C 
ATOM     14  H   UNL     1      34.231 -15.261 -24.780  0.00  0.00    +0.144 HD
ATOM     15  H   UNL     1      35.236 -15.445 -23.413  0.00  0.00    +0.144 HD
ATOM     16  H   UNL     1      32.671 -16.896 -25.286  0.00  0.00    +0.188 HD
ENDBRANCH   9  13
BRANCH   3  19
ATOM     17  O   UNL     1      36.110 -21.956 -17.252  0.00  0.00    -0.270 OA
ATOM     18  N   UNL     1      33.874 -22.079 -16.549  0.00  0.00    -0.280 N 
ATOM     19  C   UNL     1      34.908 -21.691 -17.413  0.00  0.00    +0.249 C 
ATOM     20  H   UNL     1      32.969 -21.794 -16.810  0.00  0.00    +0.155 HD
BRANCH  18  24
ATOM     21  C   UNL     1      32.904 -24.142 -13.647  0.00  0.00    +0.140 C 
ATOM     22  C   UNL     1      32.817 -23.406 -14.828  0.00  0.00    +0.052 C 
ATOM     23  C   UNL     1      34.135 -24.292 -13.007  0.00  0.00    +0.037 C 
ATOM     24  C   UNL     1      33.962 -22.829 -15.351  0.00  0.00    +0.054 C 
ATOM     25  C   UNL     1      35.278 -23.704 -13.548  0.00  0.00    +0.004 C 
ATOM     26  C   UNL     1      35.191 -22.967 -14.728  0.00  0.00    +0.015 C 
BRANCH  21  27
ATOM     27  O   UNL     1      31.789 -24.716 -13.119  0.00  0.00    -0.479 OA
BRANCH  27  28
ATOM     28  C   UNL     1      30.767 -23.840 -12.658  0.00  0.00    +0.166 C 
ATOM     29  C   UNL     1      29.542 -24.654 -12.268  0.00  0.00    +0.044 C 
ATOM     30  C   UNL     1      30.256 -22.975 -13.799  0.00  0.00    +0.044 C 
ATOM     31  C   UNL     1      28.848 -24.960 -13.595  0.00  0.00    +0.004 C 
ATOM     32  C   UNL     1      29.330 -23.901 -14.585  0.00  0.00    +0.004 C 
ENDBRANCH  27  28
ENDBRANCH  21  27
ENDBRANCH  18  24
ENDBRANCH   3  19
TORSDOF 5
ENDMDL
MODEL 7
REMARK VINA RESULT:     -11.0      2.280      4.047
REMARK  Name = 447734
REMARK  5 active torsions:
REMARK  status: ('A' for Active; 'I' for Inactive)
REMARK    1  A    between atoms: C_3  and  C_19
REMARK    2  A    between atoms: C_9  and  C_13
REMARK    3  A    between atoms: N_18  and  C_24
REMARK    4  A    between atoms: C_21  and  O_27
REMARK    5  A    between atoms: O_27  and  C_28
REMARK                            x       y       z     vdW  Elec       q    Type
REMARK                         _______ _______ _______ _____ _____    ______ ____
ROOT
ATOM      1  C   UNL     1      33.775 -21.930 -17.383  0.00  0.00    +0.000 C 
ATOM      2  C   UNL     1      34.835 -22.055 -16.454  0.00  0.00    +0.000 C 
ATOM      3  C   UNL     1      35.167 -20.483 -18.757  0.00  0.00    +0.054 C 
ATOM      4  C   UNL     1      33.957 -21.139 -18.529  0.00  0.00    +0.005 C 
ATOM      5  C   UNL     1      36.045 -21.388 -16.698  0.00  0.00    +0.000 C 
ATOM      6  C   UNL     1      36.209 -20.607 -17.842  0.00  0.00    +0.005 C 
ATOM      7  C   UNL     1      34.652 -22.846 -15.307  0.00  0.00    +0.003 C 
ATOM      8  C   UNL     1      32.564 -22.598 -17.138  0.00  0.00    +0.000 C 
ATOM      9  C   UNL     1      33.443 -23.504 -15.080  0.00  0.00    +0.031 C 
ATOM     10  C   UNL     1      32.400 -23.380 -15.995  0.00  0.00    +0.003 C 
ENDROOT
BRANCH   9  13
ATOM     11  N   UNL     1      32.029 -24.437 -13.265  0.00  0.00    -0.343 N 
ATOM     12  N   UNL     1      34.304 -24.958 -13.373  0.00  0.00    -0.285 NA
ATOM     13  C   UNL     1      33.270 -24.318 -13.888  0.00  0.00    +0.117 C 
ATOM     14  H   UNL     1      31.934 -24.995 -12.459  0.00  0.00    +0.144 HD
ATOM     15  H   UNL     1      31.246 -23.965 -13.632  0.00  0.00    +0.144 HD
ATOM     16  H   UNL     1      34.190 -25.511 -12.566  0.00  0.00    +0.188 HD
ENDBRANCH   9  13
BRANCH   3  19
ATOM     17  O   UNL     1      36.489 -19.430 -20.356  0.00  0.00    -0.270 OA
ATOM     18  N   UNL     1      34.160 -19.227 -20.564  0.00  0.00    -0.280 N 
ATOM     19  C   UNL     1      35.339 -19.667 -19.948  0.00  0.00    +0.249 C 
ATOM     20  H   UNL     1      33.322 -19.494 -20.124  0.00  0.00    +0.155 HD
BRANCH  18  24
ATOM     21  C   UNL     1      33.964 -16.300 -22.805  0.00  0.00    +0.140 C 
ATOM     22  C   UNL     1      34.107 -17.068 -21.650  0.00  0.00    +0.052 C 
ATOM     23  C   UNL     1      33.734 -16.923 -24.032  0.00  0.00    +0.037 C 
ATOM     24  C   UNL     1      34.017 -18.447 -21.738  0.00  0.00    +0.054 C 
ATOM     25  C   UNL     1      33.646 -18.313 -24.103  0.00  0.00    +0.004 C 
ATOM     26  C   UNL     1      33.788 -19.081 -22.948  0.00  0.00    +0.015 C 
BRANCH  21  27
ATOM     27  O   UNL     1      34.050 -14.944 -22.736  0.00  0.00    -0.479 OA
BRANCH  27  28
ATOM     28  C   UNL     1      32.850 -14.233 -22.461  0.00  0.00    +0.166 C 
ATOM     29  C   UNL     1      32.114 -13.959 -23.764  0.00  0.00    +0.044 C 
ATOM     30  C   UNL     1      33.167 -12.838 -21.946  0.00  0.00    +0.044 C 
ATOM     31  C   UNL     1      32.834 -12.751 -24.363  0.00  0.00    +0.004 C 
ATOM     32  C   UNL     1      33.535 -12.050 -23.200  0.00  0.00    +0.004 C 
ENDBRANCH  27  28
ENDBRANCH  21  27
ENDBRANCH  18  24
ENDBRANCH   3  19
TORSDOF 5
ENDMDL
MODEL 8
REMARK VINA RESULT:     -11.0      4.443     11.050
REMARK  Name = 447734
REMARK  5 active torsions:
REMARK  status: ('A' for Active; 'I' for Inactive)
REMARK    1  A    between atoms: C_3  and  C_19
REMARK    2  A    between atoms: C_9  and  C_13
REMARK    3  A    between atoms: N_18  and  C_24
REMARK    4  A    between atoms: C_21  and  O_27
REMARK    5  A    between atoms: O_27  and  C_28
REMARK                            x       y       z     vdW  Elec       q    Type
REMARK                         _______ _______ _______ _____ _____    ______ ____
ROOT
ATOM      1  C   UNL     1      30.920  -8.615 -21.681  0.00  0.00    +0.000 C 
ATOM      2  C   UNL     1      30.678  -8.154 -20.366  0.00  0.00    +0.000 C 
ATOM      3  C   UNL     1      31.288 -10.858 -20.816  0.00  0.00    +0.054 C 
ATOM      4  C   UNL     1      31.224  -9.970 -21.889  0.00  0.00    +0.005 C 
ATOM      5  C   UNL     1      30.747  -9.061 -19.296  0.00  0.00    +0.000 C 
ATOM      6  C   UNL     1      31.050 -10.404 -19.521  0.00  0.00    +0.005 C 
ATOM      7  C   UNL     1      30.374  -6.798 -20.158  0.00  0.00    +0.003 C 
ATOM      8  C   UNL     1      30.851  -7.706 -22.751  0.00  0.00    +0.000 C 
ATOM      9  C   UNL     1      30.308  -5.910 -21.232  0.00  0.00    +0.031 C 
ATOM     10  C   UNL     1      30.547  -6.364 -22.526  0.00  0.00    +0.003 C 
ENDROOT
BRANCH   9  13
ATOM     11  N   UNL     1      30.893  -3.499 -21.329  0.00  0.00    -0.343 N 
ATOM     12  N   UNL     1      28.833  -4.177 -20.460  0.00  0.00    -0.285 NA
ATOM     13  C   UNL     1      29.992  -4.510 -20.999  0.00  0.00    +0.117 C 
ATOM     14  H   UNL     1      30.658  -2.557 -21.164  0.00  0.00    +0.144 HD
ATOM     15  H   UNL     1      31.764  -3.727 -21.729  0.00  0.00    +0.144 HD
ATOM     16  H   UNL     1      28.616  -3.230 -20.303  0.00  0.00    +0.188 HD
ENDBRANCH   9  13
BRANCH   3  19
ATOM     17  O   UNL     1      31.177 -13.113 -20.255  0.00  0.00    -0.270 OA
ATOM     18  N   UNL     1      32.369 -12.531 -22.191  0.00  0.00    -0.280 N 
ATOM     19  C   UNL     1      31.606 -12.258 -21.047  0.00  0.00    +0.249 C 
ATOM     20  H   UNL     1      32.637 -11.748 -22.723  0.00  0.00    +0.155 HD
BRANCH  18  24
ATOM     21  C   UNL     1      33.907 -15.884 -22.311  0.00  0.00    +0.140 C 
ATOM     22  C   UNL     1      33.476 -14.649 -21.829  0.00  0.00    +0.052 C 
ATOM     23  C   UNL     1      33.660 -16.239 -23.637  0.00  0.00    +0.037 C 
ATOM     24  C   UNL     1      32.805 -13.787 -22.680  0.00  0.00    +0.054 C 
ATOM     25  C   UNL     1      32.984 -15.359 -24.481  0.00  0.00    +0.004 C 
ATOM     26  C   UNL     1      32.553 -14.124 -23.999  0.00  0.00    +0.015 C 
BRANCH  21  27
ATOM     27  O   UNL     1      34.568 -16.743 -21.488  0.00  0.00    -0.479 OA
BRANCH  27  28
ATOM     28  C   UNL     1      35.030 -17.960 -22.061  0.00  0.00    +0.166 C 
ATOM     29  C   UNL     1      34.083 -19.089 -21.681  0.00  0.00    +0.044 C 
ATOM     30  C   UNL     1      36.342 -18.383 -21.420  0.00  0.00    +0.044 C 
ATOM     31  C   UNL     1      34.488 -19.465 -20.256  0.00  0.00    +0.004 C 
ATOM     32  C   UNL     1      35.928 -18.984 -20.078  0.00  0.00    +0.004 C 
ENDBRANCH  27  28
ENDBRANCH  21  27
ENDBRANCH  18  24
ENDBRANCH   3  19
TORSDOF 5
ENDMDL
MODEL 9
REMARK VINA RESULT:     -11.0      3.889     10.797
REMARK  Name = 447734
REMARK  5 active torsions:
REMARK  status: ('A' for Active; 'I' for Inactive)
REMARK    1  A    between atoms: C_3  and  C_19
REMARK    2  A    between atoms: C_9  and  C_13
REMARK    3  A    between atoms: N_18  and  C_24
REMARK    4  A    between atoms: C_21  and  O_27
REMARK    5  A    between atoms: O_27  and  C_28
REMARK                            x       y       z     vdW  Elec       q    Type
REMARK                         _______ _______ _______ _____ _____    ______ ____
ROOT
ATOM      1  C   UNL     1      31.816  -8.795 -21.610  0.00  0.00    +0.000 C 
ATOM      2  C   UNL     1      32.488  -7.664 -22.132  0.00  0.00    +0.000 C 
ATOM      3  C   UNL     1      32.925 -10.200 -23.257  0.00  0.00    +0.054 C 
ATOM      4  C   UNL     1      32.045 -10.055 -22.184  0.00  0.00    +0.005 C 
ATOM      5  C   UNL     1      33.370  -7.827 -23.212  0.00  0.00    +0.000 C 
ATOM      6  C   UNL     1      33.586  -9.087 -23.770  0.00  0.00    +0.005 C 
ATOM      7  C   UNL     1      32.258  -6.402 -21.557  0.00  0.00    +0.003 C 
ATOM      8  C   UNL     1      30.933  -8.631 -20.529  0.00  0.00    +0.000 C 
ATOM      9  C   UNL     1      31.379  -6.258 -20.484  0.00  0.00    +0.031 C 
ATOM     10  C   UNL     1      30.718  -7.371 -19.971  0.00  0.00    +0.003 C 
ENDROOT
BRANCH   9  13
ATOM     11  N   UNL     1      30.517  -3.934 -20.617  0.00  0.00    -0.343 N 
ATOM     12  N   UNL     1      31.559  -4.694 -18.669  0.00  0.00    -0.285 NA
ATOM     13  C   UNL     1      31.153  -4.946 -19.900  0.00  0.00    +0.117 C 
ATOM     14  H   UNL     1      30.373  -3.052 -20.203  0.00  0.00    +0.144 HD
ATOM     15  H   UNL     1      30.209  -4.101 -21.538  0.00  0.00    +0.144 HD
ATOM     16  H   UNL     1      31.406  -3.806 -18.272  0.00  0.00    +0.188 HD
ENDBRANCH   9  13
BRANCH   3  19
ATOM     17  O   UNL     1      33.473 -11.593 -25.038  0.00  0.00    -0.270 OA
ATOM     18  N   UNL     1      33.004 -12.602 -22.972  0.00  0.00    -0.280 N 
ATOM     19  C   UNL     1      33.151 -11.512 -23.841  0.00  0.00    +0.249 C 
ATOM     20  H   UNL     1      32.743 -12.381 -22.049  0.00  0.00    +0.155 HD
BRANCH  18  24
ATOM     21  C   UNL     1      33.983 -16.139 -22.581  0.00  0.00    +0.140 C 
ATOM     22  C   UNL     1      33.806 -14.784 -22.308  0.00  0.00    +0.052 C 
ATOM     23  C   UNL     1      33.533 -16.672 -23.790  0.00  0.00    +0.037 C 
ATOM     24  C   UNL     1      33.182 -13.980 -23.248  0.00  0.00    +0.054 C 
ATOM     25  C   UNL     1      32.908 -15.848 -24.725  0.00  0.00    +0.004 C 
ATOM     26  C   UNL     1      32.731 -14.492 -24.453  0.00  0.00    +0.015 C 
BRANCH  21  27
ATOM     27  O   UNL     1      34.593 -16.944 -21.669  0.00  0.00    -0.479 OA
BRANCH  27  28
ATOM     28  C   UNL     1      35.087 -18.193 -22.136  0.00  0.00    +0.166 C 
ATOM     29  C   UNL     1      34.147 -19.305 -21.696  0.00  0.00    +0.044 C 
ATOM     30  C   UNL     1      36.389 -18.544 -21.432  0.00  0.00    +0.044 C 
ATOM     31  C   UNL     1      34.521 -19.566 -20.236  0.00  0.00    +0.004 C 
ATOM     32  C   UNL     1      35.948 -19.049 -20.060  0.00  0.00    +0.004 C 
ENDBRANCH  27  28
ENDBRANCH  21  27
ENDBRANCH  18  24
ENDBRANCH   3  19
TORSDOF 5
ENDMDL
