MODEL 1
REMARK VINA RESULT:     -12.3      0.000      0.000
REMARK  Name = 5326868
REMARK  6 active torsions:
REMARK  status: ('A' for Active; 'I' for Inactive)
REMARK    1  A    between atoms: C_2  and  C_28
REMARK    2  A    between atoms: C_7  and  N_12
REMARK    3  A    between atoms: C_13  and  C_18
REMARK    4  A    between atoms: C_16  and  N_23
REMARK    5  A    between atoms: C_28  and  C_29
REMARK    6  A    between atoms: C_29  and  C_31
REMARK                            x       y       z     vdW  Elec       q    Type
REMARK                         _______ _______ _______ _____ _____    ______ ____
ROOT
ATOM      1  N   UNL     1      33.879 -17.202 -24.301  0.00  0.00    -0.312 N 
ATOM      2  C   UNL     1      34.338 -17.145 -22.130  0.00  0.00    -0.006 C 
ATOM      3  C   UNL     1      33.684 -15.930 -22.479  0.00  0.00    +0.012 C 
ATOM      4  C   UNL     1      33.408 -15.992 -23.846  0.00  0.00    +0.048 C 
ATOM      5  C   UNL     1      34.443 -17.907 -23.271  0.00  0.00    +0.058 C 
ATOM      6  C   UNL     1      33.301 -14.780 -21.761  0.00  0.00    +0.016 C 
ATOM      7  C   UNL     1      32.657 -13.737 -22.435  0.00  0.00    +0.051 C 
ATOM      8  C   UNL     1      32.764 -14.956 -24.534  0.00  0.00    +0.016 C 
ATOM      9  C   UNL     1      32.393 -13.826 -23.801  0.00  0.00    +0.016 C 
ATOM     10  H   UNL     1      33.820 -17.516 -25.232  0.00  0.00    +0.152 HD
ENDROOT
BRANCH   7  12
ATOM     11  O   UNL     1      30.858 -13.440 -20.055  0.00  0.00    -0.270 OA
ATOM     12  N   UNL     1      32.274 -12.593 -21.730  0.00  0.00    -0.280 N 
ATOM     13  C   UNL     1      31.426 -12.510 -20.619  0.00  0.00    +0.250 C 
ATOM     14  H   UNL     1      32.646 -11.742 -22.055  0.00  0.00    +0.155 HD
BRANCH  13  18
ATOM     15  F   UNL     1      30.767  -9.446 -16.937  0.00  0.00    -0.204 F 
ATOM     16  C   UNL     1      30.848  -8.810 -20.518  0.00  0.00    +0.050 C 
ATOM     17  C   UNL     1      31.071 -10.099 -21.004  0.00  0.00    +0.019 C 
ATOM     18  C   UNL     1      31.186 -11.137 -20.103  0.00  0.00    +0.057 C 
ATOM     19  C   UNL     1      30.745  -8.589 -19.145  0.00  0.00    +0.044 C 
ATOM     20  C   UNL     1      31.089 -10.946 -18.741  0.00  0.00    +0.034 C 
ATOM     21  C   UNL     1      30.865  -9.658 -18.256  0.00  0.00    +0.142 C 
BRANCH  16  23
ATOM     22  O   UNL     1      30.744  -5.510 -23.123  0.00  0.00    -0.350 OA
ATOM     23  N   UNL     1      30.728  -7.738 -21.409  0.00  0.00    -0.303 N 
ATOM     24  C   UNL     1      31.263  -7.855 -22.770  0.00  0.00    +0.123 C 
ATOM     25  C   UNL     1      30.714  -6.376 -20.857  0.00  0.00    +0.123 C 
ATOM     26  C   UNL     1      30.602  -6.819 -23.674  0.00  0.00    +0.164 C 
ATOM     27  C   UNL     1      30.080  -5.420 -21.862  0.00  0.00    +0.164 C 
ENDBRANCH  16  23
ENDBRANCH  13  18
ENDBRANCH   7  12
BRANCH   2  28
ATOM     28  C   UNL     1      34.820 -17.530 -20.788  0.00  0.00    +0.032 C 
BRANCH  28  29
ATOM     29  C   UNL     1      35.277 -19.000 -20.668  0.00  0.00    +0.031 C 
BRANCH  29  31
ATOM     30  N   UNL     1      32.448 -21.489 -18.624  0.00  0.00    -0.242 NA
ATOM     31  C   UNL     1      34.281 -19.876 -19.949  0.00  0.00    -0.019 C 
ATOM     32  C   UNL     1      34.736 -20.871 -19.106  0.00  0.00    +0.016 C 
ATOM     33  C   UNL     1      32.929 -19.671 -20.145  0.00  0.00    +0.016 C 
ATOM     34  C   UNL     1      33.782 -21.648 -18.468  0.00  0.00    +0.099 C 
ATOM     35  C   UNL     1      32.055 -20.502 -19.461  0.00  0.00    +0.099 C 
ENDBRANCH  29  31
ENDBRANCH  28  29
ENDBRANCH   2  28
TORSDOF 6
ENDMDL
MODEL 2
REMARK VINA RESULT:     -11.9      4.417     11.346
REMARK  Name = 5326868
REMARK  6 active torsions:
REMARK  status: ('A' for Active; 'I' for Inactive)
REMARK    1  A    between atoms: C_2  and  C_28
REMARK    2  A    between atoms: C_7  and  N_12
REMARK    3  A    between atoms: C_13  and  C_18
REMARK    4  A    between atoms: C_16  and  N_23
REMARK    5  A    between atoms: C_28  and  C_29
REMARK    6  A    between atoms: C_29  and  C_31
REMARK                            x       y       z     vdW  Elec       q    Type
REMARK                         _______ _______ _______ _____ _____    ______ ____
ROOT
ATOM      1  N   UNL     1      34.168 -16.310 -23.878  0.00  0.00    -0.312 N 
ATOM      2  C   UNL     1      33.958 -15.368 -21.878  0.00  0.00    -0.006 C 
ATOM      3  C   UNL     1      34.003 -16.779 -21.703  0.00  0.00    +0.012 C 
ATOM      4  C   UNL     1      34.135 -17.346 -22.972  0.00  0.00    +0.048 C 
ATOM      5  C   UNL     1      34.062 -15.110 -23.226  0.00  0.00    +0.058 C 
ATOM      6  C   UNL     1      33.942 -17.632 -20.582  0.00  0.00    +0.016 C 
ATOM      7  C   UNL     1      34.018 -19.016 -20.773  0.00  0.00    +0.051 C 
ATOM      8  C   UNL     1      34.211 -18.729 -23.178  0.00  0.00    +0.016 C 
ATOM      9  C   UNL     1      34.150 -19.554 -22.051  0.00  0.00    +0.016 C 
ATOM     10  H   UNL     1      34.256 -16.415 -24.852  0.00  0.00    +0.152 HD
ENDROOT
BRANCH   7  12
ATOM     11  O   UNL     1      31.751 -20.677 -19.728  0.00  0.00    -0.270 OA
ATOM     12  N   UNL     1      33.958 -19.868 -19.668  0.00  0.00    -0.280 N 
ATOM     13  C   UNL     1      32.867 -20.624 -19.221  0.00  0.00    +0.250 C 
ATOM     14  H   UNL     1      34.783 -19.945 -19.137  0.00  0.00    +0.155 HD
BRANCH  13  18
ATOM     15  F   UNL     1      35.880 -22.565 -15.975  0.00  0.00    -0.204 F 
ATOM     16  C   UNL     1      32.247 -22.675 -16.147  0.00  0.00    +0.050 C 
ATOM     17  C   UNL     1      32.022 -21.930 -17.306  0.00  0.00    +0.019 C 
ATOM     18  C   UNL     1      33.106 -21.419 -17.988  0.00  0.00    +0.057 C 
ATOM     19  C   UNL     1      33.550 -22.889 -15.698  0.00  0.00    +0.044 C 
ATOM     20  C   UNL     1      34.404 -21.616 -17.565  0.00  0.00    +0.034 C 
ATOM     21  C   UNL     1      34.629 -22.360 -16.407  0.00  0.00    +0.142 C 
BRANCH  16  23
ATOM     22  O   UNL     1      29.015 -24.050 -13.836  0.00  0.00    -0.350 OA
ATOM     23  N   UNL     1      31.166 -23.205 -15.435  0.00  0.00    -0.303 N 
ATOM     24  C   UNL     1      29.804 -22.740 -15.720  0.00  0.00    +0.123 C 
ATOM     25  C   UNL     1      31.397 -23.654 -14.056  0.00  0.00    +0.123 C 
ATOM     26  C   UNL     1      28.794 -23.766 -15.217  0.00  0.00    +0.164 C 
ATOM     27  C   UNL     1      30.304 -24.633 -13.643  0.00  0.00    +0.164 C 
ENDBRANCH  16  23
ENDBRANCH  13  18
ENDBRANCH   7  12
BRANCH   2  28
ATOM     28  C   UNL     1      33.823 -14.354 -20.813  0.00  0.00    +0.032 C 
BRANCH  28  29
ATOM     29  C   UNL     1      32.384 -14.166 -20.285  0.00  0.00    +0.031 C 
BRANCH  29  31
ATOM     30  N   UNL     1      30.877 -10.195 -20.864  0.00  0.00    -0.242 NA
ATOM     31  C   UNL     1      31.854 -12.768 -20.488  0.00  0.00    -0.019 C 
ATOM     32  C   UNL     1      32.071 -12.127 -21.693  0.00  0.00    +0.016 C 
ATOM     33  C   UNL     1      31.159 -12.149 -19.468  0.00  0.00    +0.016 C 
ATOM     34  C   UNL     1      31.563 -10.845 -21.831  0.00  0.00    +0.099 C 
ATOM     35  C   UNL     1      30.692 -10.866 -19.704  0.00  0.00    +0.099 C 
ENDBRANCH  29  31
ENDBRANCH  28  29
ENDBRANCH   2  28
TORSDOF 6
ENDMDL
MODEL 3
REMARK VINA RESULT:     -11.6      2.667      3.586
REMARK  Name = 5326868
REMARK  6 active torsions:
REMARK  status: ('A' for Active; 'I' for Inactive)
REMARK    1  A    between atoms: C_2  and  C_28
REMARK    2  A    between atoms: C_7  and  N_12
REMARK    3  A    between atoms: C_13  and  C_18
REMARK    4  A    between atoms: C_16  and  N_23
REMARK    5  A    between atoms: C_28  and  C_29
REMARK    6  A    between atoms: C_29  and  C_31
REMARK                            x       y       z     vdW  Elec       q    Type
REMARK                         _______ _______ _______ _____ _____    ______ ____
ROOT
ATOM      1  N   UNL     1      32.891 -16.750 -24.741  0.00  0.00    -0.312 N 
ATOM      2  C   UNL     1      33.785 -16.281 -22.764  0.00  0.00    -0.006 C 
ATOM      3  C   UNL     1      33.369 -15.060 -23.366  0.00  0.00    +0.012 C 
ATOM      4  C   UNL     1      32.813 -15.382 -24.605  0.00  0.00    +0.048 C 
ATOM      5  C   UNL     1      33.477 -17.302 -23.633  0.00  0.00    +0.058 C 
ATOM      6  C   UNL     1      33.416 -13.706 -22.974  0.00  0.00    +0.016 C 
ATOM      7  C   UNL     1      32.903 -12.729 -23.834  0.00  0.00    +0.051 C 
ATOM      8  C   UNL     1      32.297 -14.415 -25.476  0.00  0.00    +0.016 C 
ATOM      9  C   UNL     1      32.352 -13.080 -25.066  0.00  0.00    +0.016 C 
ATOM     10  H   UNL     1      32.572 -17.257 -25.522  0.00  0.00    +0.152 HD
ENDROOT
BRANCH   7  12
ATOM     11  O   UNL     1      34.379 -10.418 -25.047  0.00  0.00    -0.270 OA
ATOM     12  N   UNL     1      32.945 -11.386 -23.454  0.00  0.00    -0.280 N 
ATOM     13  C   UNL     1      33.656 -10.342 -24.059  0.00  0.00    +0.250 C 
ATOM     14  H   UNL     1      32.411 -11.144 -22.664  0.00  0.00    +0.155 HD
BRANCH  13  18
ATOM     15  F   UNL     1      34.628  -5.608 -23.878  0.00  0.00    -0.204 F 
ATOM     16  C   UNL     1      32.643  -7.672 -21.634  0.00  0.00    +0.050 C 
ATOM     17  C   UNL     1      32.769  -8.917 -22.250  0.00  0.00    +0.019 C 
ATOM     18  C   UNL     1      33.522  -9.016 -23.401  0.00  0.00    +0.057 C 
ATOM     19  C   UNL     1      33.271  -6.554 -22.184  0.00  0.00    +0.044 C 
ATOM     20  C   UNL     1      34.152  -7.927 -23.965  0.00  0.00    +0.034 C 
ATOM     21  C   UNL     1      34.026  -6.682 -23.350  0.00  0.00    +0.142 C 
BRANCH  16  23
ATOM     22  O   UNL     1      30.590  -7.357 -17.977  0.00  0.00    -0.350 OA
ATOM     23  N   UNL     1      31.885  -7.543 -20.465  0.00  0.00    -0.303 N 
ATOM     24  C   UNL     1      31.921  -6.290 -19.704  0.00  0.00    +0.123 C 
ATOM     25  C   UNL     1      31.628  -8.751 -19.669  0.00  0.00    +0.123 C 
ATOM     26  C   UNL     1      30.693  -6.198 -18.804  0.00  0.00    +0.164 C 
ATOM     27  C   UNL     1      30.414  -8.529 -18.773  0.00  0.00    +0.164 C 
ENDBRANCH  16  23
ENDBRANCH  13  18
ENDBRANCH   7  12
BRANCH   2  28
ATOM     28  C   UNL     1      34.430 -16.435 -21.445  0.00  0.00    +0.032 C 
BRANCH  28  29
ATOM     29  C   UNL     1      35.436 -17.604 -21.357  0.00  0.00    +0.031 C 
BRANCH  29  31
ATOM     30  N   UNL     1      33.978 -20.923 -19.071  0.00  0.00    -0.242 NA
ATOM     31  C   UNL     1      34.923 -18.772 -20.552  0.00  0.00    -0.019 C 
ATOM     32  C   UNL     1      35.813 -19.543 -19.831  0.00  0.00    +0.016 C 
ATOM     33  C   UNL     1      33.571 -19.054 -20.549  0.00  0.00    +0.016 C 
ATOM     34  C   UNL     1      35.292 -20.605 -19.108  0.00  0.00    +0.099 C 
ATOM     35  C   UNL     1      33.149 -20.137 -19.794  0.00  0.00    +0.099 C 
ENDBRANCH  29  31
ENDBRANCH  28  29
ENDBRANCH   2  28
TORSDOF 6
ENDMDL
MODEL 4
REMARK VINA RESULT:     -11.5      4.749      9.033
REMARK  Name = 5326868
REMARK  6 active torsions:
REMARK  status: ('A' for Active; 'I' for Inactive)
REMARK    1  A    between atoms: C_2  and  C_28
REMARK    2  A    between atoms: C_7  and  N_12
REMARK    3  A    between atoms: C_13  and  C_18
REMARK    4  A    between atoms: C_16  and  N_23
REMARK    5  A    between atoms: C_28  and  C_29
REMARK    6  A    between atoms: C_29  and  C_31
REMARK                            x       y       z     vdW  Elec       q    Type
REMARK                         _______ _______ _______ _____ _____    ______ ____
ROOT
ATOM      1  N   UNL     1      35.255 -23.028 -14.635  0.00  0.00    -0.312 N 
ATOM      2  C   UNL     1      33.193 -23.172 -15.446  0.00  0.00    -0.006 C 
ATOM      3  C   UNL     1      33.974 -22.397 -16.350  0.00  0.00    +0.012 C 
ATOM      4  C   UNL     1      35.262 -22.322 -15.817  0.00  0.00    +0.048 C 
ATOM      5  C   UNL     1      34.008 -23.545 -14.403  0.00  0.00    +0.058 C 
ATOM      6  C   UNL     1      33.706 -21.750 -17.572  0.00  0.00    +0.016 C 
ATOM      7  C   UNL     1      34.735 -21.054 -18.216  0.00  0.00    +0.051 C 
ATOM      8  C   UNL     1      36.302 -21.630 -16.450  0.00  0.00    +0.016 C 
ATOM      9  C   UNL     1      36.013 -20.996 -17.662  0.00  0.00    +0.016 C 
ATOM     10  H   UNL     1      36.032 -23.144 -14.044  0.00  0.00    +0.152 HD
ENDROOT
BRANCH   7  12
ATOM     11  O   UNL     1      36.131 -18.739 -19.512  0.00  0.00    -0.270 OA
ATOM     12  N   UNL     1      34.478 -20.410 -19.428  0.00  0.00    -0.280 N 
ATOM     13  C   UNL     1      35.165 -19.326 -19.989  0.00  0.00    +0.250 C 
ATOM     14  H   UNL     1      33.721 -20.759 -19.951  0.00  0.00    +0.155 HD
BRANCH  13  18
ATOM     15  F   UNL     1      33.787 -20.143 -24.552  0.00  0.00    -0.204 F 
ATOM     16  C   UNL     1      33.820 -17.047 -22.642  0.00  0.00    +0.050 C 
ATOM     17  C   UNL     1      34.321 -17.502 -21.422  0.00  0.00    +0.019 C 
ATOM     18  C   UNL     1      34.632 -18.839 -21.289  0.00  0.00    +0.057 C 
ATOM     19  C   UNL     1      33.639 -17.939 -23.699  0.00  0.00    +0.044 C 
ATOM     20  C   UNL     1      34.462 -19.742 -22.318  0.00  0.00    +0.034 C 
ATOM     21  C   UNL     1      33.961 -19.287 -23.537  0.00  0.00    +0.142 C 
BRANCH  16  23
ATOM     22  O   UNL     1      33.118 -12.930 -23.133  0.00  0.00    -0.350 OA
ATOM     23  N   UNL     1      33.496 -15.695 -22.804  0.00  0.00    -0.303 N 
ATOM     24  C   UNL     1      33.467 -15.107 -24.148  0.00  0.00    +0.123 C 
ATOM     25  C   UNL     1      33.840 -14.765 -21.721  0.00  0.00    +0.123 C 
ATOM     26  C   UNL     1      32.636 -13.828 -24.132  0.00  0.00    +0.164 C 
ATOM     27  C   UNL     1      32.987 -13.506 -21.833  0.00  0.00    +0.164 C 
ENDBRANCH  16  23
ENDBRANCH  13  18
ENDBRANCH   7  12
BRANCH   2  28
ATOM     28  C   UNL     1      31.765 -23.518 -15.593  0.00  0.00    +0.032 C 
BRANCH  28  29
ATOM     29  C   UNL     1      30.885 -23.134 -14.383  0.00  0.00    +0.031 C 
BRANCH  29  31
ATOM     30  N   UNL     1      26.690 -23.176 -15.262  0.00  0.00    -0.242 NA
ATOM     31  C   UNL     1      29.409 -23.148 -14.693  0.00  0.00    -0.019 C 
ATOM     32  C   UNL     1      28.808 -24.329 -15.082  0.00  0.00    +0.016 C 
ATOM     33  C   UNL     1      28.679 -21.980 -14.582  0.00  0.00    +0.016 C 
ATOM     34  C   UNL     1      27.450 -24.291 -15.354  0.00  0.00    +0.099 C 
ATOM     35  C   UNL     1      27.326 -22.046 -14.877  0.00  0.00    +0.099 C 
ENDBRANCH  29  31
ENDBRANCH  28  29
ENDBRANCH   2  28
TORSDOF 6
ENDMDL
MODEL 5
REMARK VINA RESULT:     -11.0      3.098      5.391
REMARK  Name = 5326868
REMARK  6 active torsions:
REMARK  status: ('A' for Active; 'I' for Inactive)
REMARK    1  A    between atoms: C_2  and  C_28
REMARK    2  A    between atoms: C_7  and  N_12
REMARK    3  A    between atoms: C_13  and  C_18
REMARK    4  A    between atoms: C_16  and  N_23
REMARK    5  A    between atoms: C_28  and  C_29
REMARK    6  A    between atoms: C_29  and  C_31
REMARK                            x       y       z     vdW  Elec       q    Type
REMARK                         _______ _______ _______ _____ _____    ______ ____
ROOT
ATOM      1  N   UNL     1      36.097 -20.838 -19.023  0.00  0.00    -0.312 N 
ATOM      2  C   UNL     1      33.889 -20.628 -19.122  0.00  0.00    -0.006 C 
ATOM      3  C   UNL     1      34.470 -19.614 -19.934  0.00  0.00    +0.012 C 
ATOM      4  C   UNL     1      35.855 -19.768 -19.855  0.00  0.00    +0.048 C 
ATOM      5  C   UNL     1      34.915 -21.365 -18.575  0.00  0.00    +0.058 C 
ATOM      6  C   UNL     1      33.947 -18.576 -20.731  0.00  0.00    +0.016 C 
ATOM      7  C   UNL     1      34.827 -17.734 -21.418  0.00  0.00    +0.051 C 
ATOM      8  C   UNL     1      36.748 -18.933 -20.536  0.00  0.00    +0.016 C 
ATOM      9  C   UNL     1      36.206 -17.911 -21.322  0.00  0.00    +0.016 C 
ATOM     10  H   UNL     1      36.990 -21.176 -18.786  0.00  0.00    +0.152 HD
ENDROOT
BRANCH   7  12
ATOM     11  O   UNL     1      33.868 -14.998 -20.653  0.00  0.00    -0.270 OA
ATOM     12  N   UNL     1      34.317 -16.702 -22.210  0.00  0.00    -0.280 N 
ATOM     13  C   UNL     1      33.881 -15.437 -21.799  0.00  0.00    +0.250 C 
ATOM     14  H   UNL     1      34.257 -16.888 -23.175  0.00  0.00    +0.155 HD
BRANCH  13  18
ATOM     15  F   UNL     1      31.813 -14.867 -26.132  0.00  0.00    -0.204 F 
ATOM     16  C   UNL     1      32.934 -12.371 -23.734  0.00  0.00    +0.050 C 
ATOM     17  C   UNL     1      33.425 -13.192 -22.719  0.00  0.00    +0.019 C 
ATOM     18  C   UNL     1      33.360 -14.560 -22.881  0.00  0.00    +0.057 C 
ATOM     19  C   UNL     1      32.390 -12.937 -24.887  0.00  0.00    +0.044 C 
ATOM     20  C   UNL     1      32.826 -15.145 -24.010  0.00  0.00    +0.034 C 
ATOM     21  C   UNL     1      32.336 -14.324 -25.026  0.00  0.00    +0.142 C 
BRANCH  16  23
ATOM     22  O   UNL     1      33.250  -8.227 -23.092  0.00  0.00    -0.350 OA
ATOM     23  N   UNL     1      32.987 -10.980 -23.596  0.00  0.00    -0.303 N 
ATOM     24  C   UNL     1      34.126 -10.233 -24.142  0.00  0.00    +0.123 C 
ATOM     25  C   UNL     1      32.350 -10.376 -22.417  0.00  0.00    +0.123 C 
ATOM     26  C   UNL     1      33.743  -8.768 -24.318  0.00  0.00    +0.164 C 
ATOM     27  C   UNL     1      32.059  -8.904 -22.687  0.00  0.00    +0.164 C 
ENDBRANCH  16  23
ENDBRANCH  13  18
ENDBRANCH   7  12
BRANCH   2  28
ATOM     28  C   UNL     1      32.448 -20.858 -18.898  0.00  0.00    +0.032 C 
BRANCH  28  29
ATOM     29  C   UNL     1      32.085 -22.301 -18.484  0.00  0.00    +0.031 C 
BRANCH  29  31
ATOM     30  N   UNL     1      31.811 -22.823 -14.239  0.00  0.00    -0.242 NA
ATOM     31  C   UNL     1      31.989 -22.485 -16.990  0.00  0.00    -0.019 C 
ATOM     32  C   UNL     1      33.132 -22.751 -16.263  0.00  0.00    +0.016 C 
ATOM     33  C   UNL     1      30.758 -22.386 -16.371  0.00  0.00    +0.016 C 
ATOM     34  C   UNL     1      32.991 -22.911 -14.894  0.00  0.00    +0.099 C 
ATOM     35  C   UNL     1      30.722 -22.562 -14.996  0.00  0.00    +0.099 C 
ENDBRANCH  29  31
ENDBRANCH  28  29
ENDBRANCH   2  28
TORSDOF 6
ENDMDL
MODEL 6
REMARK VINA RESULT:     -10.8      3.111     10.819
REMARK  Name = 5326868
REMARK  6 active torsions:
REMARK  status: ('A' for Active; 'I' for Inactive)
REMARK    1  A    between atoms: C_2  and  C_28
REMARK    2  A    between atoms: C_7  and  N_12
REMARK    3  A    between atoms: C_13  and  C_18
REMARK    4  A    between atoms: C_16  and  N_23
REMARK    5  A    between atoms: C_28  and  C_29
REMARK    6  A    between atoms: C_29  and  C_31
REMARK                            x       y       z     vdW  Elec       q    Type
REMARK                         _______ _______ _______ _____ _____    ______ ____
ROOT
ATOM      1  N   UNL     1      30.633  -7.505 -18.387  0.00  0.00    -0.312 N 
ATOM      2  C   UNL     1      31.123  -7.080 -20.510  0.00  0.00    -0.006 C 
ATOM      3  C   UNL     1      31.187  -8.487 -20.311  0.00  0.00    +0.012 C 
ATOM      4  C   UNL     1      30.876  -8.727 -18.971  0.00  0.00    +0.048 C 
ATOM      5  C   UNL     1      30.781  -6.503 -19.309  0.00  0.00    +0.058 C 
ATOM      6  C   UNL     1      31.482  -9.584 -21.146  0.00  0.00    +0.016 C 
ATOM      7  C   UNL     1      31.453 -10.876 -20.610  0.00  0.00    +0.051 C 
ATOM      8  C   UNL     1      30.844 -10.014 -18.422  0.00  0.00    +0.016 C 
ATOM      9  C   UNL     1      31.139 -11.086 -19.269  0.00  0.00    +0.016 C 
ATOM     10  H   UNL     1      30.390  -7.370 -17.443  0.00  0.00    +0.152 HD
ENDROOT
BRANCH   7  12
ATOM     11  O   UNL     1      33.400 -11.132 -22.876  0.00  0.00    -0.270 OA
ATOM     12  N   UNL     1      31.745 -11.969 -21.430  0.00  0.00    -0.280 N 
ATOM     13  C   UNL     1      32.669 -12.034 -22.481  0.00  0.00    +0.250 C 
ATOM     14  H   UNL     1      31.239 -12.793 -21.248  0.00  0.00    +0.155 HD
BRANCH  13  18
ATOM     15  F   UNL     1      31.877 -14.735 -26.413  0.00  0.00    -0.204 F 
ATOM     16  C   UNL     1      33.323 -15.652 -23.203  0.00  0.00    +0.050 C 
ATOM     17  C   UNL     1      33.262 -14.429 -22.534  0.00  0.00    +0.019 C 
ATOM     18  C   UNL     1      32.733 -13.338 -23.192  0.00  0.00    +0.057 C 
ATOM     19  C   UNL     1      32.855 -15.755 -24.513  0.00  0.00    +0.044 C 
ATOM     20  C   UNL     1      32.264 -13.413 -24.487  0.00  0.00    +0.034 C 
ATOM     21  C   UNL     1      32.325 -14.635 -25.155  0.00  0.00    +0.142 C 
BRANCH  16  23
ATOM     22  O   UNL     1      34.698 -19.030 -21.109  0.00  0.00    -0.350 OA
ATOM     23  N   UNL     1      33.855 -16.775 -22.560  0.00  0.00    -0.303 N 
ATOM     24  C   UNL     1      33.446 -18.120 -22.978  0.00  0.00    +0.123 C 
ATOM     25  C   UNL     1      34.237 -16.649 -21.147  0.00  0.00    +0.123 C 
ATOM     26  C   UNL     1      34.480 -19.140 -22.515  0.00  0.00    +0.164 C 
ATOM     27  C   UNL     1      35.231 -17.746 -20.782  0.00  0.00    +0.164 C 
ENDBRANCH  16  23
ENDBRANCH  13  18
ENDBRANCH   7  12
BRANCH   2  28
ATOM     28  C   UNL     1      31.377  -6.358 -21.773  0.00  0.00    +0.032 C 
BRANCH  28  29
ATOM     29  C   UNL     1      32.855  -6.351 -22.221  0.00  0.00    +0.031 C 
BRANCH  29  31
ATOM     30  N   UNL     1      33.347  -5.652 -26.421  0.00  0.00    -0.242 NA
ATOM     31  C   UNL     1      33.028  -6.104 -23.700  0.00  0.00    -0.019 C 
ATOM     32  C   UNL     1      34.157  -5.450 -24.152  0.00  0.00    +0.016 C 
ATOM     33  C   UNL     1      32.055  -6.537 -24.579  0.00  0.00    +0.016 C 
ATOM     34  C   UNL     1      34.269  -5.249 -25.518  0.00  0.00    +0.099 C 
ATOM     35  C   UNL     1      32.260  -6.287 -25.927  0.00  0.00    +0.099 C 
ENDBRANCH  29  31
ENDBRANCH  28  29
ENDBRANCH   2  28
TORSDOF 6
ENDMDL
MODEL 7
REMARK VINA RESULT:     -10.7      4.376     11.345
REMARK  Name = 5326868
REMARK  6 active torsions:
REMARK  status: ('A' for Active; 'I' for Inactive)
REMARK    1  A    between atoms: C_2  and  C_28
REMARK    2  A    between atoms: C_7  and  N_12
REMARK    3  A    between atoms: C_13  and  C_18
REMARK    4  A    between atoms: C_16  and  N_23
REMARK    5  A    between atoms: C_28  and  C_29
REMARK    6  A    between atoms: C_29  and  C_31
REMARK                            x       y       z     vdW  Elec       q    Type
REMARK                         _______ _______ _______ _____ _____    ______ ____
ROOT
ATOM      1  N   UNL     1      34.452 -16.151 -23.572  0.00  0.00    -0.312 N 
ATOM      2  C   UNL     1      33.991 -15.262 -21.590  0.00  0.00    -0.006 C 
ATOM      3  C   UNL     1      33.997 -16.679 -21.453  0.00  0.00    +0.012 C 
ATOM      4  C   UNL     1      34.289 -17.211 -22.710  0.00  0.00    +0.048 C 
ATOM      5  C   UNL     1      34.273 -14.968 -22.905  0.00  0.00    +0.058 C 
ATOM      6  C   UNL     1      33.781 -17.561 -20.375  0.00  0.00    +0.016 C 
ATOM      7  C   UNL     1      33.866 -18.940 -20.596  0.00  0.00    +0.051 C 
ATOM      8  C   UNL     1      34.376 -18.588 -22.945  0.00  0.00    +0.016 C 
ATOM      9  C   UNL     1      34.159 -19.445 -21.861  0.00  0.00    +0.016 C 
ATOM     10  H   UNL     1      34.666 -16.230 -24.529  0.00  0.00    +0.152 HD
ENDROOT
BRANCH   7  12
ATOM     11  O   UNL     1      31.489 -20.648 -19.943  0.00  0.00    -0.270 OA
ATOM     12  N   UNL     1      33.653 -19.822 -19.534  0.00  0.00    -0.280 N 
ATOM     13  C   UNL     1      32.517 -20.599 -19.275  0.00  0.00    +0.250 C 
ATOM     14  H   UNL     1      34.390 -19.907 -18.888  0.00  0.00    +0.155 HD
BRANCH  13  18
ATOM     15  F   UNL     1      30.334 -23.179 -15.816  0.00  0.00    -0.204 F 
ATOM     16  C   UNL     1      33.865 -22.452 -16.310  0.00  0.00    +0.050 C 
ATOM     17  C   UNL     1      33.808 -21.676 -17.468  0.00  0.00    +0.019 C 
ATOM     18  C   UNL     1      32.578 -21.425 -18.040  0.00  0.00    +0.057 C 
ATOM     19  C   UNL     1      32.691 -22.959 -15.752  0.00  0.00    +0.044 C 
ATOM     20  C   UNL     1      31.404 -21.915 -17.509  0.00  0.00    +0.034 C 
ATOM     21  C   UNL     1      31.460 -22.691 -16.351  0.00  0.00    +0.142 C 
BRANCH  16  23
ATOM     22  O   UNL     1      37.532 -23.045 -14.340  0.00  0.00    -0.350 OA
ATOM     23  N   UNL     1      35.099 -22.722 -15.709  0.00  0.00    -0.303 N 
ATOM     24  C   UNL     1      35.153 -23.506 -14.470  0.00  0.00    +0.123 C 
ATOM     25  C   UNL     1      36.182 -21.744 -15.878  0.00  0.00    +0.123 C 
ATOM     26  C   UNL     1      36.553 -24.082 -14.286  0.00  0.00    +0.164 C 
ATOM     27  C   UNL     1      37.526 -22.415 -15.622  0.00  0.00    +0.164 C 
ENDBRANCH  16  23
ENDBRANCH  13  18
ENDBRANCH   7  12
BRANCH   2  28
ATOM     28  C   UNL     1      33.729 -14.277 -20.522  0.00  0.00    +0.032 C 
BRANCH  28  29
ATOM     29  C   UNL     1      32.233 -14.056 -20.207  0.00  0.00    +0.031 C 
BRANCH  29  31
ATOM     30  N   UNL     1      30.905 -10.063 -21.022  0.00  0.00    -0.242 NA
ATOM     31  C   UNL     1      31.765 -12.651 -20.494  0.00  0.00    -0.019 C 
ATOM     32  C   UNL     1      30.981 -11.993 -19.567  0.00  0.00    +0.016 C 
ATOM     33  C   UNL     1      32.127 -12.042 -21.680  0.00  0.00    +0.016 C 
ATOM     34  C   UNL     1      30.578 -10.704 -19.877  0.00  0.00    +0.099 C 
ATOM     35  C   UNL     1      31.673 -10.751 -21.897  0.00  0.00    +0.099 C 
ENDBRANCH  29  31
ENDBRANCH  28  29
ENDBRANCH   2  28
TORSDOF 6
ENDMDL
MODEL 8
REMARK VINA RESULT:     -10.5      4.472      8.460
REMARK  Name = 5326868
REMARK  6 active torsions:
REMARK  status: ('A' for Active; 'I' for Inactive)
REMARK    1  A    between atoms: C_2  and  C_28
REMARK    2  A    between atoms: C_7  and  N_12
REMARK    3  A    between atoms: C_13  and  C_18
REMARK    4  A    between atoms: C_16  and  N_23
REMARK    5  A    between atoms: C_28  and  C_29
REMARK    6  A    between atoms: C_29  and  C_31
REMARK                            x       y       z     vdW  Elec       q    Type
REMARK                         _______ _______ _______ _____ _____    ______ ____
ROOT
ATOM      1  N   UNL     1      31.189  -8.341 -18.405  0.00  0.00    -0.312 N 
ATOM      2  C   UNL     1      30.819  -9.938 -19.903  0.00  0.00    -0.006 C 
ATOM      3  C   UNL     1      31.242  -8.768 -20.594  0.00  0.00    +0.012 C 
ATOM      4  C   UNL     1      31.466  -7.782 -19.631  0.00  0.00    +0.048 C 
ATOM      5  C   UNL     1      30.797  -9.645 -18.559  0.00  0.00    +0.058 C 
ATOM      6  C   UNL     1      31.453  -8.452 -21.951  0.00  0.00    +0.016 C 
ATOM      7  C   UNL     1      31.883  -7.165 -22.293  0.00  0.00    +0.051 C 
ATOM      8  C   UNL     1      31.895  -6.490 -19.959  0.00  0.00    +0.016 C 
ATOM      9  C   UNL     1      32.100  -6.200 -21.311  0.00  0.00    +0.016 C 
ATOM     10  H   UNL     1      31.261  -7.873 -17.543  0.00  0.00    +0.152 HD
ENDROOT
BRANCH   7  12
ATOM     11  O   UNL     1      29.973  -6.135 -24.363  0.00  0.00    -0.270 OA
ATOM     12  N   UNL     1      32.095  -6.844 -23.636  0.00  0.00    -0.280 N 
ATOM     13  C   UNL     1      31.162  -6.364 -24.564  0.00  0.00    +0.250 C 
ATOM     14  H   UNL     1      33.011  -6.970 -23.971  0.00  0.00    +0.155 HD
BRANCH  13  18
ATOM     15  F   UNL     1      30.452  -5.888 -29.323  0.00  0.00    -0.204 F 
ATOM     16  C   UNL     1      33.534  -5.743 -27.397  0.00  0.00    +0.050 C 
ATOM     17  C   UNL     1      33.043  -5.954 -26.108  0.00  0.00    +0.019 C 
ATOM     18  C   UNL     1      31.687  -6.140 -25.937  0.00  0.00    +0.057 C 
ATOM     19  C   UNL     1      32.659  -5.720 -28.482  0.00  0.00    +0.044 C 
ATOM     20  C   UNL     1      30.801  -6.122 -26.993  0.00  0.00    +0.034 C 
ATOM     21  C   UNL     1      31.292  -5.910 -28.281  0.00  0.00    +0.142 C 
BRANCH  16  23
ATOM     22  O   UNL     1      37.698  -5.278 -27.756  0.00  0.00    -0.350 OA
ATOM     23  N   UNL     1      34.905  -5.551 -27.599  0.00  0.00    -0.303 N 
ATOM     24  C   UNL     1      35.728  -6.649 -28.118  0.00  0.00    +0.123 C 
ATOM     25  C   UNL     1      35.609  -4.600 -26.728  0.00  0.00    +0.123 C 
ATOM     26  C   UNL     1      37.017  -6.090 -28.712  0.00  0.00    +0.164 C 
ATOM     27  C   UNL     1      36.902  -4.148 -27.398  0.00  0.00    +0.164 C 
ENDBRANCH  16  23
ENDBRANCH  13  18
ENDBRANCH   7  12
BRANCH   2  28
ATOM     28  C   UNL     1      30.467 -11.237 -20.509  0.00  0.00    +0.032 C 
BRANCH  28  29
ATOM     29  C   UNL     1      31.176 -12.454 -19.874  0.00  0.00    +0.031 C 
BRANCH  29  31
ATOM     30  N   UNL     1      34.003 -14.322 -22.500  0.00  0.00    -0.242 NA
ATOM     31  C   UNL     1      32.171 -13.112 -20.798  0.00  0.00    -0.019 C 
ATOM     32  C   UNL     1      32.319 -12.636 -22.086  0.00  0.00    +0.016 C 
ATOM     33  C   UNL     1      32.919 -14.180 -20.343  0.00  0.00    +0.016 C 
ATOM     34  C   UNL     1      33.245 -13.274 -22.896  0.00  0.00    +0.099 C 
ATOM     35  C   UNL     1      33.819 -14.749 -21.230  0.00  0.00    +0.099 C 
ENDBRANCH  29  31
ENDBRANCH  28  29
ENDBRANCH   2  28
TORSDOF 6
ENDMDL
MODEL 9
REMARK VINA RESULT:     -10.4      2.126      2.695
REMARK  Name = 5326868
REMARK  6 active torsions:
REMARK  status: ('A' for Active; 'I' for Inactive)
REMARK    1  A    between atoms: C_2  and  C_28
REMARK    2  A    between atoms: C_7  and  N_12
REMARK    3  A    between atoms: C_13  and  C_18
REMARK    4  A    between atoms: C_16  and  N_23
REMARK    5  A    between atoms: C_28  and  C_29
REMARK    6  A    between atoms: C_29  and  C_31
REMARK                            x       y       z     vdW  Elec       q    Type
REMARK                         _______ _______ _______ _____ _____    ______ ____
ROOT
ATOM      1  N   UNL     1      33.415 -17.254 -24.524  0.00  0.00    -0.312 N 
ATOM      2  C   UNL     1      33.984 -16.721 -22.446  0.00  0.00    -0.006 C 
ATOM      3  C   UNL     1      33.443 -15.562 -23.070  0.00  0.00    +0.012 C 
ATOM      4  C   UNL     1      33.094 -15.924 -24.373  0.00  0.00    +0.048 C 
ATOM      5  C   UNL     1      33.953 -17.745 -23.365  0.00  0.00    +0.058 C 
ATOM      6  C   UNL     1      33.217 -14.236 -22.651  0.00  0.00    +0.016 C 
ATOM      7  C   UNL     1      32.651 -13.324 -23.548  0.00  0.00    +0.051 C 
ATOM      8  C   UNL     1      32.528 -15.022 -25.282  0.00  0.00    +0.016 C 
ATOM      9  C   UNL     1      32.312 -13.712 -24.843  0.00  0.00    +0.016 C 
ATOM     10  H   UNL     1      33.277 -17.777 -25.346  0.00  0.00    +0.152 HD
ENDROOT
BRANCH   7  12
ATOM     11  O   UNL     1      33.832 -10.756 -24.549  0.00  0.00    -0.270 OA
ATOM     12  N   UNL     1      32.424 -12.007 -23.141  0.00  0.00    -0.280 N 
ATOM     13  C   UNL     1      33.007 -10.837 -23.645  0.00  0.00    +0.250 C 
ATOM     14  H   UNL     1      31.777 -11.887 -22.409  0.00  0.00    +0.155 HD
BRANCH  13  18
ATOM     15  F   UNL     1      31.126  -8.498 -19.854  0.00  0.00    -0.204 F 
ATOM     16  C   UNL     1      32.340  -7.202 -23.029  0.00  0.00    +0.050 C 
ATOM     17  C   UNL     1      32.738  -8.384 -23.654  0.00  0.00    +0.019 C 
ATOM     18  C   UNL     1      32.581  -9.577 -22.981  0.00  0.00    +0.057 C 
ATOM     19  C   UNL     1      31.795  -7.241 -21.746  0.00  0.00    +0.044 C 
ATOM     20  C   UNL     1      32.046  -9.643 -21.711  0.00  0.00    +0.034 C 
ATOM     21  C   UNL     1      31.648  -8.462 -21.086  0.00  0.00    +0.142 C 
BRANCH  16  23
ATOM     22  O   UNL     1      32.864  -3.410 -24.770  0.00  0.00    -0.350 OA
ATOM     23  N   UNL     1      32.489  -5.978 -23.689  0.00  0.00    -0.303 N 
ATOM     24  C   UNL     1      33.808  -5.567 -24.181  0.00  0.00    +0.123 C 
ATOM     25  C   UNL     1      31.589  -4.876 -23.318  0.00  0.00    +0.123 C 
ATOM     26  C   UNL     1      33.647  -4.499 -25.258  0.00  0.00    +0.164 C 
ATOM     27  C   UNL     1      31.544  -3.847 -24.442  0.00  0.00    +0.164 C 
ENDBRANCH  16  23
ENDBRANCH  13  18
ENDBRANCH   7  12
BRANCH   2  28
ATOM     28  C   UNL     1      34.490 -16.818 -21.062  0.00  0.00    +0.032 C 
BRANCH  28  29
ATOM     29  C   UNL     1      35.443 -18.007 -20.810  0.00  0.00    +0.031 C 
BRANCH  29  31
ATOM     30  N   UNL     1      33.536 -21.325 -18.880  0.00  0.00    -0.242 NA
ATOM     31  C   UNL     1      34.772 -19.175 -20.130  0.00  0.00    -0.019 C 
ATOM     32  C   UNL     1      33.403 -19.324 -20.231  0.00  0.00    +0.016 C 
ATOM     33  C   UNL     1      35.537 -20.078 -19.417  0.00  0.00    +0.016 C 
ATOM     34  C   UNL     1      32.834 -20.413 -19.590  0.00  0.00    +0.099 C 
ATOM     35  C   UNL     1      34.873 -21.133 -18.812  0.00  0.00    +0.099 C 
ENDBRANCH  29  31
ENDBRANCH  28  29
ENDBRANCH   2  28
TORSDOF 6
ENDMDL
