MODEL 1
REMARK VINA RESULT:     -12.3      0.000      0.000
REMARK  Name = 6852141
REMARK  6 active torsions:
REMARK  status: ('A' for Active; 'I' for Inactive)
REMARK    1  A    between atoms: C_3  and  N_18
REMARK    2  A    between atoms: C_7  and  C_31
REMARK    3  A    between atoms: C_9  and  C_13
REMARK    4  A    between atoms: C_19  and  C_21
REMARK    5  A    between atoms: C_24  and  O_28
REMARK    6  A    between atoms: C_31  and  O_32
REMARK                            x       y       z     vdW  Elec       q    Type
REMARK                         _______ _______ _______ _____ _____    ______ ____
ROOT
ATOM      1  C   UNL     1      31.135 -23.410 -14.595  0.00  0.00    +0.014 C 
ATOM      2  C   UNL     1      30.979 -24.192 -13.425  0.00  0.00    +0.001 C 
ATOM      3  C   UNL     1      32.414 -22.952 -14.949  0.00  0.00    +0.051 C 
ATOM      4  C   UNL     1      30.007 -23.110 -15.375  0.00  0.00    +0.004 C 
ATOM      5  C   UNL     1      32.107 -24.493 -12.645  0.00  0.00    +0.007 C 
ATOM      6  C   UNL     1      33.524 -23.261 -14.162  0.00  0.00    +0.021 C 
ATOM      7  C   UNL     1      33.371 -24.029 -13.012  0.00  0.00    +0.077 C 
ATOM      8  C   UNL     1      29.700 -24.650 -13.071  0.00  0.00    +0.000 C 
ATOM      9  C   UNL     1      28.743 -23.574 -15.008  0.00  0.00    +0.031 C 
ATOM     10  C   UNL     1      28.590 -24.343 -13.858  0.00  0.00    +0.003 C 
ENDROOT
BRANCH   9  13
ATOM     11  N   UNL     1      27.083 -21.956 -15.898  0.00  0.00    -0.343 N 
ATOM     12  N   UNL     1      26.987 -24.206 -16.522  0.00  0.00    -0.285 NA
ATOM     13  C   UNL     1      27.586 -23.254 -15.828  0.00  0.00    +0.117 C 
ATOM     14  H   UNL     1      26.298 -21.762 -16.459  0.00  0.00    +0.144 HD
ATOM     15  H   UNL     1      27.513 -21.233 -15.385  0.00  0.00    +0.144 HD
ATOM     16  H   UNL     1      26.203 -23.992 -17.077  0.00  0.00    +0.188 HD
ENDBRANCH   9  13
BRANCH   3  18
ATOM     17  O   UNL     1      32.799 -23.772 -17.806  0.00  0.00    -0.270 OA
ATOM     18  N   UNL     1      32.629 -22.173 -16.093  0.00  0.00    -0.280 N 
ATOM     19  C   UNL     1      32.803 -22.613 -17.408  0.00  0.00    +0.249 C 
ATOM     20  H   UNL     1      32.663 -21.200 -15.954  0.00  0.00    +0.155 HD
BRANCH  19  21
ATOM     21  C   UNL     1      33.043 -21.540 -18.408  0.00  0.00    +0.053 C 
ATOM     22  C   UNL     1      34.315 -21.040 -18.599  0.00  0.00    +0.016 C 
ATOM     23  C   UNL     1      31.958 -21.073 -19.123  0.00  0.00    +0.004 C 
ATOM     24  C   UNL     1      34.511 -20.033 -19.544  0.00  0.00    +0.130 C 
ATOM     25  C   UNL     1      35.481 -21.557 -17.816  0.00  0.00    +0.034 C 
ATOM     26  C   UNL     1      32.153 -20.066 -20.067  0.00  0.00    +0.003 C 
ATOM     27  C   UNL     1      33.430 -19.547 -20.277  0.00  0.00    +0.036 C 
BRANCH  24  28
ATOM     28  O   UNL     1      35.752 -19.513 -19.764  0.00  0.00    -0.506 OA
ATOM     29  H   UNL     1      36.178 -19.016 -19.093  0.00  0.00    +0.292 HD
ENDBRANCH  24  28
ENDBRANCH  19  21
ENDBRANCH   3  18
BRANCH   7  31
ATOM     30  O   UNL     1      35.694 -24.393 -12.612  0.00  0.00    -0.245 OA
ATOM     31  C   UNL     1      34.530 -24.349 -12.192  0.00  0.00    +0.341 C 
BRANCH  31  32
ATOM     32  O   UNL     1      34.175 -24.598 -10.894  0.00  0.00    -0.441 OA
ATOM     33  C   UNL     1      34.995 -24.014  -9.876  0.00  0.00    +0.256 C 
ENDBRANCH  31  32
ENDBRANCH   7  31
TORSDOF 6
ENDMDL
MODEL 2
REMARK VINA RESULT:     -11.9      2.446      4.979
REMARK  Name = 6852141
REMARK  6 active torsions:
REMARK  status: ('A' for Active; 'I' for Inactive)
REMARK    1  A    between atoms: C_3  and  N_18
REMARK    2  A    between atoms: C_7  and  C_31
REMARK    3  A    between atoms: C_9  and  C_13
REMARK    4  A    between atoms: C_19  and  C_21
REMARK    5  A    between atoms: C_24  and  O_28
REMARK    6  A    between atoms: C_31  and  O_32
REMARK                            x       y       z     vdW  Elec       q    Type
REMARK                         _______ _______ _______ _____ _____    ______ ____
ROOT
ATOM      1  C   UNL     1      32.441 -23.156 -14.620  0.00  0.00    +0.014 C 
ATOM      2  C   UNL     1      31.901 -23.948 -13.579  0.00  0.00    +0.001 C 
ATOM      3  C   UNL     1      31.593 -22.689 -15.638  0.00  0.00    +0.051 C 
ATOM      4  C   UNL     1      33.812 -22.856 -14.614  0.00  0.00    +0.004 C 
ATOM      5  C   UNL     1      30.529 -24.249 -13.584  0.00  0.00    +0.007 C 
ATOM      6  C   UNL     1      30.232 -22.997 -15.627  0.00  0.00    +0.021 C 
ATOM      7  C   UNL     1      29.701 -23.776 -14.602  0.00  0.00    +0.077 C 
ATOM      8  C   UNL     1      32.750 -24.416 -12.562  0.00  0.00    +0.000 C 
ATOM      9  C   UNL     1      34.640 -23.329 -13.596  0.00  0.00    +0.031 C 
ATOM     10  C   UNL     1      34.110 -24.107 -12.571  0.00  0.00    +0.003 C 
ENDROOT
BRANCH   9  13
ATOM     11  N   UNL     1      36.806 -23.058 -14.780  0.00  0.00    -0.343 N 
ATOM     12  N   UNL     1      36.663 -22.663 -12.481  0.00  0.00    -0.285 NA
ATOM     13  C   UNL     1      36.058 -23.007 -13.604  0.00  0.00    +0.117 C 
ATOM     14  H   UNL     1      37.765 -22.836 -14.763  0.00  0.00    +0.144 HD
ATOM     15  H   UNL     1      36.375 -23.316 -15.627  0.00  0.00    +0.144 HD
ATOM     16  H   UNL     1      37.622 -22.445 -12.484  0.00  0.00    +0.188 HD
ENDBRANCH   9  13
BRANCH   3  18
ATOM     17  O   UNL     1      32.825 -23.494 -18.249  0.00  0.00    -0.270 OA
ATOM     18  N   UNL     1      32.070 -21.903 -16.694  0.00  0.00    -0.280 N 
ATOM     19  C   UNL     1      32.638 -22.336 -17.895  0.00  0.00    +0.249 C 
ATOM     20  H   UNL     1      31.996 -20.929 -16.576  0.00  0.00    +0.155 HD
BRANCH  19  21
ATOM     21  C   UNL     1      33.078 -21.253 -18.813  0.00  0.00    +0.053 C 
ATOM     22  C   UNL     1      34.404 -20.872 -18.853  0.00  0.00    +0.016 C 
ATOM     23  C   UNL     1      32.120 -20.656 -19.608  0.00  0.00    +0.004 C 
ATOM     24  C   UNL     1      34.788 -19.853 -19.724  0.00  0.00    +0.130 C 
ATOM     25  C   UNL     1      35.430 -21.530 -17.985  0.00  0.00    +0.034 C 
ATOM     26  C   UNL     1      32.504 -19.636 -20.479  0.00  0.00    +0.003 C 
ATOM     27  C   UNL     1      33.838 -19.236 -20.537  0.00  0.00    +0.036 C 
BRANCH  24  28
ATOM     28  O   UNL     1      36.088 -19.448 -19.796  0.00  0.00    -0.506 OA
ATOM     29  H   UNL     1      36.396 -18.761 -19.238  0.00  0.00    +0.292 HD
ENDBRANCH  24  28
ENDBRANCH  19  21
ENDBRANCH   3  18
BRANCH   7  31
ATOM     30  O   UNL     1      27.750 -24.899 -13.815  0.00  0.00    -0.245 OA
ATOM     31  C   UNL     1      28.282 -24.096 -14.594  0.00  0.00    +0.341 C 
BRANCH  31  32
ATOM     32  O   UNL     1      27.603 -23.399 -15.556  0.00  0.00    -0.441 OA
ATOM     33  C   UNL     1      26.716 -22.369 -15.104  0.00  0.00    +0.256 C 
ENDBRANCH  31  32
ENDBRANCH   7  31
TORSDOF 6
ENDMDL
MODEL 3
REMARK VINA RESULT:     -11.9      2.544      5.292
REMARK  Name = 6852141
REMARK  6 active torsions:
REMARK  status: ('A' for Active; 'I' for Inactive)
REMARK    1  A    between atoms: C_3  and  N_18
REMARK    2  A    between atoms: C_7  and  C_31
REMARK    3  A    between atoms: C_9  and  C_13
REMARK    4  A    between atoms: C_19  and  C_21
REMARK    5  A    between atoms: C_24  and  O_28
REMARK    6  A    between atoms: C_31  and  O_32
REMARK                            x       y       z     vdW  Elec       q    Type
REMARK                         _______ _______ _______ _____ _____    ______ ____
ROOT
ATOM      1  C   UNL     1      31.366 -23.158 -14.850  0.00  0.00    +0.014 C 
ATOM      2  C   UNL     1      30.355 -23.776 -14.076  0.00  0.00    +0.001 C 
ATOM      3  C   UNL     1      31.010 -22.469 -16.021  0.00  0.00    +0.051 C 
ATOM      4  C   UNL     1      32.703 -23.249 -14.431  0.00  0.00    +0.004 C 
ATOM      5  C   UNL     1      29.017 -23.686 -14.495  0.00  0.00    +0.007 C 
ATOM      6  C   UNL     1      29.676 -22.389 -16.422  0.00  0.00    +0.021 C 
ATOM      7  C   UNL     1      28.682 -22.997 -15.661  0.00  0.00    +0.077 C 
ATOM      8  C   UNL     1      30.711 -24.466 -12.906  0.00  0.00    +0.000 C 
ATOM      9  C   UNL     1      33.038 -23.938 -13.265  0.00  0.00    +0.031 C 
ATOM     10  C   UNL     1      32.044 -24.545 -12.504  0.00  0.00    +0.003 C 
ENDROOT
BRANCH   9  13
ATOM     11  N   UNL     1      35.124 -22.892 -12.416  0.00  0.00    -0.343 N 
ATOM     12  N   UNL     1      35.056 -25.183 -12.868  0.00  0.00    -0.285 NA
ATOM     13  C   UNL     1      34.428 -24.021 -12.844  0.00  0.00    +0.117 C 
ATOM     14  H   UNL     1      36.064 -22.970 -12.135  0.00  0.00    +0.144 HD
ATOM     15  H   UNL     1      34.675 -22.015 -12.394  0.00  0.00    +0.144 HD
ATOM     16  H   UNL     1      35.996 -25.241 -12.584  0.00  0.00    +0.188 HD
ENDBRANCH   9  13
BRANCH   3  18
ATOM     17  O   UNL     1      32.693 -23.566 -18.246  0.00  0.00    -0.270 OA
ATOM     18  N   UNL     1      31.967 -21.840 -16.827  0.00  0.00    -0.280 N 
ATOM     19  C   UNL     1      32.726 -22.404 -17.856  0.00  0.00    +0.249 C 
ATOM     20  H   UNL     1      32.124 -20.885 -16.646  0.00  0.00    +0.155 HD
BRANCH  19  21
ATOM     21  C   UNL     1      33.687 -21.480 -18.513  0.00  0.00    +0.053 C 
ATOM     22  C   UNL     1      33.237 -20.531 -19.408  0.00  0.00    +0.016 C 
ATOM     23  C   UNL     1      35.024 -21.611 -18.193  0.00  0.00    +0.004 C 
ATOM     24  C   UNL     1      34.162 -19.677 -20.009  0.00  0.00    +0.130 C 
ATOM     25  C   UNL     1      31.785 -20.402 -19.743  0.00  0.00    +0.034 C 
ATOM     26  C   UNL     1      35.949 -20.757 -18.794  0.00  0.00    +0.003 C 
ATOM     27  C   UNL     1      35.517 -19.791 -19.702  0.00  0.00    +0.036 C 
BRANCH  24  28
ATOM     28  O   UNL     1      33.760 -18.725 -20.897  0.00  0.00    -0.506 OA
ATOM     29  H   UNL     1      32.869 -18.703 -21.189  0.00  0.00    +0.292 HD
ENDBRANCH  24  28
ENDBRANCH  19  21
ENDBRANCH   3  18
BRANCH   7  31
ATOM     30  O   UNL     1      26.649 -23.853 -16.569  0.00  0.00    -0.245 OA
ATOM     31  C   UNL     1      27.291 -22.913 -16.082  0.00  0.00    +0.341 C 
BRANCH  31  32
ATOM     32  O   UNL     1      26.777 -21.663 -15.872  0.00  0.00    -0.441 OA
ATOM     33  C   UNL     1      25.569 -21.335 -16.568  0.00  0.00    +0.256 C 
ENDBRANCH  31  32
ENDBRANCH   7  31
TORSDOF 6
ENDMDL
MODEL 4
REMARK VINA RESULT:     -10.5      2.158      6.715
REMARK  Name = 6852141
REMARK  6 active torsions:
REMARK  status: ('A' for Active; 'I' for Inactive)
REMARK    1  A    between atoms: C_3  and  N_18
REMARK    2  A    between atoms: C_7  and  C_31
REMARK    3  A    between atoms: C_9  and  C_13
REMARK    4  A    between atoms: C_19  and  C_21
REMARK    5  A    between atoms: C_24  and  O_28
REMARK    6  A    between atoms: C_31  and  O_32
REMARK                            x       y       z     vdW  Elec       q    Type
REMARK                         _______ _______ _______ _____ _____    ______ ____
ROOT
ATOM      1  C   UNL     1      32.345 -22.752 -15.565  0.00  0.00    +0.014 C 
ATOM      2  C   UNL     1      31.499 -22.315 -16.612  0.00  0.00    +0.001 C 
ATOM      3  C   UNL     1      33.737 -22.629 -15.711  0.00  0.00    +0.051 C 
ATOM      4  C   UNL     1      31.776 -23.298 -14.404  0.00  0.00    +0.004 C 
ATOM      5  C   UNL     1      32.067 -21.768 -17.774  0.00  0.00    +0.007 C 
ATOM      6  C   UNL     1      34.285 -22.082 -16.872  0.00  0.00    +0.021 C 
ATOM      7  C   UNL     1      33.452 -21.653 -17.902  0.00  0.00    +0.077 C 
ATOM      8  C   UNL     1      30.107 -22.439 -16.466  0.00  0.00    +0.000 C 
ATOM      9  C   UNL     1      30.391 -23.413 -14.276  0.00  0.00    +0.031 C 
ATOM     10  C   UNL     1      29.559 -22.984 -15.305  0.00  0.00    +0.003 C 
ENDROOT
BRANCH   9  13
ATOM     11  N   UNL     1      28.919 -25.045 -13.120  0.00  0.00    -0.343 N 
ATOM     12  N   UNL     1      30.145 -23.484 -11.886  0.00  0.00    -0.285 NA
ATOM     13  C   UNL     1      29.818 -23.981 -13.067  0.00  0.00    +0.117 C 
ATOM     14  H   UNL     1      28.543 -25.414 -12.289  0.00  0.00    +0.144 HD
ATOM     15  H   UNL     1      28.661 -25.427 -13.991  0.00  0.00    +0.144 HD
ATOM     16  H   UNL     1      29.758 -23.867 -11.067  0.00  0.00    +0.188 HD
ENDBRANCH   9  13
BRANCH   3  18
ATOM     17  O   UNL     1      34.636 -25.382 -14.940  0.00  0.00    -0.270 OA
ATOM     18  N   UNL     1      34.624 -23.044 -14.710  0.00  0.00    -0.280 N 
ATOM     19  C   UNL     1      35.008 -24.350 -14.394  0.00  0.00    +0.249 C 
ATOM     20  H   UNL     1      35.024 -22.330 -14.164  0.00  0.00    +0.155 HD
BRANCH  19  21
ATOM     21  C   UNL     1      35.950 -24.473 -13.251  0.00  0.00    +0.053 C 
ATOM     22  C   UNL     1      35.524 -24.201 -11.967  0.00  0.00    +0.016 C 
ATOM     23  C   UNL     1      37.246 -24.864 -13.526  0.00  0.00    +0.004 C 
ATOM     24  C   UNL     1      36.430 -24.324 -10.914  0.00  0.00    +0.130 C 
ATOM     25  C   UNL     1      34.116 -23.778 -11.687  0.00  0.00    +0.034 C 
ATOM     26  C   UNL     1      38.152 -24.987 -12.472  0.00  0.00    +0.003 C 
ATOM     27  C   UNL     1      37.743 -24.718 -11.167  0.00  0.00    +0.036 C 
BRANCH  24  28
ATOM     28  O   UNL     1      36.049 -24.066  -9.631  0.00  0.00    -0.506 OA
ATOM     29  H   UNL     1      35.230 -23.644  -9.461  0.00  0.00    +0.292 HD
ENDBRANCH  24  28
ENDBRANCH  19  21
ENDBRANCH   3  18
BRANCH   7  31
ATOM     30  O   UNL     1      35.187 -21.281 -19.495  0.00  0.00    -0.245 OA
ATOM     31  C   UNL     1      34.026 -21.085 -19.112  0.00  0.00    +0.341 C 
BRANCH  31  32
ATOM     32  O   UNL     1      33.122 -20.302 -19.778  0.00  0.00    -0.441 OA
ATOM     33  C   UNL     1      33.654 -19.317 -20.670  0.00  0.00    +0.256 C 
ENDBRANCH  31  32
ENDBRANCH   7  31
TORSDOF 6
ENDMDL
MODEL 5
REMARK VINA RESULT:     -10.5      1.290      2.059
REMARK  Name = 6852141
REMARK  6 active torsions:
REMARK  status: ('A' for Active; 'I' for Inactive)
REMARK    1  A    between atoms: C_3  and  N_18
REMARK    2  A    between atoms: C_7  and  C_31
REMARK    3  A    between atoms: C_9  and  C_13
REMARK    4  A    between atoms: C_19  and  C_21
REMARK    5  A    between atoms: C_24  and  O_28
REMARK    6  A    between atoms: C_31  and  O_32
REMARK                            x       y       z     vdW  Elec       q    Type
REMARK                         _______ _______ _______ _____ _____    ______ ____
ROOT
ATOM      1  C   UNL     1      32.197 -23.178 -14.103  0.00  0.00    +0.014 C 
ATOM      2  C   UNL     1      31.974 -23.904 -12.909  0.00  0.00    +0.001 C 
ATOM      3  C   UNL     1      33.515 -22.943 -14.528  0.00  0.00    +0.051 C 
ATOM      4  C   UNL     1      31.096 -22.708 -14.837  0.00  0.00    +0.004 C 
ATOM      5  C   UNL     1      33.075 -24.375 -12.175  0.00  0.00    +0.007 C 
ATOM      6  C   UNL     1      34.597 -23.419 -13.786  0.00  0.00    +0.021 C 
ATOM      7  C   UNL     1      34.377 -24.133 -12.612  0.00  0.00    +0.077 C 
ATOM      8  C   UNL     1      30.656 -24.138 -12.484  0.00  0.00    +0.000 C 
ATOM      9  C   UNL     1      29.794 -22.950 -14.400  0.00  0.00    +0.031 C 
ATOM     10  C   UNL     1      29.574 -23.664 -13.226  0.00  0.00    +0.003 C 
ENDROOT
BRANCH   9  13
ATOM     11  N   UNL     1      27.419 -22.247 -14.583  0.00  0.00    -0.343 N 
ATOM     12  N   UNL     1      28.809 -22.201 -16.461  0.00  0.00    -0.285 NA
ATOM     13  C   UNL     1      28.665 -22.456 -15.172  0.00  0.00    +0.117 C 
ATOM     14  H   UNL     1      26.668 -21.913 -15.124  0.00  0.00    +0.144 HD
ATOM     15  H   UNL     1      27.291 -22.435 -13.624  0.00  0.00    +0.144 HD
ATOM     16  H   UNL     1      28.046 -21.867 -16.985  0.00  0.00    +0.188 HD
ENDBRANCH   9  13
BRANCH   3  18
ATOM     17  O   UNL     1      32.923 -23.607 -17.390  0.00  0.00    -0.270 OA
ATOM     18  N   UNL     1      33.798 -22.230 -15.700  0.00  0.00    -0.280 N 
ATOM     19  C   UNL     1      33.496 -22.591 -17.016  0.00  0.00    +0.249 C 
ATOM     20  H   UNL     1      34.266 -21.373 -15.581  0.00  0.00    +0.155 HD
BRANCH  19  21
ATOM     21  C   UNL     1      33.955 -21.632 -18.055  0.00  0.00    +0.053 C 
ATOM     22  C   UNL     1      33.037 -20.972 -18.845  0.00  0.00    +0.016 C 
ATOM     23  C   UNL     1      35.315 -21.435 -18.191  0.00  0.00    +0.004 C 
ATOM     24  C   UNL     1      33.497 -20.078 -19.812  0.00  0.00    +0.130 C 
ATOM     25  C   UNL     1      31.566 -21.197 -18.685  0.00  0.00    +0.034 C 
ATOM     26  C   UNL     1      35.775 -20.541 -19.158  0.00  0.00    +0.003 C 
ATOM     27  C   UNL     1      34.865 -19.863 -19.968  0.00  0.00    +0.036 C 
BRANCH  24  28
ATOM     28  O   UNL     1      32.623 -19.404 -20.613  0.00  0.00    -0.506 OA
ATOM     29  H   UNL     1      31.705 -19.585 -20.561  0.00  0.00    +0.292 HD
ENDBRANCH  24  28
ENDBRANCH  19  21
ENDBRANCH   3  18
BRANCH   7  31
ATOM     30  O   UNL     1      35.409 -25.252 -10.775  0.00  0.00    -0.245 OA
ATOM     31  C   UNL     1      35.507 -24.627 -11.840  0.00  0.00    +0.341 C 
BRANCH  31  32
ATOM     32  O   UNL     1      36.699 -24.317 -12.437  0.00  0.00    -0.441 OA
ATOM     33  C   UNL     1      37.583 -25.406 -12.721  0.00  0.00    +0.256 C 
ENDBRANCH  31  32
ENDBRANCH   7  31
TORSDOF 6
ENDMDL
MODEL 6
REMARK VINA RESULT:     -10.4      2.533      7.257
REMARK  Name = 6852141
REMARK  6 active torsions:
REMARK  status: ('A' for Active; 'I' for Inactive)
REMARK    1  A    between atoms: C_3  and  N_18
REMARK    2  A    between atoms: C_7  and  C_31
REMARK    3  A    between atoms: C_9  and  C_13
REMARK    4  A    between atoms: C_19  and  C_21
REMARK    5  A    between atoms: C_24  and  O_28
REMARK    6  A    between atoms: C_31  and  O_32
REMARK                            x       y       z     vdW  Elec       q    Type
REMARK                         _______ _______ _______ _____ _____    ______ ____
ROOT
ATOM      1  C   UNL     1      34.336 -22.815 -15.474  0.00  0.00    +0.014 C 
ATOM      2  C   UNL     1      35.645 -22.376 -15.786  0.00  0.00    +0.001 C 
ATOM      3  C   UNL     1      33.282 -22.503 -16.348  0.00  0.00    +0.051 C 
ATOM      4  C   UNL     1      34.120 -23.550 -14.298  0.00  0.00    +0.004 C 
ATOM      5  C   UNL     1      35.862 -21.640 -16.962  0.00  0.00    +0.007 C 
ATOM      6  C   UNL     1      33.515 -21.772 -17.513  0.00  0.00    +0.021 C 
ATOM      7  C   UNL     1      34.803 -21.340 -17.819  0.00  0.00    +0.077 C 
ATOM      8  C   UNL     1      36.700 -22.687 -14.911  0.00  0.00    +0.000 C 
ATOM      9  C   UNL     1      35.180 -23.850 -13.441  0.00  0.00    +0.031 C 
ATOM     10  C   UNL     1      36.467 -23.420 -13.748  0.00  0.00    +0.003 C 
ENDROOT
BRANCH   9  13
ATOM     11  N   UNL     1      35.822 -25.608 -11.809  0.00  0.00    -0.343 N 
ATOM     12  N   UNL     1      33.862 -24.374 -11.500  0.00  0.00    -0.285 NA
ATOM     13  C   UNL     1      34.939 -24.615 -12.228  0.00  0.00    +0.117 C 
ATOM     14  H   UNL     1      35.640 -26.114 -10.985  0.00  0.00    +0.144 HD
ATOM     15  H   UNL     1      36.629 -25.805 -12.340  0.00  0.00    +0.144 HD
ATOM     16  H   UNL     1      33.697 -24.890 -10.679  0.00  0.00    +0.188 HD
ENDBRANCH   9  13
BRANCH   3  18
ATOM     17  O   UNL     1      31.450 -21.814 -14.078  0.00  0.00    -0.270 OA
ATOM     18  N   UNL     1      31.966 -22.908 -16.091  0.00  0.00    -0.280 N 
ATOM     19  C   UNL     1      31.155 -22.553 -15.009  0.00  0.00    +0.249 C 
ATOM     20  H   UNL     1      31.565 -23.517 -16.752  0.00  0.00    +0.155 HD
BRANCH  19  21
ATOM     21  C   UNL     1      29.805 -23.175 -15.001  0.00  0.00    +0.053 C 
ATOM     22  C   UNL     1      29.546 -24.263 -14.192  0.00  0.00    +0.016 C 
ATOM     23  C   UNL     1      28.840 -22.625 -15.821  0.00  0.00    +0.004 C 
ATOM     24  C   UNL     1      28.270 -24.825 -14.205  0.00  0.00    +0.130 C 
ATOM     25  C   UNL     1      30.603 -24.846 -13.309  0.00  0.00    +0.034 C 
ATOM     26  C   UNL     1      27.563 -23.187 -15.833  0.00  0.00    +0.003 C 
ATOM     27  C   UNL     1      27.279 -24.287 -15.025  0.00  0.00    +0.036 C 
BRANCH  24  28
ATOM     28  O   UNL     1      27.972 -25.900 -13.421  0.00  0.00    -0.506 OA
ATOM     29  H   UNL     1      27.620 -25.770 -12.562  0.00  0.00    +0.292 HD
ENDBRANCH  24  28
ENDBRANCH  19  21
ENDBRANCH   3  18
BRANCH   7  31
ATOM     30  O   UNL     1      36.100 -19.985 -19.291  0.00  0.00    -0.245 OA
ATOM     31  C   UNL     1      35.043 -20.577 -19.034  0.00  0.00    +0.341 C 
BRANCH  31  32
ATOM     32  O   UNL     1      33.954 -20.592 -19.862  0.00  0.00    -0.441 OA
ATOM     33  C   UNL     1      33.729 -19.423 -20.656  0.00  0.00    +0.256 C 
ENDBRANCH  31  32
ENDBRANCH   7  31
TORSDOF 6
ENDMDL
MODEL 7
REMARK VINA RESULT:      -9.9      2.667      7.337
REMARK  Name = 6852141
REMARK  6 active torsions:
REMARK  status: ('A' for Active; 'I' for Inactive)
REMARK    1  A    between atoms: C_3  and  N_18
REMARK    2  A    between atoms: C_7  and  C_31
REMARK    3  A    between atoms: C_9  and  C_13
REMARK    4  A    between atoms: C_19  and  C_21
REMARK    5  A    between atoms: C_24  and  O_28
REMARK    6  A    between atoms: C_31  and  O_32
REMARK                            x       y       z     vdW  Elec       q    Type
REMARK                         _______ _______ _______ _____ _____    ______ ____
ROOT
ATOM      1  C   UNL     1      34.530 -23.052 -15.098  0.00  0.00    +0.014 C 
ATOM      2  C   UNL     1      35.795 -22.542 -15.476  0.00  0.00    +0.001 C 
ATOM      3  C   UNL     1      33.418 -22.810 -15.920  0.00  0.00    +0.051 C 
ATOM      4  C   UNL     1      34.415 -23.790 -13.908  0.00  0.00    +0.004 C 
ATOM      5  C   UNL     1      35.911 -21.804 -16.665  0.00  0.00    +0.007 C 
ATOM      6  C   UNL     1      33.552 -22.076 -17.099  0.00  0.00    +0.021 C 
ATOM      7  C   UNL     1      34.795 -21.573 -17.471  0.00  0.00    +0.077 C 
ATOM      8  C   UNL     1      36.907 -22.783 -14.653  0.00  0.00    +0.000 C 
ATOM      9  C   UNL     1      35.531 -24.020 -13.103  0.00  0.00    +0.031 C 
ATOM     10  C   UNL     1      36.775 -23.519 -13.475  0.00  0.00    +0.003 C 
ENDROOT
BRANCH   9  13
ATOM     11  N   UNL     1      36.392 -25.665 -11.454  0.00  0.00    -0.343 N 
ATOM     12  N   UNL     1      34.306 -24.660 -11.136  0.00  0.00    -0.285 NA
ATOM     13  C   UNL     1      35.394 -24.787 -11.875  0.00  0.00    +0.117 C 
ATOM     14  H   UNL     1      36.279 -26.174 -10.619  0.00  0.00    +0.144 HD
ATOM     15  H   UNL     1      37.209 -25.776 -11.992  0.00  0.00    +0.144 HD
ATOM     16  H   UNL     1      34.211 -25.178 -10.305  0.00  0.00    +0.188 HD
ENDBRANCH   9  13
BRANCH   3  18
ATOM     17  O   UNL     1      31.542 -21.998 -13.728  0.00  0.00    -0.270 OA
ATOM     18  N   UNL     1      32.142 -23.289 -15.597  0.00  0.00    -0.280 N 
ATOM     19  C   UNL     1      31.308 -22.870 -14.557  0.00  0.00    +0.249 C 
ATOM     20  H   UNL     1      31.792 -24.007 -16.172  0.00  0.00    +0.155 HD
BRANCH  19  21
ATOM     21  C   UNL     1      30.015 -23.597 -14.452  0.00  0.00    +0.053 C 
ATOM     22  C   UNL     1      28.929 -23.193 -15.201  0.00  0.00    +0.016 C 
ATOM     23  C   UNL     1      29.951 -24.672 -13.588  0.00  0.00    +0.004 C 
ATOM     24  C   UNL     1      27.729 -23.894 -15.083  0.00  0.00    +0.130 C 
ATOM     25  C   UNL     1      29.015 -22.026 -16.133  0.00  0.00    +0.034 C 
ATOM     26  C   UNL     1      28.751 -25.373 -13.469  0.00  0.00    +0.003 C 
ATOM     27  C   UNL     1      27.640 -24.983 -14.217  0.00  0.00    +0.036 C 
BRANCH  24  28
ATOM     28  O   UNL     1      26.632 -23.529 -15.806  0.00  0.00    -0.506 OA
ATOM     29  H   UNL     1      25.872 -23.199 -15.369  0.00  0.00    +0.292 HD
ENDBRANCH  24  28
ENDBRANCH  19  21
ENDBRANCH   3  18
BRANCH   7  31
ATOM     30  O   UNL     1      35.943 -20.168 -19.019  0.00  0.00    -0.245 OA
ATOM     31  C   UNL     1      34.931 -20.807 -18.700  0.00  0.00    +0.341 C 
BRANCH  31  32
ATOM     32  O   UNL     1      33.800 -20.880 -19.466  0.00  0.00    -0.441 OA
ATOM     33  C   UNL     1      33.425 -19.697 -20.180  0.00  0.00    +0.256 C 
ENDBRANCH  31  32
ENDBRANCH   7  31
TORSDOF 6
ENDMDL
MODEL 8
REMARK VINA RESULT:      -9.8      2.419      6.511
REMARK  Name = 6852141
REMARK  6 active torsions:
REMARK  status: ('A' for Active; 'I' for Inactive)
REMARK    1  A    between atoms: C_3  and  N_18
REMARK    2  A    between atoms: C_7  and  C_31
REMARK    3  A    between atoms: C_9  and  C_13
REMARK    4  A    between atoms: C_19  and  C_21
REMARK    5  A    between atoms: C_24  and  O_28
REMARK    6  A    between atoms: C_31  and  O_32
REMARK                            x       y       z     vdW  Elec       q    Type
REMARK                         _______ _______ _______ _____ _____    ______ ____
ROOT
ATOM      1  C   UNL     1      32.068 -23.041 -15.555  0.00  0.00    +0.014 C 
ATOM      2  C   UNL     1      31.263 -22.402 -16.527  0.00  0.00    +0.001 C 
ATOM      3  C   UNL     1      33.465 -23.024 -15.700  0.00  0.00    +0.051 C 
ATOM      4  C   UNL     1      31.452 -23.680 -14.466  0.00  0.00    +0.004 C 
ATOM      5  C   UNL     1      31.877 -21.763 -17.616  0.00  0.00    +0.007 C 
ATOM      6  C   UNL     1      34.058 -22.384 -16.789  0.00  0.00    +0.021 C 
ATOM      7  C   UNL     1      33.266 -21.755 -17.745  0.00  0.00    +0.077 C 
ATOM      8  C   UNL     1      29.866 -22.420 -16.382  0.00  0.00    +0.000 C 
ATOM      9  C   UNL     1      30.063 -23.687 -14.337  0.00  0.00    +0.031 C 
ATOM     10  C   UNL     1      29.272 -23.058 -15.293  0.00  0.00    +0.003 C 
ENDROOT
BRANCH   9  13
ATOM     11  N   UNL     1      28.347 -25.198 -13.369  0.00  0.00    -0.343 N 
ATOM     12  N   UNL     1      29.914 -24.155 -11.984  0.00  0.00    -0.285 NA
ATOM     13  C   UNL     1      29.442 -24.352 -13.203  0.00  0.00    +0.117 C 
ATOM     14  H   UNL     1      27.942 -25.638 -12.587  0.00  0.00    +0.144 HD
ATOM     15  H   UNL     1      27.979 -25.355 -14.269  0.00  0.00    +0.144 HD
ATOM     16  H   UNL     1      29.496 -24.604 -11.215  0.00  0.00    +0.188 HD
ENDBRANCH   9  13
BRANCH   3  18
ATOM     17  O   UNL     1      35.855 -21.950 -14.246  0.00  0.00    -0.270 OA
ATOM     18  N   UNL     1      34.312 -23.641 -14.771  0.00  0.00    -0.280 N 
ATOM     19  C   UNL     1      35.419 -23.088 -14.121  0.00  0.00    +0.249 C 
ATOM     20  H   UNL     1      34.102 -24.577 -14.551  0.00  0.00    +0.155 HD
BRANCH  19  21
ATOM     21  C   UNL     1      36.140 -24.010 -13.206  0.00  0.00    +0.053 C 
ATOM     22  C   UNL     1      37.400 -24.469 -13.533  0.00  0.00    +0.016 C 
ATOM     23  C   UNL     1      35.506 -24.380 -12.036  0.00  0.00    +0.004 C 
ATOM     24  C   UNL     1      38.053 -25.334 -12.655  0.00  0.00    +0.130 C 
ATOM     25  C   UNL     1      38.073 -24.058 -14.805  0.00  0.00    +0.034 C 
ATOM     26  C   UNL     1      36.160 -25.245 -11.158  0.00  0.00    +0.003 C 
ATOM     27  C   UNL     1      37.433 -25.720 -11.468  0.00  0.00    +0.036 C 
BRANCH  24  28
ATOM     28  O   UNL     1      39.299 -25.809 -12.940  0.00  0.00    -0.506 OA
ATOM     29  H   UNL     1      39.802 -26.234 -12.273  0.00  0.00    +0.292 HD
ENDBRANCH  24  28
ENDBRANCH  19  21
ENDBRANCH   3  18
BRANCH   7  31
ATOM     30  O   UNL     1      35.079 -21.211 -19.197  0.00  0.00    -0.245 OA
ATOM     31  C   UNL     1      33.888 -21.089 -18.879  0.00  0.00    +0.341 C 
BRANCH  31  32
ATOM     32  O   UNL     1      32.993 -20.308 -19.557  0.00  0.00    -0.441 OA
ATOM     33  C   UNL     1      33.525 -19.431 -20.556  0.00  0.00    +0.256 C 
ENDBRANCH  31  32
ENDBRANCH   7  31
TORSDOF 6
ENDMDL
MODEL 9
REMARK VINA RESULT:      -9.3     12.262     17.203
REMARK  Name = 6852141
REMARK  6 active torsions:
REMARK  status: ('A' for Active; 'I' for Inactive)
REMARK    1  A    between atoms: C_3  and  N_18
REMARK    2  A    between atoms: C_7  and  C_31
REMARK    3  A    between atoms: C_9  and  C_13
REMARK    4  A    between atoms: C_19  and  C_21
REMARK    5  A    between atoms: C_24  and  O_28
REMARK    6  A    between atoms: C_31  and  O_32
REMARK                            x       y       z     vdW  Elec       q    Type
REMARK                         _______ _______ _______ _____ _____    ______ ____
ROOT
ATOM      1  C   UNL     1      32.192  -7.341 -22.563  0.00  0.00    +0.014 C 
ATOM      2  C   UNL     1      32.177  -5.950 -22.818  0.00  0.00    +0.001 C 
ATOM      3  C   UNL     1      32.553  -8.225 -23.593  0.00  0.00    +0.051 C 
ATOM      4  C   UNL     1      31.847  -7.809 -21.285  0.00  0.00    +0.004 C 
ATOM      5  C   UNL     1      32.522  -5.482 -24.096  0.00  0.00    +0.007 C 
ATOM      6  C   UNL     1      32.894  -7.742 -24.857  0.00  0.00    +0.021 C 
ATOM      7  C   UNL     1      32.878  -6.374 -25.108  0.00  0.00    +0.077 C 
ATOM      8  C   UNL     1      31.815  -5.066 -21.788  0.00  0.00    +0.000 C 
ATOM      9  C   UNL     1      31.491  -6.917 -20.273  0.00  0.00    +0.031 C 
ATOM     10  C   UNL     1      31.476  -5.548 -20.524  0.00  0.00    +0.003 C 
ENDROOT
BRANCH   9  13
ATOM     11  N   UNL     1      31.237  -8.772 -18.642  0.00  0.00    -0.343 N 
ATOM     12  N   UNL     1      30.705  -6.582 -18.026  0.00  0.00    -0.285 NA
ATOM     13  C   UNL     1      31.137  -7.418 -18.954  0.00  0.00    +0.117 C 
ATOM     14  H   UNL     1      30.993  -9.090 -17.743  0.00  0.00    +0.144 HD
ATOM     15  H   UNL     1      31.554  -9.412 -19.322  0.00  0.00    +0.144 HD
ATOM     16  H   UNL     1      30.465  -6.919 -17.133  0.00  0.00    +0.188 HD
ENDBRANCH   9  13
BRANCH   3  18
ATOM     17  O   UNL     1      34.449 -10.287 -24.661  0.00  0.00    -0.270 OA
ATOM     18  N   UNL     1      32.585  -9.612 -23.400  0.00  0.00    -0.280 N 
ATOM     19  C   UNL     1      33.498 -10.530 -23.926  0.00  0.00    +0.249 C 
ATOM     20  H   UNL     1      31.879  -9.984 -22.825  0.00  0.00    +0.155 HD
BRANCH  19  21
ATOM     21  C   UNL     1      33.250 -11.949 -23.560  0.00  0.00    +0.053 C 
ATOM     22  C   UNL     1      32.731 -12.825 -24.491  0.00  0.00    +0.016 C 
ATOM     23  C   UNL     1      33.558 -12.343 -22.273  0.00  0.00    +0.004 C 
ATOM     24  C   UNL     1      32.509 -14.152 -24.119  0.00  0.00    +0.130 C 
ATOM     25  C   UNL     1      32.404 -12.382 -25.882  0.00  0.00    +0.034 C 
ATOM     26  C   UNL     1      33.336 -13.669 -21.901  0.00  0.00    +0.003 C 
ATOM     27  C   UNL     1      32.812 -14.572 -22.825  0.00  0.00    +0.036 C 
BRANCH  24  28
ATOM     28  O   UNL     1      31.999 -15.050 -25.008  0.00  0.00    -0.506 OA
ATOM     29  H   UNL     1      32.435 -15.202 -25.823  0.00  0.00    +0.292 HD
ENDBRANCH  24  28
ENDBRANCH  19  21
ENDBRANCH   3  18
BRANCH   7  31
ATOM     30  O   UNL     1      34.328  -6.060 -26.976  0.00  0.00    -0.245 OA
ATOM     31  C   UNL     1      33.234  -5.873 -26.428  0.00  0.00    +0.341 C 
BRANCH  31  32
ATOM     32  O   UNL     1      32.206  -5.167 -26.992  0.00  0.00    -0.441 OA
ATOM     33  C   UNL     1      31.190  -5.925 -27.657  0.00  0.00    +0.256 C 
ENDBRANCH  31  32
ENDBRANCH   7  31
TORSDOF 6
ENDMDL
