MODEL 1
REMARK VINA RESULT:     -12.9      0.000      0.000
REMARK  Name = 11560856
REMARK  5 active torsions:
REMARK  status: ('A' for Active; 'I' for Inactive)
REMARK    1  A    between atoms: C_2  and  O_24
REMARK    2  A    between atoms: C_3  and  N_10
REMARK    3  A    between atoms: C_12  and  C_16
REMARK    4  A    between atoms: C_16  and  C_18
REMARK    5  A    between atoms: O_24  and  C_28
REMARK                            x       y       z     vdW  Elec       q    Type
REMARK                         _______ _______ _______ _____ _____    ______ ____
ROOT
ATOM      1  F   UNL     1      35.733 -22.006 -17.800  0.00  0.00    -0.201 F 
ATOM      2  C   UNL     1      33.402 -22.023 -18.239  0.00  0.00    +0.173 C 
ATOM      3  C   UNL     1      33.684 -19.719 -19.747  0.00  0.00    +0.054 C 
ATOM      4  C   UNL     1      34.658 -21.457 -18.381  0.00  0.00    +0.176 C 
ATOM      5  C   UNL     1      32.284 -21.463 -18.833  0.00  0.00    +0.041 C 
ATOM      6  C   UNL     1      34.800 -20.297 -19.142  0.00  0.00    +0.047 C 
ATOM      7  C   UNL     1      32.426 -20.303 -19.593  0.00  0.00    +0.018 C 
ENDROOT
BRANCH   3  10
ATOM      8  O   UNL     1      33.825 -17.275 -24.606  0.00  0.00    -0.274 OA
ATOM      9  O   UNL     1      33.599 -19.326 -22.723  0.00  0.00    -0.252 OA
ATOM     10  N   UNL     1      33.827 -18.559 -20.509  0.00  0.00    -0.268 N 
ATOM     11  N   UNL     1      33.969 -17.075 -22.286  0.00  0.00    -0.239 N 
ATOM     12  C   UNL     1      33.981 -16.592 -23.597  0.00  0.00    +0.234 C 
ATOM     13  C   UNL     1      33.779 -18.420 -21.913  0.00  0.00    +0.310 C 
ATOM     14  H   UNL     1      33.981 -17.730 -20.003  0.00  0.00    +0.156 HD
ATOM     15  H   UNL     1      34.106 -16.422 -21.563  0.00  0.00    +0.159 HD
BRANCH  12  16
ATOM     16  C   UNL     1      34.212 -15.093 -23.629  0.00  0.00    +0.112 C 
BRANCH  16  18
ATOM     17  F   UNL     1      31.264 -12.304 -19.740  0.00  0.00    -0.204 F 
ATOM     18  C   UNL     1      33.423 -14.345 -22.587  0.00  0.00    -0.013 C 
ATOM     19  C   UNL     1      32.360 -13.544 -22.980  0.00  0.00    -0.001 C 
ATOM     20  C   UNL     1      33.769 -14.469 -21.249  0.00  0.00    -0.001 C 
ATOM     21  C   UNL     1      31.628 -12.851 -22.015  0.00  0.00    +0.029 C 
ATOM     22  C   UNL     1      33.037 -13.776 -20.284  0.00  0.00    +0.029 C 
ATOM     23  C   UNL     1      31.967 -12.969 -20.667  0.00  0.00    +0.140 C 
ENDBRANCH  16  18
ENDBRANCH  12  16
ENDBRANCH   3  10
BRANCH   2  24
ATOM     24  O   UNL     1      33.261 -23.173 -17.486  0.00  0.00    -0.451 OA
BRANCH  24  28
ATOM     25  N   UNL     1      33.641 -23.072 -12.847  0.00  0.00    -0.297 N 
ATOM     26  N   UNL     1      31.408 -22.803 -13.710  0.00  0.00    -0.229 NA
ATOM     27  C   UNL     1      33.424 -23.117 -15.069  0.00  0.00    +0.067 C 
ATOM     28  C   UNL     1      32.677 -23.056 -16.257  0.00  0.00    +0.150 C 
ATOM     29  C   UNL     1      32.732 -22.984 -13.869  0.00  0.00    +0.135 C 
ATOM     30  C   UNL     1      34.794 -23.289 -14.737  0.00  0.00    +0.022 C 
ATOM     31  C   UNL     1      34.897 -23.256 -13.363  0.00  0.00    +0.063 C 
ATOM     32  C   UNL     1      31.300 -22.868 -16.150  0.00  0.00    +0.058 C 
ATOM     33  C   UNL     1      30.738 -22.753 -14.885  0.00  0.00    +0.103 C 
ATOM     34  H   UNL     1      33.424 -23.011 -11.888  0.00  0.00    +0.154 HD
ENDBRANCH  24  28
ENDBRANCH   2  24
TORSDOF 5
ENDMDL
MODEL 2
REMARK VINA RESULT:     -12.4      2.852      9.652
REMARK  Name = 11560856
REMARK  5 active torsions:
REMARK  status: ('A' for Active; 'I' for Inactive)
REMARK    1  A    between atoms: C_2  and  O_24
REMARK    2  A    between atoms: C_3  and  N_10
REMARK    3  A    between atoms: C_12  and  C_16
REMARK    4  A    between atoms: C_16  and  C_18
REMARK    5  A    between atoms: O_24  and  C_28
REMARK                            x       y       z     vdW  Elec       q    Type
REMARK                         _______ _______ _______ _____ _____    ______ ____
ROOT
ATOM      1  F   UNL     1      36.200 -20.834 -19.302  0.00  0.00    -0.201 F 
ATOM      2  C   UNL     1      34.236 -19.838 -20.184  0.00  0.00    +0.173 C 
ATOM      3  C   UNL     1      32.709 -21.306 -18.401  0.00  0.00    +0.054 C 
ATOM      4  C   UNL     1      34.867 -20.701 -19.302  0.00  0.00    +0.176 C 
ATOM      5  C   UNL     1      32.859 -19.694 -20.194  0.00  0.00    +0.041 C 
ATOM      6  C   UNL     1      34.097 -21.439 -18.404  0.00  0.00    +0.047 C 
ATOM      7  C   UNL     1      32.090 -20.433 -19.296  0.00  0.00    +0.018 C 
ENDROOT
BRANCH   3  10
ATOM      8  O   UNL     1      32.301 -24.076 -13.736  0.00  0.00    -0.274 OA
ATOM      9  O   UNL     1      33.461 -22.571 -15.783  0.00  0.00    -0.252 OA
ATOM     10  N   UNL     1      31.940 -22.044 -17.500  0.00  0.00    -0.268 N 
ATOM     11  N   UNL     1      31.255 -23.287 -15.666  0.00  0.00    -0.239 N 
ATOM     12  C   UNL     1      31.305 -23.966 -14.446  0.00  0.00    +0.234 C 
ATOM     13  C   UNL     1      32.337 -22.622 -16.276  0.00  0.00    +0.310 C 
ATOM     14  H   UNL     1      30.999 -22.180 -17.752  0.00  0.00    +0.156 HD
ATOM     15  H   UNL     1      30.392 -23.273 -16.140  0.00  0.00    +0.159 HD
BRANCH  12  16
ATOM     16  C   UNL     1      29.956 -24.565 -14.094  0.00  0.00    +0.112 C 
BRANCH  16  18
ATOM     17  F   UNL     1      25.621 -21.663 -16.188  0.00  0.00    -0.204 F 
ATOM     18  C   UNL     1      28.793 -23.788 -14.654  0.00  0.00    -0.013 C 
ATOM     19  C   UNL     1      28.533 -22.510 -14.178  0.00  0.00    -0.001 C 
ATOM     20  C   UNL     1      28.002 -24.360 -15.639  0.00  0.00    -0.001 C 
ATOM     21  C   UNL     1      27.457 -21.790 -14.698  0.00  0.00    +0.029 C 
ATOM     22  C   UNL     1      26.925 -23.640 -16.159  0.00  0.00    +0.029 C 
ATOM     23  C   UNL     1      26.654 -22.355 -15.689  0.00  0.00    +0.140 C 
ENDBRANCH  16  18
ENDBRANCH  12  16
ENDBRANCH   3  10
BRANCH   2  24
ATOM     24  O   UNL     1      34.998 -19.106 -21.074  0.00  0.00    -0.451 OA
BRANCH  24  28
ATOM     25  N   UNL     1      33.290 -15.318 -23.174  0.00  0.00    -0.297 N 
ATOM     26  N   UNL     1      33.003 -17.387 -24.375  0.00  0.00    -0.229 NA
ATOM     27  C   UNL     1      34.098 -17.154 -22.193  0.00  0.00    +0.067 C 
ATOM     28  C   UNL     1      34.354 -18.534 -22.134  0.00  0.00    +0.150 C 
ATOM     29  C   UNL     1      33.436 -16.672 -23.319  0.00  0.00    +0.135 C 
ATOM     30  C   UNL     1      34.350 -16.036 -21.355  0.00  0.00    +0.022 C 
ATOM     31  C   UNL     1      33.843 -14.920 -21.985  0.00  0.00    +0.063 C 
ATOM     32  C   UNL     1      33.927 -19.321 -23.203  0.00  0.00    +0.058 C 
ATOM     33  C   UNL     1      33.275 -18.707 -24.265  0.00  0.00    +0.103 C 
ATOM     34  H   UNL     1      32.855 -14.721 -23.826  0.00  0.00    +0.154 HD
ENDBRANCH  24  28
ENDBRANCH   2  24
TORSDOF 5
ENDMDL
MODEL 3
REMARK VINA RESULT:     -12.4      2.515      3.912
REMARK  Name = 11560856
REMARK  5 active torsions:
REMARK  status: ('A' for Active; 'I' for Inactive)
REMARK    1  A    between atoms: C_2  and  O_24
REMARK    2  A    between atoms: C_3  and  N_10
REMARK    3  A    between atoms: C_12  and  C_16
REMARK    4  A    between atoms: C_16  and  C_18
REMARK    5  A    between atoms: O_24  and  C_28
REMARK                            x       y       z     vdW  Elec       q    Type
REMARK                         _______ _______ _______ _____ _____    ______ ____
ROOT
ATOM      1  F   UNL     1      31.394 -23.688 -15.749  0.00  0.00    -0.201 F 
ATOM      2  C   UNL     1      33.655 -23.087 -15.360  0.00  0.00    +0.173 C 
ATOM      3  C   UNL     1      33.690 -21.718 -17.766  0.00  0.00    +0.054 C 
ATOM      4  C   UNL     1      32.511 -23.061 -16.141  0.00  0.00    +0.176 C 
ATOM      5  C   UNL     1      34.816 -22.444 -15.755  0.00  0.00    +0.041 C 
ATOM      6  C   UNL     1      32.529 -22.370 -17.352  0.00  0.00    +0.047 C 
ATOM      7  C   UNL     1      34.833 -21.754 -16.967  0.00  0.00    +0.018 C 
ENDROOT
BRANCH   3  10
ATOM      8  O   UNL     1      36.212 -18.363 -21.228  0.00  0.00    -0.274 OA
ATOM      9  O   UNL     1      35.773 -19.900 -18.937  0.00  0.00    -0.252 OA
ATOM     10  N   UNL     1      33.707 -21.026 -18.977  0.00  0.00    -0.268 N 
ATOM     11  N   UNL     1      34.341 -19.673 -20.751  0.00  0.00    -0.239 N 
ATOM     12  C   UNL     1      35.107 -18.805 -21.534  0.00  0.00    +0.234 C 
ATOM     13  C   UNL     1      34.712 -20.178 -19.489  0.00  0.00    +0.310 C 
ATOM     14  H   UNL     1      32.915 -21.143 -19.549  0.00  0.00    +0.156 HD
ATOM     15  H   UNL     1      33.469 -19.955 -21.111  0.00  0.00    +0.159 HD
BRANCH  12  16
ATOM     16  C   UNL     1      34.400 -18.466 -22.832  0.00  0.00    +0.112 C 
BRANCH  16  18
ATOM     17  F   UNL     1      33.046 -13.028 -23.275  0.00  0.00    -0.204 F 
ATOM     18  C   UNL     1      34.036 -17.009 -22.951  0.00  0.00    -0.013 C 
ATOM     19  C   UNL     1      34.125 -16.190 -21.834  0.00  0.00    -0.001 C 
ATOM     20  C   UNL     1      33.619 -16.507 -24.175  0.00  0.00    -0.001 C 
ATOM     21  C   UNL     1      33.789 -14.840 -21.944  0.00  0.00    +0.029 C 
ATOM     22  C   UNL     1      33.283 -15.158 -24.285  0.00  0.00    +0.029 C 
ATOM     23  C   UNL     1      33.369 -14.325 -23.170  0.00  0.00    +0.140 C 
ENDBRANCH  16  18
ENDBRANCH  12  16
ENDBRANCH   3  10
BRANCH   2  24
ATOM     24  O   UNL     1      33.638 -23.771 -14.159  0.00  0.00    -0.451 OA
BRANCH  24  28
ATOM     25  N   UNL     1      37.425 -24.348 -11.512  0.00  0.00    -0.297 N 
ATOM     26  N   UNL     1      37.056 -26.048 -13.179  0.00  0.00    -0.229 NA
ATOM     27  C   UNL     1      35.617 -24.100 -12.799  0.00  0.00    +0.067 C 
ATOM     28  C   UNL     1      34.748 -24.496 -13.830  0.00  0.00    +0.150 C 
ATOM     29  C   UNL     1      36.719 -24.911 -12.543  0.00  0.00    +0.135 C 
ATOM     30  C   UNL     1      35.679 -23.018 -11.881  0.00  0.00    +0.022 C 
ATOM     31  C   UNL     1      36.802 -23.198 -11.102  0.00  0.00    +0.063 C 
ATOM     32  C   UNL     1      35.051 -25.668 -14.521  0.00  0.00    +0.058 C 
ATOM     33  C   UNL     1      36.187 -26.381 -14.161  0.00  0.00    +0.103 C 
ATOM     34  H   UNL     1      38.253 -24.715 -11.125  0.00  0.00    +0.154 HD
ENDBRANCH  24  28
ENDBRANCH   2  24
TORSDOF 5
ENDMDL
MODEL 4
REMARK VINA RESULT:     -12.4      4.210     11.278
REMARK  Name = 11560856
REMARK  5 active torsions:
REMARK  status: ('A' for Active; 'I' for Inactive)
REMARK    1  A    between atoms: C_2  and  O_24
REMARK    2  A    between atoms: C_3  and  N_10
REMARK    3  A    between atoms: C_12  and  C_16
REMARK    4  A    between atoms: C_16  and  C_18
REMARK    5  A    between atoms: O_24  and  C_28
REMARK                            x       y       z     vdW  Elec       q    Type
REMARK                         _______ _______ _______ _____ _____    ______ ____
ROOT
ATOM      1  F   UNL     1      32.677 -11.152 -23.203  0.00  0.00    -0.201 F 
ATOM      2  C   UNL     1      31.372 -11.504 -21.253  0.00  0.00    +0.173 C 
ATOM      3  C   UNL     1      32.767 -13.844 -20.760  0.00  0.00    +0.054 C 
ATOM      4  C   UNL     1      32.376 -11.891 -22.127  0.00  0.00    +0.176 C 
ATOM      5  C   UNL     1      31.051 -12.261 -20.140  0.00  0.00    +0.041 C 
ATOM      6  C   UNL     1      33.078 -13.069 -21.877  0.00  0.00    +0.047 C 
ATOM      7  C   UNL     1      31.754 -13.440 -19.891  0.00  0.00    +0.018 C 
ENDROOT
BRANCH   3  10
ATOM      8  O   UNL     1      35.175 -18.362 -22.604  0.00  0.00    -0.274 OA
ATOM      9  O   UNL     1      33.777 -15.943 -22.655  0.00  0.00    -0.252 OA
ATOM     10  N   UNL     1      33.472 -15.022 -20.511  0.00  0.00    -0.268 N 
ATOM     11  N   UNL     1      34.601 -17.031 -20.776  0.00  0.00    -0.239 N 
ATOM     12  C   UNL     1      35.176 -18.144 -21.395  0.00  0.00    +0.234 C 
ATOM     13  C   UNL     1      33.929 -15.984 -21.437  0.00  0.00    +0.310 C 
ATOM     14  H   UNL     1      33.677 -15.207 -19.567  0.00  0.00    +0.156 HD
ATOM     15  H   UNL     1      34.671 -16.974 -19.795  0.00  0.00    +0.159 HD
BRANCH  12  16
ATOM     16  C   UNL     1      35.816 -19.070 -20.378  0.00  0.00    +0.112 C 
BRANCH  16  18
ATOM     17  F   UNL     1      32.124 -22.428 -17.792  0.00  0.00    -0.204 F 
ATOM     18  C   UNL     1      34.827 -19.969 -19.684  0.00  0.00    -0.013 C 
ATOM     19  C   UNL     1      33.472 -19.832 -19.956  0.00  0.00    -0.001 C 
ATOM     20  C   UNL     1      35.284 -20.922 -18.786  0.00  0.00    -0.001 C 
ATOM     21  C   UNL     1      32.556 -20.666 -19.313  0.00  0.00    +0.029 C 
ATOM     22  C   UNL     1      34.368 -21.755 -18.143  0.00  0.00    +0.029 C 
ATOM     23  C   UNL     1      33.005 -21.628 -18.408  0.00  0.00    +0.140 C 
ENDBRANCH  16  18
ENDBRANCH  12  16
ENDBRANCH   3  10
BRANCH   2  24
ATOM     24  O   UNL     1      30.676 -10.337 -21.499  0.00  0.00    -0.451 OA
BRANCH  24  28
ATOM     25  N   UNL     1      32.918  -6.296 -22.075  0.00  0.00    -0.297 N 
ATOM     26  N   UNL     1      32.209  -6.777 -19.823  0.00  0.00    -0.229 NA
ATOM     27  C   UNL     1      31.840  -8.227 -21.764  0.00  0.00    +0.067 C 
ATOM     28  C   UNL     1      31.178  -9.180 -20.972  0.00  0.00    +0.150 C 
ATOM     29  C   UNL     1      32.312  -7.082 -21.129  0.00  0.00    +0.135 C 
ATOM     30  C   UNL     1      32.182  -8.107 -23.137  0.00  0.00    +0.022 C 
ATOM     31  C   UNL     1      32.844  -6.908 -23.298  0.00  0.00    +0.063 C 
ATOM     32  C   UNL     1      31.043  -8.913 -19.611  0.00  0.00    +0.058 C 
ATOM     33  C   UNL     1      31.565  -7.728 -19.108  0.00  0.00    +0.103 C 
ATOM     34  H   UNL     1      33.340  -5.424 -21.900  0.00  0.00    +0.154 HD
ENDBRANCH  24  28
ENDBRANCH   2  24
TORSDOF 5
ENDMDL
MODEL 5
REMARK VINA RESULT:     -12.3      4.152     11.532
REMARK  Name = 11560856
REMARK  5 active torsions:
REMARK  status: ('A' for Active; 'I' for Inactive)
REMARK    1  A    between atoms: C_2  and  O_24
REMARK    2  A    between atoms: C_3  and  N_10
REMARK    3  A    between atoms: C_12  and  C_16
REMARK    4  A    between atoms: C_16  and  C_18
REMARK    5  A    between atoms: O_24  and  C_28
REMARK                            x       y       z     vdW  Elec       q    Type
REMARK                         _______ _______ _______ _____ _____    ______ ____
ROOT
ATOM      1  F   UNL     1      30.946 -11.257 -20.504  0.00  0.00    -0.201 F 
ATOM      2  C   UNL     1      32.216 -11.390 -22.503  0.00  0.00    +0.173 C 
ATOM      3  C   UNL     1      33.295 -13.790 -21.640  0.00  0.00    +0.054 C 
ATOM      4  C   UNL     1      31.830 -11.904 -21.276  0.00  0.00    +0.176 C 
ATOM      5  C   UNL     1      33.130 -12.049 -23.308  0.00  0.00    +0.041 C 
ATOM      6  C   UNL     1      32.373 -13.113 -20.842  0.00  0.00    +0.047 C 
ATOM      7  C   UNL     1      33.673 -13.258 -22.873  0.00  0.00    +0.018 C 
ENDROOT
BRANCH   3  10
ATOM      8  O   UNL     1      34.678 -18.953 -22.656  0.00  0.00    -0.274 OA
ATOM      9  O   UNL     1      33.681 -16.382 -23.105  0.00  0.00    -0.252 OA
ATOM     10  N   UNL     1      33.836 -15.000 -21.206  0.00  0.00    -0.268 N 
ATOM     11  N   UNL     1      34.589 -17.192 -21.127  0.00  0.00    -0.239 N 
ATOM     12  C   UNL     1      34.889 -18.495 -21.535  0.00  0.00    +0.234 C 
ATOM     13  C   UNL     1      33.999 -16.199 -21.933  0.00  0.00    +0.310 C 
ATOM     14  H   UNL     1      34.145 -15.021 -20.273  0.00  0.00    +0.156 HD
ATOM     15  H   UNL     1      34.808 -16.949 -20.199  0.00  0.00    +0.159 HD
BRANCH  12  16
ATOM     16  C   UNL     1      35.517 -19.294 -20.410  0.00  0.00    +0.112 C 
BRANCH  16  18
ATOM     17  F   UNL     1      31.819 -22.439 -17.575  0.00  0.00    -0.204 F 
ATOM     18  C   UNL     1      34.526 -20.137 -19.651  0.00  0.00    -0.013 C 
ATOM     19  C   UNL     1      34.986 -21.080 -18.743  0.00  0.00    -0.001 C 
ATOM     20  C   UNL     1      33.168 -19.958 -19.870  0.00  0.00    -0.001 C 
ATOM     21  C   UNL     1      34.068 -21.861 -18.040  0.00  0.00    +0.029 C 
ATOM     22  C   UNL     1      32.250 -20.739 -19.167  0.00  0.00    +0.029 C 
ATOM     23  C   UNL     1      32.700 -21.689 -18.252  0.00  0.00    +0.140 C 
ENDBRANCH  16  18
ENDBRANCH  12  16
ENDBRANCH   3  10
BRANCH   2  24
ATOM     24  O   UNL     1      31.678 -10.193 -22.934  0.00  0.00    -0.451 OA
BRANCH  24  28
ATOM     25  N   UNL     1      32.174  -6.207 -20.578  0.00  0.00    -0.297 N 
ATOM     26  N   UNL     1      33.908  -6.687 -22.181  0.00  0.00    -0.229 NA
ATOM     27  C   UNL     1      31.965  -8.112 -21.726  0.00  0.00    +0.067 C 
ATOM     28  C   UNL     1      32.388  -9.053 -22.678  0.00  0.00    +0.150 C 
ATOM     29  C   UNL     1      32.762  -6.985 -21.541  0.00  0.00    +0.135 C 
ATOM     30  C   UNL     1      30.866  -7.989 -20.835  0.00  0.00    +0.022 C 
ATOM     31  C   UNL     1      31.022  -6.807 -20.142  0.00  0.00    +0.063 C 
ATOM     32  C   UNL     1      33.570  -8.794 -23.370  0.00  0.00    +0.058 C 
ATOM     33  C   UNL     1      34.267  -7.626 -23.086  0.00  0.00    +0.103 C 
ATOM     34  H   UNL     1      32.526  -5.348 -20.250  0.00  0.00    +0.154 HD
ENDBRANCH  24  28
ENDBRANCH   2  24
TORSDOF 5
ENDMDL
MODEL 6
REMARK VINA RESULT:     -12.1      2.550      4.166
REMARK  Name = 11560856
REMARK  5 active torsions:
REMARK  status: ('A' for Active; 'I' for Inactive)
REMARK    1  A    between atoms: C_2  and  O_24
REMARK    2  A    between atoms: C_3  and  N_10
REMARK    3  A    between atoms: C_12  and  C_16
REMARK    4  A    between atoms: C_16  and  C_18
REMARK    5  A    between atoms: O_24  and  C_28
REMARK                            x       y       z     vdW  Elec       q    Type
REMARK                         _______ _______ _______ _____ _____    ______ ____
ROOT
ATOM      1  F   UNL     1      32.304 -23.619 -15.592  0.00  0.00    -0.201 F 
ATOM      2  C   UNL     1      34.501 -23.000 -14.947  0.00  0.00    +0.173 C 
ATOM      3  C   UNL     1      34.766 -21.554 -17.294  0.00  0.00    +0.054 C 
ATOM      4  C   UNL     1      33.446 -22.965 -15.844  0.00  0.00    +0.176 C 
ATOM      5  C   UNL     1      35.686 -22.329 -15.198  0.00  0.00    +0.041 C 
ATOM      6  C   UNL     1      33.579 -22.235 -17.025  0.00  0.00    +0.047 C 
ATOM      7  C   UNL     1      35.819 -21.600 -16.380  0.00  0.00    +0.018 C 
ENDROOT
BRANCH   3  10
ATOM      8  O   UNL     1      32.507 -19.259 -21.679  0.00  0.00    -0.274 OA
ATOM      9  O   UNL     1      32.691 -20.674 -19.277  0.00  0.00    -0.252 OA
ATOM     10  N   UNL     1      34.899 -20.824 -18.475  0.00  0.00    -0.268 N 
ATOM     11  N   UNL     1      34.442 -19.703 -20.453  0.00  0.00    -0.239 N 
ATOM     12  C   UNL     1      33.723 -19.167 -21.525  0.00  0.00    +0.234 C 
ATOM     13  C   UNL     1      33.890 -20.431 -19.381  0.00  0.00    +0.310 C 
ATOM     14  H   UNL     1      35.813 -20.547 -18.707  0.00  0.00    +0.156 HD
ATOM     15  H   UNL     1      35.416 -19.559 -20.448  0.00  0.00    +0.159 HD
BRANCH  12  16
ATOM     16  C   UNL     1      34.637 -18.446 -22.497  0.00  0.00    +0.112 C 
BRANCH  16  18
ATOM     17  F   UNL     1      33.021 -13.171 -23.574  0.00  0.00    -0.204 F 
ATOM     18  C   UNL     1      34.206 -17.032 -22.786  0.00  0.00    -0.013 C 
ATOM     19  C   UNL     1      33.811 -16.688 -24.071  0.00  0.00    -0.001 C 
ATOM     20  C   UNL     1      34.207 -16.096 -21.762  0.00  0.00    -0.001 C 
ATOM     21  C   UNL     1      33.410 -15.378 -24.338  0.00  0.00    +0.029 C 
ATOM     22  C   UNL     1      33.806 -14.786 -22.030  0.00  0.00    +0.029 C 
ATOM     23  C   UNL     1      33.407 -14.428 -23.317  0.00  0.00    +0.140 C 
ENDBRANCH  16  18
ENDBRANCH  12  16
ENDBRANCH   3  10
BRANCH   2  24
ATOM     24  O   UNL     1      34.369 -23.721 -13.776  0.00  0.00    -0.451 OA
BRANCH  24  28
ATOM     25  N   UNL     1      38.516 -25.453 -12.559  0.00  0.00    -0.297 N 
ATOM     26  N   UNL     1      37.642 -23.739 -11.109  0.00  0.00    -0.229 NA
ATOM     27  C   UNL     1      36.528 -24.602 -13.115  0.00  0.00    +0.067 C 
ATOM     28  C   UNL     1      35.436 -23.739 -12.923  0.00  0.00    +0.150 C 
ATOM     29  C   UNL     1      37.564 -24.540 -12.187  0.00  0.00    +0.135 C 
ATOM     30  C   UNL     1      36.887 -25.590 -14.069  0.00  0.00    +0.022 C 
ATOM     31  C   UNL     1      38.116 -26.096 -13.701  0.00  0.00    +0.063 C 
ATOM     32  C   UNL     1      35.466 -22.887 -11.820  0.00  0.00    +0.058 C 
ATOM     33  C   UNL     1      36.565 -22.931 -10.972  0.00  0.00    +0.103 C 
ATOM     34  H   UNL     1      39.359 -25.620 -12.079  0.00  0.00    +0.154 HD
ENDBRANCH  24  28
ENDBRANCH   2  24
TORSDOF 5
ENDMDL
MODEL 7
REMARK VINA RESULT:     -12.0      3.106     10.672
REMARK  Name = 11560856
REMARK  5 active torsions:
REMARK  status: ('A' for Active; 'I' for Inactive)
REMARK    1  A    between atoms: C_2  and  O_24
REMARK    2  A    between atoms: C_3  and  N_10
REMARK    3  A    between atoms: C_12  and  C_16
REMARK    4  A    between atoms: C_16  and  C_18
REMARK    5  A    between atoms: O_24  and  C_28
REMARK                            x       y       z     vdW  Elec       q    Type
REMARK                         _______ _______ _______ _____ _____    ______ ____
ROOT
ATOM      1  F   UNL     1      37.066 -18.057 -21.344  0.00  0.00    -0.201 F 
ATOM      2  C   UNL     1      34.718 -18.387 -21.413  0.00  0.00    +0.173 C 
ATOM      3  C   UNL     1      34.938 -20.265 -19.390  0.00  0.00    +0.054 C 
ATOM      4  C   UNL     1      35.967 -18.673 -20.888  0.00  0.00    +0.176 C 
ATOM      5  C   UNL     1      33.576 -19.019 -20.950  0.00  0.00    +0.041 C 
ATOM      6  C   UNL     1      36.077 -19.619 -19.868  0.00  0.00    +0.047 C 
ATOM      7  C   UNL     1      33.687 -19.965 -19.931  0.00  0.00    +0.018 C 
ENDROOT
BRANCH   3  10
ATOM      8  O   UNL     1      36.974 -21.763 -14.573  0.00  0.00    -0.274 OA
ATOM      9  O   UNL     1      36.481 -20.174 -16.816  0.00  0.00    -0.252 OA
ATOM     10  N   UNL     1      35.049 -21.210 -18.370  0.00  0.00    -0.268 N 
ATOM     11  N   UNL     1      35.634 -22.297 -16.407  0.00  0.00    -0.239 N 
ATOM     12  C   UNL     1      36.231 -22.541 -15.167  0.00  0.00    +0.234 C 
ATOM     13  C   UNL     1      35.789 -21.124 -17.172  0.00  0.00    +0.310 C 
ATOM     14  H   UNL     1      34.546 -22.045 -18.502  0.00  0.00    +0.156 HD
ATOM     15  H   UNL     1      35.058 -23.004 -16.777  0.00  0.00    +0.159 HD
BRANCH  12  16
ATOM     16  C   UNL     1      35.847 -23.906 -14.630  0.00  0.00    +0.112 C 
BRANCH  16  18
ATOM     17  F   UNL     1      35.042 -23.962  -9.067  0.00  0.00    -0.204 F 
ATOM     18  C   UNL     1      35.631 -23.922 -13.139  0.00  0.00    -0.013 C 
ATOM     19  C   UNL     1      36.676 -24.285 -12.301  0.00  0.00    -0.001 C 
ATOM     20  C   UNL     1      34.391 -23.572 -12.626  0.00  0.00    -0.001 C 
ATOM     21  C   UNL     1      36.476 -24.300 -10.921  0.00  0.00    +0.029 C 
ATOM     22  C   UNL     1      34.191 -23.586 -11.245  0.00  0.00    +0.029 C 
ATOM     23  C   UNL     1      35.233 -23.949 -10.393  0.00  0.00    +0.140 C 
ENDBRANCH  16  18
ENDBRANCH  12  16
ENDBRANCH   3  10
BRANCH   2  24
ATOM     24  O   UNL     1      34.608 -17.450 -22.421  0.00  0.00    -0.451 OA
BRANCH  24  28
ATOM     25  N   UNL     1      32.399 -13.566 -23.731  0.00  0.00    -0.297 N 
ATOM     26  N   UNL     1      32.918 -13.721 -21.384  0.00  0.00    -0.229 NA
ATOM     27  C   UNL     1      33.460 -15.416 -23.070  0.00  0.00    +0.067 C 
ATOM     28  C   UNL     1      34.057 -16.241 -22.102  0.00  0.00    +0.150 C 
ATOM     29  C   UNL     1      32.927 -14.205 -22.639  0.00  0.00    +0.135 C 
ATOM     30  C   UNL     1      33.235 -15.491 -24.470  0.00  0.00    +0.022 C 
ATOM     31  C   UNL     1      32.581 -14.337 -24.848  0.00  0.00    +0.063 C 
ATOM     32  C   UNL     1      34.075 -15.788 -20.784  0.00  0.00    +0.058 C 
ATOM     33  C   UNL     1      33.507 -14.554 -20.494  0.00  0.00    +0.103 C 
ATOM     34  H   UNL     1      31.957 -12.686 -23.714  0.00  0.00    +0.154 HD
ENDBRANCH  24  28
ENDBRANCH   2  24
TORSDOF 5
ENDMDL
MODEL 8
REMARK VINA RESULT:     -11.7      4.005      5.532
REMARK  Name = 11560856
REMARK  5 active torsions:
REMARK  status: ('A' for Active; 'I' for Inactive)
REMARK    1  A    between atoms: C_2  and  O_24
REMARK    2  A    between atoms: C_3  and  N_10
REMARK    3  A    between atoms: C_12  and  C_16
REMARK    4  A    between atoms: C_16  and  C_18
REMARK    5  A    between atoms: O_24  and  C_28
REMARK                            x       y       z     vdW  Elec       q    Type
REMARK                         _______ _______ _______ _____ _____    ______ ____
ROOT
ATOM      1  F   UNL     1      34.428 -19.405 -23.498  0.00  0.00    -0.201 F 
ATOM      2  C   UNL     1      34.637 -18.421 -21.350  0.00  0.00    +0.173 C 
ATOM      3  C   UNL     1      34.231 -15.923 -22.471  0.00  0.00    +0.054 C 
ATOM      4  C   UNL     1      34.432 -18.317 -22.716  0.00  0.00    +0.176 C 
ATOM      5  C   UNL     1      34.644 -17.304 -20.532  0.00  0.00    +0.041 C 
ATOM      6  C   UNL     1      34.226 -17.058 -23.280  0.00  0.00    +0.047 C 
ATOM      7  C   UNL     1      34.439 -16.046 -21.097  0.00  0.00    +0.018 C 
ENDROOT
BRANCH   3  10
ATOM      8  O   UNL     1      32.199 -10.888 -22.114  0.00  0.00    -0.274 OA
ATOM      9  O   UNL     1      32.828 -13.506 -21.371  0.00  0.00    -0.252 OA
ATOM     10  N   UNL     1      34.024 -14.664 -23.035  0.00  0.00    -0.268 N 
ATOM     11  N   UNL     1      33.366 -12.466 -23.376  0.00  0.00    -0.239 N 
ATOM     12  C   UNL     1      32.792 -11.214 -23.140  0.00  0.00    +0.234 C 
ATOM     13  C   UNL     1      33.356 -13.552 -22.479  0.00  0.00    +0.310 C 
ATOM     14  H   UNL     1      34.391 -14.533 -23.939  0.00  0.00    +0.156 HD
ATOM     15  H   UNL     1      33.814 -12.600 -24.242  0.00  0.00    +0.159 HD
BRANCH  12  16
ATOM     16  C   UNL     1      32.991 -10.285 -24.322  0.00  0.00    +0.112 C 
BRANCH  16  18
ATOM     17  F   UNL     1      32.958  -4.845 -22.908  0.00  0.00    -0.204 F 
ATOM     18  C   UNL     1      32.983  -8.827 -23.944  0.00  0.00    -0.013 C 
ATOM     19  C   UNL     1      31.861  -8.057 -24.217  0.00  0.00    -0.001 C 
ATOM     20  C   UNL     1      34.096  -8.275 -23.327  0.00  0.00    -0.001 C 
ATOM     21  C   UNL     1      31.853  -6.707 -23.866  0.00  0.00    +0.029 C 
ATOM     22  C   UNL     1      34.089  -6.925 -22.977  0.00  0.00    +0.029 C 
ATOM     23  C   UNL     1      32.967  -6.142 -23.245  0.00  0.00    +0.140 C 
ENDBRANCH  16  18
ENDBRANCH  12  16
ENDBRANCH   3  10
BRANCH   2  24
ATOM     24  O   UNL     1      34.839 -19.668 -20.791  0.00  0.00    -0.451 OA
BRANCH  24  28
ATOM     25  N   UNL     1      33.530 -22.121 -17.056  0.00  0.00    -0.297 N 
ATOM     26  N   UNL     1      31.735 -21.208 -18.377  0.00  0.00    -0.229 NA
ATOM     27  C   UNL     1      34.124 -20.939 -18.855  0.00  0.00    +0.067 C 
ATOM     28  C   UNL     1      33.846 -20.174 -19.999  0.00  0.00    +0.150 C 
ATOM     29  C   UNL     1      33.040 -21.406 -18.117  0.00  0.00    +0.135 C 
ATOM     30  C   UNL     1      35.297 -21.399 -18.199  0.00  0.00    +0.022 C 
ATOM     31  C   UNL     1      34.900 -22.123 -17.095  0.00  0.00    +0.063 C 
ATOM     32  C   UNL     1      32.509 -19.937 -20.314  0.00  0.00    +0.058 C 
ATOM     33  C   UNL     1      31.525 -20.466 -19.489  0.00  0.00    +0.103 C 
ATOM     34  H   UNL     1      32.981 -22.564 -16.369  0.00  0.00    +0.154 HD
ENDBRANCH  24  28
ENDBRANCH   2  24
TORSDOF 5
ENDMDL
MODEL 9
REMARK VINA RESULT:     -11.7      6.637     13.592
REMARK  Name = 11560856
REMARK  5 active torsions:
REMARK  status: ('A' for Active; 'I' for Inactive)
REMARK    1  A    between atoms: C_2  and  O_24
REMARK    2  A    between atoms: C_3  and  N_10
REMARK    3  A    between atoms: C_12  and  C_16
REMARK    4  A    between atoms: C_16  and  C_18
REMARK    5  A    between atoms: O_24  and  C_28
REMARK                            x       y       z     vdW  Elec       q    Type
REMARK                         _______ _______ _______ _____ _____    ______ ____
ROOT
ATOM      1  F   UNL     1      35.031  -6.496 -22.497  0.00  0.00    -0.201 F 
ATOM      2  C   UNL     1      33.012  -6.632 -23.734  0.00  0.00    +0.173 C 
ATOM      3  C   UNL     1      33.346  -9.372 -23.949  0.00  0.00    +0.054 C 
ATOM      4  C   UNL     1      34.121  -7.227 -23.155  0.00  0.00    +0.176 C 
ATOM      5  C   UNL     1      32.066  -7.377 -24.417  0.00  0.00    +0.041 C 
ATOM      6  C   UNL     1      34.288  -8.607 -23.263  0.00  0.00    +0.047 C 
ATOM      7  C   UNL     1      32.234  -8.757 -24.526  0.00  0.00    +0.018 C 
ENDROOT
BRANCH   3  10
ATOM      8  O   UNL     1      32.555 -14.370 -21.949  0.00  0.00    -0.274 OA
ATOM      9  O   UNL     1      32.448 -11.584 -22.128  0.00  0.00    -0.252 OA
ATOM     10  N   UNL     1      33.513 -10.753 -24.055  0.00  0.00    -0.268 N 
ATOM     11  N   UNL     1      33.444 -13.035 -23.643  0.00  0.00    -0.239 N 
ATOM     12  C   UNL     1      33.166 -14.248 -23.008  0.00  0.00    +0.234 C 
ATOM     13  C   UNL     1      33.071 -11.761 -23.171  0.00  0.00    +0.310 C 
ATOM     14  H   UNL     1      34.002 -11.066 -24.849  0.00  0.00    +0.156 HD
ATOM     15  H   UNL     1      33.943 -13.073 -24.491  0.00  0.00    +0.159 HD
BRANCH  12  16
ATOM     16  C   UNL     1      33.717 -15.421 -23.797  0.00  0.00    +0.112 C 
BRANCH  16  18
ATOM     17  F   UNL     1      34.386 -20.065 -20.701  0.00  0.00    -0.204 F 
ATOM     18  C   UNL     1      33.897 -16.665 -22.968  0.00  0.00    -0.013 C 
ATOM     19  C   UNL     1      34.512 -16.576 -21.727  0.00  0.00    -0.001 C 
ATOM     20  C   UNL     1      33.444 -17.882 -23.456  0.00  0.00    -0.001 C 
ATOM     21  C   UNL     1      34.679 -17.729 -20.959  0.00  0.00    +0.029 C 
ATOM     22  C   UNL     1      33.610 -19.035 -22.688  0.00  0.00    +0.029 C 
ATOM     23  C   UNL     1      34.226 -18.958 -21.440  0.00  0.00    +0.140 C 
ENDBRANCH  16  18
ENDBRANCH  12  16
ENDBRANCH   3  10
BRANCH   2  24
ATOM     24  O   UNL     1      32.845  -5.265 -23.626  0.00  0.00    -0.451 OA
BRANCH  24  28
ATOM     25  N   UNL     1      30.069  -5.144 -19.891  0.00  0.00    -0.297 N 
ATOM     26  N   UNL     1      29.325  -3.843 -21.777  0.00  0.00    -0.229 NA
ATOM     27  C   UNL     1      31.378  -5.181 -21.699  0.00  0.00    +0.067 C 
ATOM     28  C   UNL     1      31.710  -4.814 -23.013  0.00  0.00    +0.150 C 
ATOM     29  C   UNL     1      30.199  -4.665 -21.168  0.00  0.00    +0.135 C 
ATOM     30  C   UNL     1      31.961  -5.995 -20.692  0.00  0.00    +0.022 C 
ATOM     31  C   UNL     1      31.133  -5.952 -19.591  0.00  0.00    +0.063 C 
ATOM     32  C   UNL     1      30.839  -3.962 -23.691  0.00  0.00    +0.058 C 
ATOM     33  C   UNL     1      29.693  -3.523 -23.039  0.00  0.00    +0.103 C 
ATOM     34  H   UNL     1      29.323  -4.937 -19.281  0.00  0.00    +0.154 HD
ENDBRANCH  24  28
ENDBRANCH   2  24
TORSDOF 5
ENDMDL
