MODEL 1
REMARK VINA RESULT:     -12.7      0.000      0.000
REMARK  Name = 16750097
REMARK  3 active torsions:
REMARK  status: ('A' for Active; 'I' for Inactive)
REMARK    1  A    between atoms: N_3  and  C_10
REMARK    2  A    between atoms: N_3  and  C_23
REMARK    3  A    between atoms: C_23  and  C_24
REMARK                            x       y       z     vdW  Elec       q    Type
REMARK                         _______ _______ _______ _____ _____    ______ ____
ROOT
ATOM      1  O   UNL     1      32.653 -15.023 -25.730  0.00  0.00    -0.209 OA
ATOM      2  N   UNL     1      33.926 -18.740 -22.241  0.00  0.00    -0.305 N 
ATOM      3  N   UNL     1      34.486 -17.724 -20.346  0.00  0.00    -0.305 N 
ATOM      4  N   UNL     1      33.673 -13.245 -22.289  0.00  0.00    -0.275 N 
ATOM      5  N   UNL     1      32.947 -13.082 -24.550  0.00  0.00    -0.302 NA
ATOM      6  N   UNL     1      33.289 -11.184 -23.220  0.00  0.00    -0.320 N 
ATOM      7  C   UNL     1      33.789 -17.398 -22.491  0.00  0.00    +0.061 C 
ATOM      8  C   UNL     1      34.143 -16.786 -21.293  0.00  0.00    +0.061 C 
ATOM      9  C   UNL     1      34.345 -18.884 -20.948  0.00  0.00    +0.208 C 
ATOM     10  C   UNL     1      33.721 -14.641 -22.329  0.00  0.00    +0.064 C 
ATOM     11  C   UNL     1      33.369 -15.296 -23.519  0.00  0.00    +0.110 C 
ATOM     12  C   UNL     1      33.395 -16.694 -23.630  0.00  0.00    +0.030 C 
ATOM     13  C   UNL     1      34.111 -15.384 -21.202  0.00  0.00    +0.031 C 
ATOM     14  C   UNL     1      32.963 -14.459 -24.685  0.00  0.00    +0.208 C 
ATOM     15  C   UNL     1      33.287 -12.543 -23.408  0.00  0.00    +0.248 C 
ATOM     16  H   UNL     1      33.755 -19.470 -22.878  0.00  0.00    +0.150 HD
ATOM     17  H   UNL     1      34.775 -17.561 -19.420  0.00  0.00    +0.150 HD
ATOM     18  H   UNL     1      33.915 -12.765 -21.465  0.00  0.00    +0.156 HD
ATOM     19  H   UNL     1      33.551 -10.808 -22.348  0.00  0.00    +0.146 HD
ATOM     20  H   UNL     1      33.030 -10.585 -23.957  0.00  0.00    +0.146 HD
ENDROOT
BRANCH   9  21
ATOM     21  N   UNL     1      34.551 -20.132 -20.476  0.00  0.00    -0.263 NA
ATOM     22  H   UNL     1      34.168 -20.884 -20.984  0.00  0.00    +0.127 HD
BRANCH  21  23
ATOM     23  C   UNL     1      35.298 -20.444 -19.270  0.00  0.00    +0.098 C 
BRANCH  23  24
ATOM     24  C   UNL     1      34.448 -21.232 -18.312  0.00  0.00    -0.006 C 
ATOM     25  C   UNL     1      34.941 -21.684 -17.078  0.00  0.00    -0.003 C 
ATOM     26  C   UNL     1      34.091 -22.422 -16.220  0.00  0.00    -0.000 C 
ATOM     27  C   UNL     1      33.135 -21.505 -18.696  0.00  0.00    -0.003 C 
ATOM     28  C   UNL     1      36.261 -21.419 -16.674  0.00  0.00    -0.000 C 
ATOM     29  C   UNL     1      32.772 -22.687 -16.623  0.00  0.00    -0.000 C 
ATOM     30  C   UNL     1      32.298 -22.230 -17.854  0.00  0.00    -0.000 C 
ATOM     31  C   UNL     1      34.584 -22.873 -14.985  0.00  0.00    -0.000 C 
ATOM     32  C   UNL     1      36.734 -21.876 -15.444  0.00  0.00    -0.000 C 
ATOM     33  C   UNL     1      35.897 -22.601 -14.601  0.00  0.00    -0.000 C 
ENDBRANCH  23  24
ENDBRANCH  21  23
ENDBRANCH   9  21
TORSDOF 3
ENDMDL
MODEL 2
REMARK VINA RESULT:     -12.3      1.313      2.718
REMARK  Name = 16750097
REMARK  3 active torsions:
REMARK  status: ('A' for Active; 'I' for Inactive)
REMARK    1  A    between atoms: N_3  and  C_10
REMARK    2  A    between atoms: N_3  and  C_23
REMARK    3  A    between atoms: C_23  and  C_24
REMARK                            x       y       z     vdW  Elec       q    Type
REMARK                         _______ _______ _______ _____ _____    ______ ____
ROOT
ATOM      1  O   UNL     1      33.759 -12.783 -21.683  0.00  0.00    -0.209 OA
ATOM      2  N   UNL     1      34.715 -17.726 -20.180  0.00  0.00    -0.305 N 
ATOM      3  N   UNL     1      34.223 -19.058 -21.889  0.00  0.00    -0.305 N 
ATOM      4  N   UNL     1      32.888 -15.232 -24.730  0.00  0.00    -0.275 N 
ATOM      5  N   UNL     1      33.016 -13.031 -23.835  0.00  0.00    -0.302 NA
ATOM      6  N   UNL     1      32.275 -13.437 -26.020  0.00  0.00    -0.320 N 
ATOM      7  C   UNL     1      34.288 -16.893 -21.183  0.00  0.00    +0.061 C 
ATOM      8  C   UNL     1      33.988 -17.748 -22.238  0.00  0.00    +0.061 C 
ATOM      9  C   UNL     1      34.658 -19.009 -20.650  0.00  0.00    +0.208 C 
ATOM     10  C   UNL     1      33.357 -15.817 -23.550  0.00  0.00    +0.064 C 
ATOM     11  C   UNL     1      33.671 -14.987 -22.464  0.00  0.00    +0.110 C 
ATOM     12  C   UNL     1      34.146 -15.506 -21.249  0.00  0.00    +0.030 C 
ATOM     13  C   UNL     1      33.514 -17.209 -23.446  0.00  0.00    +0.031 C 
ATOM     14  C   UNL     1      33.486 -13.517 -22.628  0.00  0.00    +0.208 C 
ATOM     15  C   UNL     1      32.745 -13.866 -24.804  0.00  0.00    +0.248 C 
ATOM     16  H   UNL     1      35.010 -17.451 -19.283  0.00  0.00    +0.150 HD
ATOM     17  H   UNL     1      34.094 -19.859 -22.447  0.00  0.00    +0.150 HD
ATOM     18  H   UNL     1      32.662 -15.795 -25.505  0.00  0.00    +0.156 HD
ATOM     19  H   UNL     1      32.080 -14.091 -26.730  0.00  0.00    +0.146 HD
ATOM     20  H   UNL     1      32.134 -12.477 -26.183  0.00  0.00    +0.146 HD
ENDROOT
BRANCH   9  21
ATOM     21  N   UNL     1      35.035 -20.010 -19.826  0.00  0.00    -0.263 NA
ATOM     22  H   UNL     1      35.979 -20.045 -19.549  0.00  0.00    +0.127 HD
BRANCH  21  23
ATOM     23  C   UNL     1      34.144 -21.039 -19.319  0.00  0.00    +0.098 C 
BRANCH  23  24
ATOM     24  C   UNL     1      34.556 -21.459 -17.935  0.00  0.00    -0.006 C 
ATOM     25  C   UNL     1      33.651 -22.041 -17.034  0.00  0.00    -0.003 C 
ATOM     26  C   UNL     1      34.102 -22.415 -15.744  0.00  0.00    -0.000 C 
ATOM     27  C   UNL     1      35.887 -21.248 -17.572  0.00  0.00    -0.003 C 
ATOM     28  C   UNL     1      32.309 -22.261 -17.382  0.00  0.00    -0.000 C 
ATOM     29  C   UNL     1      35.444 -22.194 -15.396  0.00  0.00    -0.000 C 
ATOM     30  C   UNL     1      36.330 -21.615 -16.305  0.00  0.00    -0.000 C 
ATOM     31  C   UNL     1      33.197 -22.997 -14.843  0.00  0.00    -0.000 C 
ATOM     32  C   UNL     1      31.423 -22.840 -16.472  0.00  0.00    -0.000 C 
ATOM     33  C   UNL     1      31.867 -23.208 -15.205  0.00  0.00    -0.000 C 
ENDBRANCH  23  24
ENDBRANCH  21  23
ENDBRANCH   9  21
TORSDOF 3
ENDMDL
MODEL 3
REMARK VINA RESULT:     -12.1      3.372      9.090
REMARK  Name = 16750097
REMARK  3 active torsions:
REMARK  status: ('A' for Active; 'I' for Inactive)
REMARK    1  A    between atoms: N_3  and  C_10
REMARK    2  A    between atoms: N_3  and  C_23
REMARK    3  A    between atoms: C_23  and  C_24
REMARK                            x       y       z     vdW  Elec       q    Type
REMARK                         _______ _______ _______ _____ _____    ______ ____
ROOT
ATOM      1  O   UNL     1      35.460 -22.487 -16.256  0.00  0.00    -0.209 OA
ATOM      2  N   UNL     1      34.977 -19.531 -20.573  0.00  0.00    -0.305 N 
ATOM      3  N   UNL     1      32.816 -19.420 -21.076  0.00  0.00    -0.305 N 
ATOM      4  N   UNL     1      31.578 -22.251 -17.211  0.00  0.00    -0.275 N 
ATOM      5  N   UNL     1      33.296 -23.061 -15.777  0.00  0.00    -0.302 NA
ATOM      6  N   UNL     1      31.038 -23.567 -15.412  0.00  0.00    -0.320 N 
ATOM      7  C   UNL     1      34.339 -20.272 -19.612  0.00  0.00    +0.061 C 
ATOM      8  C   UNL     1      32.991 -20.186 -19.947  0.00  0.00    +0.061 C 
ATOM      9  C   UNL     1      34.026 -19.043 -21.425  0.00  0.00    +0.208 C 
ATOM     10  C   UNL     1      32.483 -21.577 -18.035  0.00  0.00    +0.064 C 
ATOM     11  C   UNL     1      33.851 -21.638 -17.728  0.00  0.00    +0.110 C 
ATOM     12  C   UNL     1      34.815 -20.987 -18.511  0.00  0.00    +0.030 C 
ATOM     13  C   UNL     1      32.041 -20.847 -19.150  0.00  0.00    +0.031 C 
ATOM     14  C   UNL     1      34.266 -22.427 -16.532  0.00  0.00    +0.208 C 
ATOM     15  C   UNL     1      32.039 -22.958 -16.124  0.00  0.00    +0.248 C 
ATOM     16  H   UNL     1      35.947 -19.377 -20.639  0.00  0.00    +0.150 HD
ATOM     17  H   UNL     1      31.968 -19.201 -21.526  0.00  0.00    +0.150 HD
ATOM     18  H   UNL     1      30.614 -22.221 -17.407  0.00  0.00    +0.156 HD
ATOM     19  H   UNL     1      30.101 -23.471 -15.699  0.00  0.00    +0.146 HD
ATOM     20  H   UNL     1      31.256 -24.101 -14.614  0.00  0.00    +0.146 HD
ENDROOT
BRANCH   9  21
ATOM     21  N   UNL     1      34.427 -18.277 -22.462  0.00  0.00    -0.263 NA
ATOM     22  H   UNL     1      34.302 -18.634 -23.371  0.00  0.00    +0.127 HD
BRANCH  21  23
ATOM     23  C   UNL     1      35.029 -16.962 -22.330  0.00  0.00    +0.098 C 
BRANCH  23  24
ATOM     24  C   UNL     1      34.108 -15.903 -22.872  0.00  0.00    -0.006 C 
ATOM     25  C   UNL     1      33.484 -14.962 -22.039  0.00  0.00    -0.003 C 
ATOM     26  C   UNL     1      32.628 -13.990 -22.611  0.00  0.00    -0.000 C 
ATOM     27  C   UNL     1      33.891 -15.889 -24.251  0.00  0.00    -0.003 C 
ATOM     28  C   UNL     1      33.690 -14.961 -20.650  0.00  0.00    -0.000 C 
ATOM     29  C   UNL     1      32.421 -13.991 -24.001  0.00  0.00    -0.000 C 
ATOM     30  C   UNL     1      33.050 -14.934 -24.814  0.00  0.00    -0.000 C 
ATOM     31  C   UNL     1      32.004 -13.049 -21.778  0.00  0.00    -0.000 C 
ATOM     32  C   UNL     1      33.061 -14.018 -19.837  0.00  0.00    -0.000 C 
ATOM     33  C   UNL     1      32.220 -13.063 -20.400  0.00  0.00    -0.000 C 
ENDBRANCH  23  24
ENDBRANCH  21  23
ENDBRANCH   9  21
TORSDOF 3
ENDMDL
MODEL 4
REMARK VINA RESULT:     -12.1      3.188      9.517
REMARK  Name = 16750097
REMARK  3 active torsions:
REMARK  status: ('A' for Active; 'I' for Inactive)
REMARK    1  A    between atoms: N_3  and  C_10
REMARK    2  A    between atoms: N_3  and  C_23
REMARK    3  A    between atoms: C_23  and  C_24
REMARK                            x       y       z     vdW  Elec       q    Type
REMARK                         _______ _______ _______ _____ _____    ______ ____
ROOT
ATOM      1  O   UNL     1      35.846 -22.081 -16.676  0.00  0.00    -0.209 OA
ATOM      2  N   UNL     1      35.248 -19.030 -20.912  0.00  0.00    -0.305 N 
ATOM      3  N   UNL     1      33.091 -19.031 -21.445  0.00  0.00    -0.305 N 
ATOM      4  N   UNL     1      31.970 -22.046 -17.683  0.00  0.00    -0.275 N 
ATOM      5  N   UNL     1      33.713 -22.797 -16.248  0.00  0.00    -0.302 NA
ATOM      6  N   UNL     1      31.484 -23.446 -15.932  0.00  0.00    -0.320 N 
ATOM      7  C   UNL     1      34.641 -19.836 -19.983  0.00  0.00    +0.061 C 
ATOM      8  C   UNL     1      33.296 -19.820 -20.336  0.00  0.00    +0.061 C 
ATOM      9  C   UNL     1      34.281 -18.573 -21.764  0.00  0.00    +0.208 C 
ATOM     10  C   UNL     1      32.845 -21.295 -18.473  0.00  0.00    +0.064 C 
ATOM     11  C   UNL     1      34.210 -21.285 -18.147  0.00  0.00    +0.110 C 
ATOM     12  C   UNL     1      35.144 -20.554 -18.896  0.00  0.00    +0.030 C 
ATOM     13  C   UNL     1      32.375 -20.559 -19.574  0.00  0.00    +0.031 C 
ATOM     14  C   UNL     1      34.654 -22.084 -16.969  0.00  0.00    +0.208 C 
ATOM     15  C   UNL     1      32.458 -22.757 -16.611  0.00  0.00    +0.248 C 
ATOM     16  H   UNL     1      36.207 -18.818 -20.958  0.00  0.00    +0.150 HD
ATOM     17  H   UNL     1      32.237 -18.849 -21.901  0.00  0.00    +0.150 HD
ATOM     18  H   UNL     1      31.009 -22.067 -17.893  0.00  0.00    +0.156 HD
ATOM     19  H   UNL     1      30.548 -23.396 -16.231  0.00  0.00    +0.146 HD
ATOM     20  H   UNL     1      31.723 -23.989 -15.147  0.00  0.00    +0.146 HD
ENDROOT
BRANCH   9  21
ATOM     21  N   UNL     1      34.650 -17.754 -22.772  0.00  0.00    -0.263 NA
ATOM     22  H   UNL     1      35.606 -17.712 -23.001  0.00  0.00    +0.127 HD
BRANCH  21  23
ATOM     23  C   UNL     1      33.734 -16.931 -23.541  0.00  0.00    +0.098 C 
BRANCH  23  24
ATOM     24  C   UNL     1      33.628 -15.557 -22.941  0.00  0.00    -0.006 C 
ATOM     25  C   UNL     1      33.276 -14.434 -23.707  0.00  0.00    -0.003 C 
ATOM     26  C   UNL     1      33.194 -13.167 -23.082  0.00  0.00    -0.000 C 
ATOM     27  C   UNL     1      33.894 -15.431 -21.577  0.00  0.00    -0.003 C 
ATOM     28  C   UNL     1      33.005 -14.540 -25.081  0.00  0.00    -0.000 C 
ATOM     29  C   UNL     1      33.466 -13.060 -21.708  0.00  0.00    -0.000 C 
ATOM     30  C   UNL     1      33.813 -14.187 -20.961  0.00  0.00    -0.000 C 
ATOM     31  C   UNL     1      32.843 -12.044 -23.848  0.00  0.00    -0.000 C 
ATOM     32  C   UNL     1      32.658 -13.414 -25.828  0.00  0.00    -0.000 C 
ATOM     33  C   UNL     1      32.576 -12.168 -25.212  0.00  0.00    -0.000 C 
ENDBRANCH  23  24
ENDBRANCH  21  23
ENDBRANCH   9  21
TORSDOF 3
ENDMDL
MODEL 5
REMARK VINA RESULT:     -11.9      3.438      5.931
REMARK  Name = 16750097
REMARK  3 active torsions:
REMARK  status: ('A' for Active; 'I' for Inactive)
REMARK    1  A    between atoms: N_3  and  C_10
REMARK    2  A    between atoms: N_3  and  C_23
REMARK    3  A    between atoms: C_23  and  C_24
REMARK                            x       y       z     vdW  Elec       q    Type
REMARK                         _______ _______ _______ _____ _____    ______ ____
ROOT
ATOM      1  O   UNL     1      36.874 -18.644 -20.979  0.00  0.00    -0.209 OA
ATOM      2  N   UNL     1      34.250 -21.740 -17.642  0.00  0.00    -0.305 N 
ATOM      3  N   UNL     1      32.112 -21.723 -18.245  0.00  0.00    -0.305 N 
ATOM      4  N   UNL     1      33.007 -18.652 -22.021  0.00  0.00    -0.275 N 
ATOM      5  N   UNL     1      35.235 -17.902 -22.395  0.00  0.00    -0.302 NA
ATOM      6  N   UNL     1      33.456 -17.227 -23.762  0.00  0.00    -0.320 N 
ATOM      7  C   UNL     1      34.184 -20.916 -18.737  0.00  0.00    +0.061 C 
ATOM      8  C   UNL     1      32.840 -20.923 -19.095  0.00  0.00    +0.061 C 
ATOM      9  C   UNL     1      32.987 -22.197 -17.387  0.00  0.00    +0.208 C 
ATOM     10  C   UNL     1      33.375 -19.421 -20.914  0.00  0.00    +0.064 C 
ATOM     11  C   UNL     1      34.722 -19.441 -20.522  0.00  0.00    +0.110 C 
ATOM     12  C   UNL     1      35.162 -20.191 -19.421  0.00  0.00    +0.030 C 
ATOM     13  C   UNL     1      32.420 -20.166 -20.201  0.00  0.00    +0.031 C 
ATOM     14  C   UNL     1      35.693 -18.633 -21.314  0.00  0.00    +0.208 C 
ATOM     15  C   UNL     1      33.964 -17.933 -22.701  0.00  0.00    +0.248 C 
ATOM     16  H   UNL     1      35.060 -21.963 -17.130  0.00  0.00    +0.150 HD
ATOM     17  H   UNL     1      31.144 -21.902 -18.274  0.00  0.00    +0.150 HD
ATOM     18  H   UNL     1      32.068 -18.624 -22.314  0.00  0.00    +0.156 HD
ATOM     19  H   UNL     1      32.494 -17.270 -23.966  0.00  0.00    +0.146 HD
ATOM     20  H   UNL     1      34.053 -16.676 -24.318  0.00  0.00    +0.146 HD
ENDROOT
BRANCH   9  21
ATOM     21  N   UNL     1      32.806 -23.032 -16.341  0.00  0.00    -0.263 NA
ATOM     22  H   UNL     1      32.794 -24.000 -16.524  0.00  0.00    +0.127 HD
BRANCH  21  23
ATOM     23  C   UNL     1      32.630 -22.603 -14.965  0.00  0.00    +0.098 C 
BRANCH  23  24
ATOM     24  C   UNL     1      31.553 -23.411 -14.294  0.00  0.00    -0.006 C 
ATOM     25  C   UNL     1      30.203 -23.302 -14.661  0.00  0.00    -0.003 C 
ATOM     26  C   UNL     1      29.237 -24.090 -13.990  0.00  0.00    -0.000 C 
ATOM     27  C   UNL     1      31.947 -24.284 -13.280  0.00  0.00    -0.003 C 
ATOM     28  C   UNL     1      29.788 -22.427 -15.679  0.00  0.00    -0.000 C 
ATOM     29  C   UNL     1      29.652 -24.964 -12.972  0.00  0.00    -0.000 C 
ATOM     30  C   UNL     1      30.999 -25.060 -12.621  0.00  0.00    -0.000 C 
ATOM     31  C   UNL     1      27.886 -23.981 -14.357  0.00  0.00    -0.000 C 
ATOM     32  C   UNL     1      28.441 -22.331 -16.030  0.00  0.00    -0.000 C 
ATOM     33  C   UNL     1      27.492 -23.107 -15.371  0.00  0.00    -0.000 C 
ENDBRANCH  23  24
ENDBRANCH  21  23
ENDBRANCH   9  21
TORSDOF 3
ENDMDL
MODEL 6
REMARK VINA RESULT:     -11.8      3.834      9.709
REMARK  Name = 16750097
REMARK  3 active torsions:
REMARK  status: ('A' for Active; 'I' for Inactive)
REMARK    1  A    between atoms: N_3  and  C_10
REMARK    2  A    between atoms: N_3  and  C_23
REMARK    3  A    between atoms: C_23  and  C_24
REMARK                            x       y       z     vdW  Elec       q    Type
REMARK                         _______ _______ _______ _____ _____    ______ ____
ROOT
ATOM      1  O   UNL     1      36.888 -22.764 -14.729  0.00  0.00    -0.209 OA
ATOM      2  N   UNL     1      35.372 -20.283 -19.105  0.00  0.00    -0.305 N 
ATOM      3  N   UNL     1      33.205 -20.681 -19.390  0.00  0.00    -0.305 N 
ATOM      4  N   UNL     1      32.982 -23.448 -15.293  0.00  0.00    -0.275 N 
ATOM      5  N   UNL     1      34.959 -23.765 -14.006  0.00  0.00    -0.302 NA
ATOM      6  N   UNL     1      32.914 -24.727 -13.390  0.00  0.00    -0.320 N 
ATOM      7  C   UNL     1      35.004 -21.079 -18.051  0.00  0.00    +0.061 C 
ATOM      8  C   UNL     1      33.647 -21.313 -18.251  0.00  0.00    +0.061 C 
ATOM      9  C   UNL     1      34.263 -20.073 -19.877  0.00  0.00    +0.208 C 
ATOM     10  C   UNL     1      33.636 -22.649 -16.235  0.00  0.00    +0.064 C 
ATOM     11  C   UNL     1      35.005 -22.389 -16.066  0.00  0.00    +0.110 C 
ATOM     12  C   UNL     1      35.725 -21.597 -16.973  0.00  0.00    +0.030 C 
ATOM     13  C   UNL     1      32.944 -22.110 -17.332  0.00  0.00    +0.031 C 
ATOM     14  C   UNL     1      35.691 -22.986 -14.885  0.00  0.00    +0.208 C 
ATOM     15  C   UNL     1      33.686 -23.962 -14.228  0.00  0.00    +0.248 C 
ATOM     16  H   UNL     1      36.273 -19.926 -19.276  0.00  0.00    +0.150 HD
ATOM     17  H   UNL     1      32.292 -20.683 -19.760  0.00  0.00    +0.150 HD
ATOM     18  H   UNL     1      32.023 -23.643 -15.391  0.00  0.00    +0.156 HD
ATOM     19  H   UNL     1      31.957 -24.857 -13.584  0.00  0.00    +0.146 HD
ATOM     20  H   UNL     1      33.316 -25.145 -12.595  0.00  0.00    +0.146 HD
ENDROOT
BRANCH   9  21
ATOM     21  N   UNL     1      34.388 -19.309 -20.984  0.00  0.00    -0.263 NA
ATOM     22  H   UNL     1      34.075 -19.685 -21.838  0.00  0.00    +0.127 HD
BRANCH  21  23
ATOM     23  C   UNL     1      34.951 -17.970 -21.001  0.00  0.00    +0.098 C 
BRANCH  23  24
ATOM     24  C   UNL     1      34.305 -17.140 -22.076  0.00  0.00    -0.006 C 
ATOM     25  C   UNL     1      33.826 -15.844 -21.828  0.00  0.00    -0.003 C 
ATOM     26  C   UNL     1      33.227 -15.114 -22.883  0.00  0.00    -0.000 C 
ATOM     27  C   UNL     1      34.195 -17.709 -23.345  0.00  0.00    -0.003 C 
ATOM     28  C   UNL     1      33.927 -15.256 -20.557  0.00  0.00    -0.000 C 
ATOM     29  C   UNL     1      33.125 -15.703 -24.154  0.00  0.00    -0.000 C 
ATOM     30  C   UNL     1      33.607 -16.992 -24.382  0.00  0.00    -0.000 C 
ATOM     31  C   UNL     1      32.748 -13.818 -22.635  0.00  0.00    -0.000 C 
ATOM     32  C   UNL     1      33.445 -13.966 -20.329  0.00  0.00    -0.000 C 
ATOM     33  C   UNL     1      32.857 -13.249 -21.366  0.00  0.00    -0.000 C 
ENDBRANCH  23  24
ENDBRANCH  21  23
ENDBRANCH   9  21
TORSDOF 3
ENDMDL
MODEL 7
REMARK VINA RESULT:     -11.8      3.380      9.477
REMARK  Name = 16750097
REMARK  3 active torsions:
REMARK  status: ('A' for Active; 'I' for Inactive)
REMARK    1  A    between atoms: N_3  and  C_10
REMARK    2  A    between atoms: N_3  and  C_23
REMARK    3  A    between atoms: C_23  and  C_24
REMARK                            x       y       z     vdW  Elec       q    Type
REMARK                         _______ _______ _______ _____ _____    ______ ____
ROOT
ATOM      1  O   UNL     1      31.970 -23.191 -16.133  0.00  0.00    -0.209 OA
ATOM      2  N   UNL     1      32.957 -20.072 -20.245  0.00  0.00    -0.305 N 
ATOM      3  N   UNL     1      35.123 -19.578 -20.213  0.00  0.00    -0.305 N 
ATOM      4  N   UNL     1      35.867 -22.267 -16.125  0.00  0.00    -0.275 N 
ATOM      5  N   UNL     1      34.021 -23.399 -15.137  0.00  0.00    -0.302 NA
ATOM      6  N   UNL     1      36.178 -23.520 -14.230  0.00  0.00    -0.320 N 
ATOM      7  C   UNL     1      33.464 -20.720 -19.148  0.00  0.00    +0.061 C 
ATOM      8  C   UNL     1      34.817 -20.397 -19.150  0.00  0.00    +0.061 C 
ATOM      9  C   UNL     1      33.986 -19.403 -20.848  0.00  0.00    +0.208 C 
ATOM     10  C   UNL     1      35.083 -21.734 -17.152  0.00  0.00    +0.064 C 
ATOM     11  C   UNL     1      33.714 -22.038 -17.185  0.00  0.00    +0.110 C 
ATOM     12  C   UNL     1      32.868 -21.537 -18.185  0.00  0.00    +0.030 C 
ATOM     13  C   UNL     1      35.648 -20.908 -18.139  0.00  0.00    +0.031 C 
ATOM     14  C   UNL     1      33.167 -22.919 -16.113  0.00  0.00    +0.208 C 
ATOM     15  C   UNL     1      35.287 -23.073 -15.173  0.00  0.00    +0.248 C 
ATOM     16  H   UNL     1      32.020 -20.084 -20.545  0.00  0.00    +0.150 HD
ATOM     17  H   UNL     1      36.003 -19.204 -20.446  0.00  0.00    +0.150 HD
ATOM     18  H   UNL     1      36.830 -22.067 -16.083  0.00  0.00    +0.156 HD
ATOM     19  H   UNL     1      37.125 -23.257 -14.283  0.00  0.00    +0.146 HD
ATOM     20  H   UNL     1      35.870 -24.104 -13.499  0.00  0.00    +0.146 HD
ENDROOT
BRANCH   9  21
ATOM     21  N   UNL     1      33.719 -18.685 -21.961  0.00  0.00    -0.263 NA
ATOM     22  H   UNL     1      32.906 -18.911 -22.468  0.00  0.00    +0.127 HD
BRANCH  21  23
ATOM     23  C   UNL     1      34.547 -17.602 -22.460  0.00  0.00    +0.098 C 
BRANCH  23  24
ATOM     24  C   UNL     1      34.026 -16.276 -21.982  0.00  0.00    -0.006 C 
ATOM     25  C   UNL     1      33.488 -15.325 -22.865  0.00  0.00    -0.003 C 
ATOM     26  C   UNL     1      33.014 -14.094 -22.352  0.00  0.00    -0.000 C 
ATOM     27  C   UNL     1      34.096 -16.015 -20.613  0.00  0.00    -0.003 C 
ATOM     28  C   UNL     1      33.410 -15.569 -24.246  0.00  0.00    -0.000 C 
ATOM     29  C   UNL     1      33.093 -13.850 -20.971  0.00  0.00    -0.000 C 
ATOM     30  C   UNL     1      33.630 -14.806 -20.108  0.00  0.00    -0.000 C 
ATOM     31  C   UNL     1      32.476 -13.144 -23.234  0.00  0.00    -0.000 C 
ATOM     32  C   UNL     1      32.873 -14.613 -25.108  0.00  0.00    -0.000 C 
ATOM     33  C   UNL     1      32.406 -13.403 -24.603  0.00  0.00    -0.000 C 
ENDBRANCH  23  24
ENDBRANCH  21  23
ENDBRANCH   9  21
TORSDOF 3
ENDMDL
MODEL 8
REMARK VINA RESULT:     -11.7      4.598     10.043
REMARK  Name = 16750097
REMARK  3 active torsions:
REMARK  status: ('A' for Active; 'I' for Inactive)
REMARK    1  A    between atoms: N_3  and  C_10
REMARK    2  A    between atoms: N_3  and  C_23
REMARK    3  A    between atoms: C_23  and  C_24
REMARK                            x       y       z     vdW  Elec       q    Type
REMARK                         _______ _______ _______ _____ _____    ______ ____
ROOT
ATOM      1  O   UNL     1      34.219 -24.034 -13.200  0.00  0.00    -0.209 OA
ATOM      2  N   UNL     1      34.147 -21.691 -17.903  0.00  0.00    -0.305 N 
ATOM      3  N   UNL     1      32.023 -21.478 -18.518  0.00  0.00    -0.305 N 
ATOM      4  N   UNL     1      30.408 -23.623 -14.361  0.00  0.00    -0.275 N 
ATOM      5  N   UNL     1      31.998 -24.358 -12.749  0.00  0.00    -0.302 NA
ATOM      6  N   UNL     1      29.693 -24.623 -12.424  0.00  0.00    -0.320 N 
ATOM      7  C   UNL     1      33.413 -22.234 -16.880  0.00  0.00    +0.061 C 
ATOM      8  C   UNL     1      32.091 -22.089 -17.287  0.00  0.00    +0.061 C 
ATOM      9  C   UNL     1      33.273 -21.253 -18.858  0.00  0.00    +0.208 C 
ATOM     10  C   UNL     1      31.397 -23.148 -15.226  0.00  0.00    +0.064 C 
ATOM     11  C   UNL     1      32.743 -23.276 -14.850  0.00  0.00    +0.110 C 
ATOM     12  C   UNL     1      33.787 -22.822 -15.669  0.00  0.00    +0.030 C 
ATOM     13  C   UNL     1      31.060 -22.550 -16.452  0.00  0.00    +0.031 C 
ATOM     14  C   UNL     1      33.045 -23.918 -13.538  0.00  0.00    +0.208 C 
ATOM     15  C   UNL     1      30.768 -24.204 -13.166  0.00  0.00    +0.248 C 
ATOM     16  H   UNL     1      35.128 -21.627 -17.943  0.00  0.00    +0.150 HD
ATOM     17  H   UNL     1      31.214 -21.257 -19.033  0.00  0.00    +0.150 HD
ATOM     18  H   UNL     1      29.458 -23.544 -14.604  0.00  0.00    +0.156 HD
ATOM     19  H   UNL     1      28.779 -24.493 -12.766  0.00  0.00    +0.146 HD
ATOM     20  H   UNL     1      29.835 -25.054 -11.551  0.00  0.00    +0.146 HD
ENDROOT
BRANCH   9  21
ATOM     21  N   UNL     1      33.775 -20.677 -19.971  0.00  0.00    -0.263 NA
ATOM     22  H   UNL     1      33.736 -21.190 -20.811  0.00  0.00    +0.127 HD
BRANCH  21  23
ATOM     23  C   UNL     1      34.368 -19.352 -20.017  0.00  0.00    +0.098 C 
BRANCH  23  24
ATOM     24  C   UNL     1      34.138 -18.717 -21.360  0.00  0.00    -0.006 C 
ATOM     25  C   UNL     1      33.991 -17.330 -21.513  0.00  0.00    -0.003 C 
ATOM     26  C   UNL     1      33.777 -16.793 -22.805  0.00  0.00    -0.000 C 
ATOM     27  C   UNL     1      34.075 -19.565 -22.467  0.00  0.00    -0.003 C 
ATOM     28  C   UNL     1      34.051 -16.461 -20.411  0.00  0.00    -0.000 C 
ATOM     29  C   UNL     1      33.716 -17.662 -23.907  0.00  0.00    -0.000 C 
ATOM     30  C   UNL     1      33.866 -19.039 -23.737  0.00  0.00    -0.000 C 
ATOM     31  C   UNL     1      33.629 -15.406 -22.958  0.00  0.00    -0.000 C 
ATOM     32  C   UNL     1      33.901 -15.084 -20.581  0.00  0.00    -0.000 C 
ATOM     33  C   UNL     1      33.691 -14.557 -21.852  0.00  0.00    -0.000 C 
ENDBRANCH  23  24
ENDBRANCH  21  23
ENDBRANCH   9  21
TORSDOF 3
ENDMDL
MODEL 9
REMARK VINA RESULT:     -11.5      4.065      9.797
REMARK  Name = 16750097
REMARK  3 active torsions:
REMARK  status: ('A' for Active; 'I' for Inactive)
REMARK    1  A    between atoms: N_3  and  C_10
REMARK    2  A    between atoms: N_3  and  C_23
REMARK    3  A    between atoms: C_23  and  C_24
REMARK                            x       y       z     vdW  Elec       q    Type
REMARK                         _______ _______ _______ _____ _____    ______ ____
ROOT
ATOM      1  O   UNL     1      30.450 -23.680 -15.126  0.00  0.00    -0.209 OA
ATOM      2  N   UNL     1      33.119 -21.163 -18.887  0.00  0.00    -0.305 N 
ATOM      3  N   UNL     1      35.237 -21.024 -18.232  0.00  0.00    -0.305 N 
ATOM      4  N   UNL     1      34.282 -23.399 -13.997  0.00  0.00    -0.275 N 
ATOM      5  N   UNL     1      32.058 -24.121 -13.556  0.00  0.00    -0.302 NA
ATOM      6  N   UNL     1      33.805 -24.502 -12.043  0.00  0.00    -0.320 N 
ATOM      7  C   UNL     1      33.165 -21.778 -17.662  0.00  0.00    +0.061 C 
ATOM      8  C   UNL     1      34.498 -21.678 -17.275  0.00  0.00    +0.061 C 
ATOM      9  C   UNL     1      34.381 -20.729 -19.184  0.00  0.00    +0.208 C 
ATOM     10  C   UNL     1      33.935 -22.846 -15.233  0.00  0.00    +0.064 C 
ATOM     11  C   UNL     1      32.600 -22.928 -15.659  0.00  0.00    +0.110 C 
ATOM     12  C   UNL     1      32.181 -22.394 -16.886  0.00  0.00    +0.030 C 
ATOM     13  C   UNL     1      34.898 -22.219 -16.041  0.00  0.00    +0.031 C 
ATOM     14  C   UNL     1      31.619 -23.603 -14.762  0.00  0.00    +0.208 C 
ATOM     15  C   UNL     1      33.318 -24.008 -13.227  0.00  0.00    +0.248 C 
ATOM     16  H   UNL     1      32.321 -21.053 -19.452  0.00  0.00    +0.150 HD
ATOM     17  H   UNL     1      36.200 -20.820 -18.209  0.00  0.00    +0.150 HD
ATOM     18  H   UNL     1      35.212 -23.354 -13.679  0.00  0.00    +0.156 HD
ATOM     19  H   UNL     1      34.760 -24.400 -11.824  0.00  0.00    +0.146 HD
ATOM     20  H   UNL     1      33.201 -24.957 -11.413  0.00  0.00    +0.146 HD
ENDROOT
BRANCH   9  21
ATOM     21  N   UNL     1      34.578 -20.086 -20.355  0.00  0.00    -0.263 NA
ATOM     22  H   UNL     1      34.528 -20.616 -21.184  0.00  0.00    +0.127 HD
BRANCH  21  23
ATOM     23  C   UNL     1      34.857 -18.666 -20.479  0.00  0.00    +0.098 C 
BRANCH  23  24
ATOM     24  C   UNL     1      34.310 -18.131 -21.773  0.00  0.00    -0.006 C 
ATOM     25  C   UNL     1      33.976 -16.778 -21.937  0.00  0.00    -0.003 C 
ATOM     26  C   UNL     1      33.465 -16.336 -23.182  0.00  0.00    -0.000 C 
ATOM     27  C   UNL     1      34.144 -19.037 -22.821  0.00  0.00    -0.003 C 
ATOM     28  C   UNL     1      34.136 -15.851 -20.894  0.00  0.00    -0.000 C 
ATOM     29  C   UNL     1      33.304 -17.263 -24.225  0.00  0.00    -0.000 C 
ATOM     30  C   UNL     1      33.642 -18.605 -24.044  0.00  0.00    -0.000 C 
ATOM     31  C   UNL     1      33.131 -14.983 -23.346  0.00  0.00    -0.000 C 
ATOM     32  C   UNL     1      33.798 -14.509 -21.075  0.00  0.00    -0.000 C 
ATOM     33  C   UNL     1      33.297 -14.076 -22.300  0.00  0.00    -0.000 C 
ENDBRANCH  23  24
ENDBRANCH  21  23
ENDBRANCH   9  21
TORSDOF 3
ENDMDL
