MODEL 1
REMARK VINA RESULT:     -11.6      0.000      0.000
REMARK  Name = 18376177
REMARK  11 active torsions:
REMARK  status: ('A' for Active; 'I' for Inactive)
REMARK    1  A    between atoms: N_1  and  S_2
REMARK    2  A    between atoms: N_1  and  C_11
REMARK    3  A    between atoms: N_1  and  C_23
REMARK    4  A    between atoms: S_2  and  C_6
REMARK    5  A    between atoms: C_11  and  C_12
REMARK    6  A    between atoms: C_15  and  N_18
REMARK    7  A    between atoms: C_23  and  C_24
REMARK    8  A    between atoms: C_27  and  O_30
REMARK    9  A    between atoms: O_30  and  C_31
REMARK   10  A    between atoms: C_31  and  C_33
REMARK   11  A    between atoms: C_33  and  O_34
REMARK                            x       y       z     vdW  Elec       q    Type
REMARK                         _______ _______ _______ _____ _____    ______ ____
ROOT
ATOM      1  N   UNL     1      32.341 -22.919 -14.592  0.00  0.00    -0.147 NA
ENDROOT
BRANCH   1   2
ATOM      2  S   UNL     1      31.133 -23.666 -13.614  0.00  0.00    +0.065 S 
ATOM      3  O   UNL     1      30.940 -22.888 -12.405  0.00  0.00    -0.153 OA
ATOM      4  O   UNL     1      31.406 -25.088 -13.512  0.00  0.00    -0.153 OA
BRANCH   2   6
ATOM      5  N   UNL     1      28.368 -22.136 -16.125  0.00  0.00    -0.241 NA
ATOM      6  C   UNL     1      29.672 -23.482 -14.597  0.00  0.00    +0.141 C 
ATOM      7  C   UNL     1      28.702 -24.477 -14.633  0.00  0.00    +0.023 C 
ATOM      8  C   UNL     1      29.459 -22.341 -15.354  0.00  0.00    +0.119 C 
ATOM      9  C   UNL     1      27.565 -24.304 -15.414  0.00  0.00    +0.022 C 
ATOM     10  C   UNL     1      27.446 -23.126 -16.135  0.00  0.00    +0.099 C 
ENDBRANCH   2   6
ENDBRANCH   1   2
BRANCH   1  11
ATOM     11  C   UNL     1      32.718 -23.589 -15.863  0.00  0.00    +0.122 C 
BRANCH  11  12
ATOM     12  C   UNL     1      33.131 -22.607 -16.923  0.00  0.00    -0.004 C 
ATOM     13  C   UNL     1      32.173 -22.053 -17.772  0.00  0.00    -0.002 C 
ATOM     14  C   UNL     1      34.473 -22.250 -17.058  0.00  0.00    -0.002 C 
ATOM     15  C   UNL     1      33.899 -20.787 -18.893  0.00  0.00    +0.074 C 
ATOM     16  C   UNL     1      32.557 -21.143 -18.757  0.00  0.00    +0.016 C 
ATOM     17  C   UNL     1      34.856 -21.340 -18.043  0.00  0.00    +0.016 C 
BRANCH  15  18
ATOM     18  N   UNL     1      34.279 -19.884 -19.869  0.00  0.00    -0.189 N 
ATOM     19  N   UNL     1      35.505 -19.334 -19.847  0.00  0.00    -0.172 NA
ATOM     20  C   UNL     1      33.506 -19.467 -20.912  0.00  0.00    +0.091 C 
ATOM     21  C   UNL     1      34.280 -18.582 -21.622  0.00  0.00    +0.040 C 
ATOM     22  C   UNL     1      35.499 -18.538 -20.921  0.00  0.00    +0.120 C 
ENDBRANCH  15  18
ENDBRANCH  11  12
ENDBRANCH   1  11
BRANCH   1  23
ATOM     23  C   UNL     1      33.518 -22.327 -13.907  0.00  0.00    +0.123 C 
BRANCH  23  24
ATOM     24  C   UNL     1      34.352 -23.364 -13.208  0.00  0.00    -0.001 C 
ATOM     25  C   UNL     1      35.339 -24.055 -13.909  0.00  0.00    +0.034 C 
ATOM     26  C   UNL     1      34.138 -23.635 -11.856  0.00  0.00    -0.003 C 
ATOM     27  C   UNL     1      36.112 -25.017 -13.261  0.00  0.00    +0.139 C 
ATOM     28  C   UNL     1      34.911 -24.597 -11.207  0.00  0.00    +0.003 C 
ATOM     29  C   UNL     1      35.899 -25.288 -11.909  0.00  0.00    +0.037 C 
BRANCH  27  30
ATOM     30  O   UNL     1      37.073 -25.694 -13.946  0.00  0.00    -0.464 OA
BRANCH  30  31
ATOM     31  C   UNL     1      38.344 -25.839 -13.312  0.00  0.00    +0.314 C 
BRANCH  31  33
ATOM     32  O   UNL     1      40.159 -24.281 -13.735  0.00  0.00    -0.246 OA
ATOM     33  C   UNL     1      39.402 -25.155 -14.131  0.00  0.00    +0.359 C 
BRANCH  33  34
ATOM     34  O   UNL     1      39.407 -25.647 -15.395  0.00  0.00    -0.478 OA
ATOM     35  H   UNL     1      40.166 -25.547 -15.934  0.00  0.00    +0.295 HD
ENDBRANCH  33  34
ENDBRANCH  31  33
ENDBRANCH  30  31
ENDBRANCH  27  30
ENDBRANCH  23  24
ENDBRANCH   1  23
TORSDOF 11
ENDMDL
MODEL 2
REMARK VINA RESULT:     -10.8      2.627      6.705
REMARK  Name = 18376177
REMARK  11 active torsions:
REMARK  status: ('A' for Active; 'I' for Inactive)
REMARK    1  A    between atoms: N_1  and  S_2
REMARK    2  A    between atoms: N_1  and  C_11
REMARK    3  A    between atoms: N_1  and  C_23
REMARK    4  A    between atoms: S_2  and  C_6
REMARK    5  A    between atoms: C_11  and  C_12
REMARK    6  A    between atoms: C_15  and  N_18
REMARK    7  A    between atoms: C_23  and  C_24
REMARK    8  A    between atoms: C_27  and  O_30
REMARK    9  A    between atoms: O_30  and  C_31
REMARK   10  A    between atoms: C_31  and  C_33
REMARK   11  A    between atoms: C_33  and  O_34
REMARK                            x       y       z     vdW  Elec       q    Type
REMARK                         _______ _______ _______ _____ _____    ______ ____
ROOT
ATOM      1  N   UNL     1      33.315 -22.952 -15.942  0.00  0.00    -0.147 NA
ENDROOT
BRANCH   1   2
ATOM      2  S   UNL     1      34.769 -22.488 -15.141  0.00  0.00    +0.065 S 
ATOM      3  O   UNL     1      34.443 -21.738 -13.942  0.00  0.00    -0.153 OA
ATOM      4  O   UNL     1      35.694 -21.922 -16.107  0.00  0.00    -0.153 OA
BRANCH   2   6
ATOM      5  N   UNL     1      35.112 -26.408 -14.243  0.00  0.00    -0.241 NA
ATOM      6  C   UNL     1      35.439 -24.043 -14.623  0.00  0.00    +0.141 C 
ATOM      7  C   UNL     1      36.759 -24.150 -14.201  0.00  0.00    +0.023 C 
ATOM      8  C   UNL     1      34.664 -25.192 -14.625  0.00  0.00    +0.119 C 
ATOM      9  C   UNL     1      37.258 -25.384 -13.800  0.00  0.00    +0.022 C 
ATOM     10  C   UNL     1      36.400 -26.473 -13.839  0.00  0.00    +0.099 C 
ENDBRANCH   2   6
ENDBRANCH   1   2
BRANCH   1  11
ATOM     11  C   UNL     1      33.403 -23.332 -17.375  0.00  0.00    +0.122 C 
BRANCH  11  12
ATOM     12  C   UNL     1      33.549 -22.136 -18.273  0.00  0.00    -0.004 C 
ATOM     13  C   UNL     1      32.416 -21.448 -18.707  0.00  0.00    -0.002 C 
ATOM     14  C   UNL     1      34.817 -21.714 -18.674  0.00  0.00    -0.002 C 
ATOM     15  C   UNL     1      33.819 -19.918 -19.944  0.00  0.00    +0.074 C 
ATOM     16  C   UNL     1      32.551 -20.338 -19.542  0.00  0.00    +0.016 C 
ATOM     17  C   UNL     1      34.952 -20.606 -19.509  0.00  0.00    +0.016 C 
BRANCH  15  18
ATOM     18  N   UNL     1      33.953 -18.817 -20.770  0.00  0.00    -0.189 N 
ATOM     19  N   UNL     1      34.424 -17.655 -20.285  0.00  0.00    -0.172 NA
ATOM     20  C   UNL     1      33.646 -18.777 -22.098  0.00  0.00    +0.091 C 
ATOM     21  C   UNL     1      33.935 -17.499 -22.511  0.00  0.00    +0.040 C 
ATOM     22  C   UNL     1      34.410 -16.854 -21.355  0.00  0.00    +0.120 C 
ENDBRANCH  15  18
ENDBRANCH  11  12
ENDBRANCH   1  11
BRANCH   1  23
ATOM     23  C   UNL     1      32.084 -22.176 -15.648  0.00  0.00    +0.123 C 
BRANCH  23  24
ATOM     24  C   UNL     1      31.059 -22.991 -14.912  0.00  0.00    -0.001 C 
ATOM     25  C   UNL     1      29.718 -22.939 -15.294  0.00  0.00    +0.034 C 
ATOM     26  C   UNL     1      31.448 -23.802 -13.845  0.00  0.00    -0.003 C 
ATOM     27  C   UNL     1      28.768 -23.696 -14.610  0.00  0.00    +0.139 C 
ATOM     28  C   UNL     1      30.498 -24.559 -13.161  0.00  0.00    +0.003 C 
ATOM     29  C   UNL     1      29.157 -24.506 -13.544  0.00  0.00    +0.037 C 
BRANCH  27  30
ATOM     30  O   UNL     1      27.460 -23.642 -14.981  0.00  0.00    -0.464 OA
BRANCH  30  31
ATOM     31  C   UNL     1      26.819 -22.368 -14.926  0.00  0.00    +0.314 C 
BRANCH  31  33
ATOM     32  O   UNL     1      25.757 -20.951 -16.589  0.00  0.00    -0.246 OA
ATOM     33  C   UNL     1      26.265 -22.018 -16.279  0.00  0.00    +0.359 C 
BRANCH  33  34
ATOM     34  O   UNL     1      26.408 -23.066 -17.128  0.00  0.00    -0.478 OA
ATOM     35  H   UNL     1      26.824 -23.853 -16.836  0.00  0.00    +0.295 HD
ENDBRANCH  33  34
ENDBRANCH  31  33
ENDBRANCH  30  31
ENDBRANCH  27  30
ENDBRANCH  23  24
ENDBRANCH   1  23
TORSDOF 11
ENDMDL
MODEL 3
REMARK VINA RESULT:     -10.5      2.518      6.719
REMARK  Name = 18376177
REMARK  11 active torsions:
REMARK  status: ('A' for Active; 'I' for Inactive)
REMARK    1  A    between atoms: N_1  and  S_2
REMARK    2  A    between atoms: N_1  and  C_11
REMARK    3  A    between atoms: N_1  and  C_23
REMARK    4  A    between atoms: S_2  and  C_6
REMARK    5  A    between atoms: C_11  and  C_12
REMARK    6  A    between atoms: C_15  and  N_18
REMARK    7  A    between atoms: C_23  and  C_24
REMARK    8  A    between atoms: C_27  and  O_30
REMARK    9  A    between atoms: O_30  and  C_31
REMARK   10  A    between atoms: C_31  and  C_33
REMARK   11  A    between atoms: C_33  and  O_34
REMARK                            x       y       z     vdW  Elec       q    Type
REMARK                         _______ _______ _______ _____ _____    ______ ____
ROOT
ATOM      1  N   UNL     1      33.625 -23.294 -14.684  0.00  0.00    -0.147 NA
ENDROOT
BRANCH   1   2
ATOM      2  S   UNL     1      35.294 -23.085 -14.304  0.00  0.00    +0.065 S 
ATOM      3  O   UNL     1      35.683 -21.713 -14.575  0.00  0.00    -0.153 OA
ATOM      4  O   UNL     1      36.061 -24.172 -14.883  0.00  0.00    -0.153 OA
BRANCH   2   6
ATOM      5  N   UNL     1      36.291 -22.723 -10.409  0.00  0.00    -0.241 NA
ATOM      6  C   UNL     1      35.320 -23.302 -12.547  0.00  0.00    +0.141 C 
ATOM      7  C   UNL     1      34.441 -24.177 -11.920  0.00  0.00    +0.023 C 
ATOM      8  C   UNL     1      36.218 -22.605 -11.754  0.00  0.00    +0.119 C 
ATOM      9  C   UNL     1      34.484 -24.326 -10.538  0.00  0.00    +0.022 C 
ATOM     10  C   UNL     1      35.420 -23.583  -9.835  0.00  0.00    +0.099 C 
ENDBRANCH   2   6
ENDBRANCH   1   2
BRANCH   1  11
ATOM     11  C   UNL     1      33.277 -23.749 -16.054  0.00  0.00    +0.122 C 
BRANCH  11  12
ATOM     12  C   UNL     1      33.522 -22.685 -17.087  0.00  0.00    -0.004 C 
ATOM     13  C   UNL     1      32.455 -22.169 -17.822  0.00  0.00    -0.002 C 
ATOM     14  C   UNL     1      34.815 -22.215 -17.312  0.00  0.00    -0.002 C 
ATOM     15  C   UNL     1      33.976 -20.713 -19.007  0.00  0.00    +0.074 C 
ATOM     16  C   UNL     1      32.682 -21.182 -18.782  0.00  0.00    +0.016 C 
ATOM     17  C   UNL     1      35.042 -21.229 -18.271  0.00  0.00    +0.016 C 
BRANCH  15  18
ATOM     18  N   UNL     1      34.200 -19.734 -19.958  0.00  0.00    -0.189 N 
ATOM     19  N   UNL     1      35.303 -18.967 -19.898  0.00  0.00    -0.172 NA
ATOM     20  C   UNL     1      33.383 -19.444 -21.011  0.00  0.00    +0.091 C 
ATOM     21  C   UNL     1      33.993 -18.416 -21.687  0.00  0.00    +0.040 C 
ATOM     22  C   UNL     1      35.169 -18.164 -20.958  0.00  0.00    +0.120 C 
ENDBRANCH  15  18
ENDBRANCH  11  12
ENDBRANCH   1  11
BRANCH   1  23
ATOM     23  C   UNL     1      32.666 -22.280 -14.176  0.00  0.00    +0.123 C 
BRANCH  23  24
ATOM     24  C   UNL     1      31.272 -22.827 -14.053  0.00  0.00    -0.001 C 
ATOM     25  C   UNL     1      30.177 -22.029 -14.387  0.00  0.00    +0.034 C 
ATOM     26  C   UNL     1      31.072 -24.134 -13.606  0.00  0.00    -0.003 C 
ATOM     27  C   UNL     1      28.883 -22.537 -14.273  0.00  0.00    +0.139 C 
ATOM     28  C   UNL     1      29.778 -24.641 -13.492  0.00  0.00    +0.003 C 
ATOM     29  C   UNL     1      28.683 -23.843 -13.826  0.00  0.00    +0.037 C 
BRANCH  27  30
ATOM     30  O   UNL     1      27.815 -21.758 -14.596  0.00  0.00    -0.464 OA
BRANCH  30  31
ATOM     31  C   UNL     1      26.608 -22.427 -14.959  0.00  0.00    +0.314 C 
BRANCH  31  33
ATOM     32  O   UNL     1      25.722 -20.921 -16.646  0.00  0.00    -0.246 OA
ATOM     33  C   UNL     1      26.189 -22.008 -16.340  0.00  0.00    +0.359 C 
BRANCH  33  34
ATOM     34  O   UNL     1      26.404 -23.017 -17.221  0.00  0.00    -0.478 OA
ATOM     35  H   UNL     1      25.907 -23.061 -18.014  0.00  0.00    +0.295 HD
ENDBRANCH  33  34
ENDBRANCH  31  33
ENDBRANCH  30  31
ENDBRANCH  27  30
ENDBRANCH  23  24
ENDBRANCH   1  23
TORSDOF 11
ENDMDL
MODEL 4
REMARK VINA RESULT:     -10.2      1.746      2.855
REMARK  Name = 18376177
REMARK  11 active torsions:
REMARK  status: ('A' for Active; 'I' for Inactive)
REMARK    1  A    between atoms: N_1  and  S_2
REMARK    2  A    between atoms: N_1  and  C_11
REMARK    3  A    between atoms: N_1  and  C_23
REMARK    4  A    between atoms: S_2  and  C_6
REMARK    5  A    between atoms: C_11  and  C_12
REMARK    6  A    between atoms: C_15  and  N_18
REMARK    7  A    between atoms: C_23  and  C_24
REMARK    8  A    between atoms: C_27  and  O_30
REMARK    9  A    between atoms: O_30  and  C_31
REMARK   10  A    between atoms: C_31  and  C_33
REMARK   11  A    between atoms: C_33  and  O_34
REMARK                            x       y       z     vdW  Elec       q    Type
REMARK                         _______ _______ _______ _____ _____    ______ ____
ROOT
ATOM      1  N   UNL     1      32.237 -23.012 -15.669  0.00  0.00    -0.147 NA
ENDROOT
BRANCH   1   2
ATOM      2  S   UNL     1      31.217 -23.014 -14.279  0.00  0.00    +0.065 S 
ATOM      3  O   UNL     1      31.321 -21.735 -13.601  0.00  0.00    -0.153 OA
ATOM      4  O   UNL     1      31.425 -24.239 -13.529  0.00  0.00    -0.153 OA
BRANCH   2   6
ATOM      5  N   UNL     1      27.769 -21.983 -16.107  0.00  0.00    -0.241 NA
ATOM      6  C   UNL     1      29.597 -23.103 -14.990  0.00  0.00    +0.141 C 
ATOM      7  C   UNL     1      28.885 -24.296 -15.002  0.00  0.00    +0.023 C 
ATOM      8  C   UNL     1      29.000 -21.985 -15.550  0.00  0.00    +0.119 C 
ATOM      9  C   UNL     1      27.615 -24.336 -15.567  0.00  0.00    +0.022 C 
ATOM     10  C   UNL     1      27.106 -23.162 -16.102  0.00  0.00    +0.099 C 
ENDBRANCH   2   6
ENDBRANCH   1   2
BRANCH   1  11
ATOM     11  C   UNL     1      31.600 -22.837 -16.998  0.00  0.00    +0.122 C 
BRANCH  11  12
ATOM     12  C   UNL     1      32.405 -21.949 -17.904  0.00  0.00    -0.004 C 
ATOM     13  C   UNL     1      33.791 -22.085 -17.961  0.00  0.00    -0.002 C 
ATOM     14  C   UNL     1      31.766 -20.988 -18.688  0.00  0.00    -0.002 C 
ATOM     15  C   UNL     1      33.900 -20.297 -19.584  0.00  0.00    +0.074 C 
ATOM     16  C   UNL     1      34.540 -21.259 -18.801  0.00  0.00    +0.016 C 
ATOM     17  C   UNL     1      32.513 -20.162 -19.527  0.00  0.00    +0.016 C 
BRANCH  15  18
ATOM     18  N   UNL     1      34.642 -19.481 -20.417  0.00  0.00    -0.189 N 
ATOM     19  N   UNL     1      34.133 -19.061 -21.588  0.00  0.00    -0.172 NA
ATOM     20  C   UNL     1      35.902 -19.023 -20.169  0.00  0.00    +0.091 C 
ATOM     21  C   UNL     1      36.243 -18.252 -21.253  0.00  0.00    +0.040 C 
ATOM     22  C   UNL     1      35.117 -18.311 -22.095  0.00  0.00    +0.120 C 
ENDBRANCH  15  18
ENDBRANCH  11  12
ENDBRANCH   1  11
BRANCH   1  23
ATOM     23  C   UNL     1      33.351 -23.994 -15.712  0.00  0.00    +0.123 C 
BRANCH  23  24
ATOM     24  C   UNL     1      34.520 -23.567 -14.870  0.00  0.00    -0.001 C 
ATOM     25  C   UNL     1      34.852 -24.285 -13.721  0.00  0.00    +0.034 C 
ATOM     26  C   UNL     1      35.274 -22.452 -15.238  0.00  0.00    -0.003 C 
ATOM     27  C   UNL     1      35.936 -23.888 -12.940  0.00  0.00    +0.139 C 
ATOM     28  C   UNL     1      36.359 -22.056 -14.457  0.00  0.00    +0.003 C 
ATOM     29  C   UNL     1      36.691 -22.774 -13.307  0.00  0.00    +0.037 C 
BRANCH  27  30
ATOM     30  O   UNL     1      36.258 -24.587 -11.817  0.00  0.00    -0.464 OA
BRANCH  30  31
ATOM     31  C   UNL     1      35.213 -24.819 -10.873  0.00  0.00    +0.314 C 
BRANCH  31  33
ATOM     32  O   UNL     1      36.066 -22.870  -9.700  0.00  0.00    -0.246 OA
ATOM     33  C   UNL     1      35.331 -23.845  -9.735  0.00  0.00    +0.359 C 
BRANCH  33  34
ATOM     34  O   UNL     1      34.493 -24.199  -8.728  0.00  0.00    -0.478 OA
ATOM     35  H   UNL     1      33.912 -23.565  -8.356  0.00  0.00    +0.295 HD
ENDBRANCH  33  34
ENDBRANCH  31  33
ENDBRANCH  30  31
ENDBRANCH  27  30
ENDBRANCH  23  24
ENDBRANCH   1  23
TORSDOF 11
ENDMDL
MODEL 5
REMARK VINA RESULT:      -9.8      3.301      7.558
REMARK  Name = 18376177
REMARK  11 active torsions:
REMARK  status: ('A' for Active; 'I' for Inactive)
REMARK    1  A    between atoms: N_1  and  S_2
REMARK    2  A    between atoms: N_1  and  C_11
REMARK    3  A    between atoms: N_1  and  C_23
REMARK    4  A    between atoms: S_2  and  C_6
REMARK    5  A    between atoms: C_11  and  C_12
REMARK    6  A    between atoms: C_15  and  N_18
REMARK    7  A    between atoms: C_23  and  C_24
REMARK    8  A    between atoms: C_27  and  O_30
REMARK    9  A    between atoms: O_30  and  C_31
REMARK   10  A    between atoms: C_31  and  C_33
REMARK   11  A    between atoms: C_33  and  O_34
REMARK                            x       y       z     vdW  Elec       q    Type
REMARK                         _______ _______ _______ _____ _____    ______ ____
ROOT
ATOM      1  N   UNL     1      34.182 -23.850 -12.508  0.00  0.00    -0.147 NA
ENDROOT
BRANCH   1   2
ATOM      2  S   UNL     1      35.600 -23.729 -11.534  0.00  0.00    +0.065 S 
ATOM      3  O   UNL     1      35.370 -24.391 -10.263  0.00  0.00    -0.153 OA
ATOM      4  O   UNL     1      36.082 -22.361 -11.550  0.00  0.00    -0.153 OA
BRANCH   2   6
ATOM      5  N   UNL     1      37.272 -26.757 -13.616  0.00  0.00    -0.241 NA
ATOM      6  C   UNL     1      36.770 -24.709 -12.433  0.00  0.00    +0.141 C 
ATOM      7  C   UNL     1      38.061 -24.248 -12.667  0.00  0.00    +0.023 C 
ATOM      8  C   UNL     1      36.429 -25.959 -12.924  0.00  0.00    +0.119 C 
ATOM      9  C   UNL     1      38.958 -25.039 -13.375  0.00  0.00    +0.022 C 
ATOM     10  C   UNL     1      38.518 -26.275 -13.825  0.00  0.00    +0.099 C 
ENDBRANCH   2   6
ENDBRANCH   1   2
BRANCH   1  11
ATOM     11  C   UNL     1      32.918 -24.258 -11.846  0.00  0.00    +0.122 C 
BRANCH  11  12
ATOM     12  C   UNL     1      31.707 -23.917 -12.669  0.00  0.00    -0.004 C 
ATOM     13  C   UNL     1      30.764 -24.901 -12.962  0.00  0.00    -0.002 C 
ATOM     14  C   UNL     1      31.528 -22.616 -13.141  0.00  0.00    -0.002 C 
ATOM     15  C   UNL     1      29.462 -23.284 -14.200  0.00  0.00    +0.074 C 
ATOM     16  C   UNL     1      29.641 -24.584 -13.728  0.00  0.00    +0.016 C 
ATOM     17  C   UNL     1      30.406 -22.300 -13.906  0.00  0.00    +0.016 C 
BRANCH  15  18
ATOM     18  N   UNL     1      28.349 -22.971 -14.957  0.00  0.00    -0.189 N 
ATOM     19  N   UNL     1      27.607 -21.889 -14.661  0.00  0.00    -0.172 NA
ATOM     20  C   UNL     1      27.894 -23.673 -16.034  0.00  0.00    +0.091 C 
ATOM     21  C   UNL     1      26.777 -23.006 -16.473  0.00  0.00    +0.040 C 
ATOM     22  C   UNL     1      26.647 -21.917 -15.591  0.00  0.00    +0.120 C 
ENDBRANCH  15  18
ENDBRANCH  11  12
ENDBRANCH   1  11
BRANCH   1  23
ATOM     23  C   UNL     1      34.320 -24.450 -13.861  0.00  0.00    +0.123 C 
BRANCH  23  24
ATOM     24  C   UNL     1      34.669 -23.427 -14.904  0.00  0.00    -0.001 C 
ATOM     25  C   UNL     1      33.741 -23.089 -15.889  0.00  0.00    +0.034 C 
ATOM     26  C   UNL     1      35.923 -22.814 -14.888  0.00  0.00    -0.003 C 
ATOM     27  C   UNL     1      34.066 -22.140 -16.858  0.00  0.00    +0.139 C 
ATOM     28  C   UNL     1      36.248 -21.864 -15.856  0.00  0.00    +0.003 C 
ATOM     29  C   UNL     1      35.319 -21.527 -16.841  0.00  0.00    +0.037 C 
BRANCH  27  30
ATOM     30  O   UNL     1      33.162 -21.812 -17.820  0.00  0.00    -0.464 OA
BRANCH  30  31
ATOM     31  C   UNL     1      33.671 -21.228 -19.019  0.00  0.00    +0.314 C 
BRANCH  31  33
ATOM     32  O   UNL     1      31.458 -20.276 -19.333  0.00  0.00    -0.246 OA
ATOM     33  C   UNL     1      32.650 -20.292 -19.603  0.00  0.00    +0.359 C 
BRANCH  33  34
ATOM     34  O   UNL     1      33.239 -19.450 -20.488  0.00  0.00    -0.478 OA
ATOM     35  H   UNL     1      33.072 -19.542 -21.405  0.00  0.00    +0.295 HD
ENDBRANCH  33  34
ENDBRANCH  31  33
ENDBRANCH  30  31
ENDBRANCH  27  30
ENDBRANCH  23  24
ENDBRANCH   1  23
TORSDOF 11
ENDMDL
MODEL 6
REMARK VINA RESULT:      -9.6      2.141      2.673
REMARK  Name = 18376177
REMARK  11 active torsions:
REMARK  status: ('A' for Active; 'I' for Inactive)
REMARK    1  A    between atoms: N_1  and  S_2
REMARK    2  A    between atoms: N_1  and  C_11
REMARK    3  A    between atoms: N_1  and  C_23
REMARK    4  A    between atoms: S_2  and  C_6
REMARK    5  A    between atoms: C_11  and  C_12
REMARK    6  A    between atoms: C_15  and  N_18
REMARK    7  A    between atoms: C_23  and  C_24
REMARK    8  A    between atoms: C_27  and  O_30
REMARK    9  A    between atoms: O_30  and  C_31
REMARK   10  A    between atoms: C_31  and  C_33
REMARK   11  A    between atoms: C_33  and  O_34
REMARK                            x       y       z     vdW  Elec       q    Type
REMARK                         _______ _______ _______ _____ _____    ______ ____
ROOT
ATOM      1  N   UNL     1      33.057 -22.305 -16.011  0.00  0.00    -0.147 NA
ENDROOT
BRANCH   1   2
ATOM      2  S   UNL     1      31.481 -22.917 -16.350  0.00  0.00    +0.065 S 
ATOM      3  O   UNL     1      31.593 -24.140 -17.123  0.00  0.00    -0.153 OA
ATOM      4  O   UNL     1      30.639 -21.840 -16.837  0.00  0.00    -0.153 OA
BRANCH   2   6
ATOM      5  N   UNL     1      30.030 -25.069 -13.259  0.00  0.00    -0.241 NA
ATOM      6  C   UNL     1      30.886 -23.363 -14.743  0.00  0.00    +0.141 C 
ATOM      7  C   UNL     1      30.798 -22.422 -13.724  0.00  0.00    +0.023 C 
ATOM      8  C   UNL     1      30.493 -24.662 -14.461  0.00  0.00    +0.119 C 
ATOM      9  C   UNL     1      30.327 -22.801 -12.473  0.00  0.00    +0.022 C 
ATOM     10  C   UNL     1      29.959 -24.126 -12.293  0.00  0.00    +0.099 C 
ENDBRANCH   2   6
ENDBRANCH   1   2
BRANCH   1  11
ATOM     11  C   UNL     1      34.130 -22.564 -17.004  0.00  0.00    +0.122 C 
BRANCH  11  12
ATOM     12  C   UNL     1      34.135 -21.551 -18.114  0.00  0.00    -0.004 C 
ATOM     13  C   UNL     1      35.337 -20.981 -18.533  0.00  0.00    -0.002 C 
ATOM     14  C   UNL     1      32.937 -21.180 -18.726  0.00  0.00    -0.002 C 
ATOM     15  C   UNL     1      34.143 -19.668 -20.173  0.00  0.00    +0.074 C 
ATOM     16  C   UNL     1      35.341 -20.039 -19.563  0.00  0.00    +0.016 C 
ATOM     17  C   UNL     1      32.941 -20.239 -19.755  0.00  0.00    +0.016 C 
BRANCH  15  18
ATOM     18  N   UNL     1      34.148 -18.736 -21.195  0.00  0.00    -0.189 N 
ATOM     19  N   UNL     1      34.562 -17.478 -20.966  0.00  0.00    -0.172 NA
ATOM     20  C   UNL     1      33.762 -18.964 -22.483  0.00  0.00    +0.091 C 
ATOM     21  C   UNL     1      33.933 -17.772 -23.143  0.00  0.00    +0.040 C 
ATOM     22  C   UNL     1      34.427 -16.894 -22.161  0.00  0.00    +0.120 C 
ENDBRANCH  15  18
ENDBRANCH  11  12
ENDBRANCH   1  11
BRANCH   1  23
ATOM     23  C   UNL     1      33.556 -22.410 -14.616  0.00  0.00    +0.123 C 
BRANCH  23  24
ATOM     24  C   UNL     1      34.510 -23.556 -14.436  0.00  0.00    -0.001 C 
ATOM     25  C   UNL     1      35.871 -23.310 -14.252  0.00  0.00    +0.034 C 
ATOM     26  C   UNL     1      34.035 -24.869 -14.454  0.00  0.00    -0.003 C 
ATOM     27  C   UNL     1      36.756 -24.375 -14.086  0.00  0.00    +0.139 C 
ATOM     28  C   UNL     1      34.921 -25.933 -14.288  0.00  0.00    +0.003 C 
ATOM     29  C   UNL     1      36.282 -25.686 -14.103  0.00  0.00    +0.037 C 
BRANCH  27  30
ATOM     30  O   UNL     1      38.084 -24.134 -13.909  0.00  0.00    -0.464 OA
BRANCH  30  31
ATOM     31  C   UNL     1      38.777 -24.968 -12.981  0.00  0.00    +0.314 C 
BRANCH  31  33
ATOM     32  O   UNL     1      40.488 -26.678 -13.206  0.00  0.00    -0.246 OA
ATOM     33  C   UNL     1      39.730 -25.867 -13.717  0.00  0.00    +0.359 C 
BRANCH  33  34
ATOM     34  O   UNL     1      39.634 -25.656 -15.054  0.00  0.00    -0.478 OA
ATOM     35  H   UNL     1      40.007 -24.885 -15.435  0.00  0.00    +0.295 HD
ENDBRANCH  33  34
ENDBRANCH  31  33
ENDBRANCH  30  31
ENDBRANCH  27  30
ENDBRANCH  23  24
ENDBRANCH   1  23
TORSDOF 11
ENDMDL
MODEL 7
REMARK VINA RESULT:      -9.6     11.802     16.564
REMARK  Name = 18376177
REMARK  11 active torsions:
REMARK  status: ('A' for Active; 'I' for Inactive)
REMARK    1  A    between atoms: N_1  and  S_2
REMARK    2  A    between atoms: N_1  and  C_11
REMARK    3  A    between atoms: N_1  and  C_23
REMARK    4  A    between atoms: S_2  and  C_6
REMARK    5  A    between atoms: C_11  and  C_12
REMARK    6  A    between atoms: C_15  and  N_18
REMARK    7  A    between atoms: C_23  and  C_24
REMARK    8  A    between atoms: C_27  and  O_30
REMARK    9  A    between atoms: O_30  and  C_31
REMARK   10  A    between atoms: C_31  and  C_33
REMARK   11  A    between atoms: C_33  and  O_34
REMARK                            x       y       z     vdW  Elec       q    Type
REMARK                         _______ _______ _______ _____ _____    ______ ____
ROOT
ATOM      1  N   UNL     1      32.757  -9.404 -23.725  0.00  0.00    -0.147 NA
ENDROOT
BRANCH   1   2
ATOM      2  S   UNL     1      34.149  -8.397 -23.866  0.00  0.00    +0.065 S 
ATOM      3  O   UNL     1      35.019  -8.916 -24.906  0.00  0.00    -0.153 OA
ATOM      4  O   UNL     1      34.693  -8.136 -22.546  0.00  0.00    -0.153 OA
BRANCH   2   6
ATOM      5  N   UNL     1      32.520  -5.616 -26.297  0.00  0.00    -0.241 NA
ATOM      6  C   UNL     1      33.466  -6.875 -24.463  0.00  0.00    +0.141 C 
ATOM      7  C   UNL     1      33.332  -5.773 -23.626  0.00  0.00    +0.023 C 
ATOM      8  C   UNL     1      33.048  -6.746 -25.778  0.00  0.00    +0.119 C 
ATOM      9  C   UNL     1      32.793  -4.592 -24.122  0.00  0.00    +0.022 C 
ATOM     10  C   UNL     1      32.405  -4.565 -25.453  0.00  0.00    +0.099 C 
ENDBRANCH   2   6
ENDBRANCH   1   2
BRANCH   1  11
ATOM     11  C   UNL     1      32.459 -10.336 -24.842  0.00  0.00    +0.122 C 
BRANCH  11  12
ATOM     12  C   UNL     1      32.735 -11.768 -24.479  0.00  0.00    -0.004 C 
ATOM     13  C   UNL     1      33.269 -12.079 -23.229  0.00  0.00    -0.002 C 
ATOM     14  C   UNL     1      32.458 -12.785 -25.392  0.00  0.00    -0.002 C 
ATOM     15  C   UNL     1      33.251 -14.426 -23.805  0.00  0.00    +0.074 C 
ATOM     16  C   UNL     1      33.527 -13.408 -22.892  0.00  0.00    +0.016 C 
ATOM     17  C   UNL     1      32.716 -14.114 -25.055  0.00  0.00    +0.016 C 
BRANCH  15  18
ATOM     18  N   UNL     1      33.505 -15.743 -23.470  0.00  0.00    -0.189 N 
ATOM     19  N   UNL     1      33.125 -16.739 -24.289  0.00  0.00    -0.172 NA
ATOM     20  C   UNL     1      34.138 -16.169 -22.339  0.00  0.00    +0.091 C 
ATOM     21  C   UNL     1      34.173 -17.539 -22.423  0.00  0.00    +0.040 C 
ATOM     22  C   UNL     1      33.536 -17.835 -23.642  0.00  0.00    +0.120 C 
ENDBRANCH  15  18
ENDBRANCH  11  12
ENDBRANCH   1  11
BRANCH   1  23
ATOM     23  C   UNL     1      31.522  -8.804 -23.158  0.00  0.00    +0.123 C 
BRANCH  23  24
ATOM     24  C   UNL     1      31.303  -9.202 -21.725  0.00  0.00    -0.001 C 
ATOM     25  C   UNL     1      31.424  -8.252 -20.711  0.00  0.00    +0.034 C 
ATOM     26  C   UNL     1      30.978 -10.521 -21.409  0.00  0.00    -0.003 C 
ATOM     27  C   UNL     1      31.221  -8.621 -19.381  0.00  0.00    +0.139 C 
ATOM     28  C   UNL     1      30.774 -10.891 -20.080  0.00  0.00    +0.003 C 
ATOM     29  C   UNL     1      30.895  -9.940 -19.066  0.00  0.00    +0.037 C 
BRANCH  27  30
ATOM     30  O   UNL     1      31.342  -7.695 -18.392  0.00  0.00    -0.464 OA
BRANCH  30  31
ATOM     31  C   UNL     1      30.489  -6.553 -18.462  0.00  0.00    +0.314 C 
BRANCH  31  33
ATOM     32  O   UNL     1      31.698  -4.786 -17.313  0.00  0.00    -0.246 OA
ATOM     33  C   UNL     1      31.309  -5.298 -18.352  0.00  0.00    +0.359 C 
BRANCH  33  34
ATOM     34  O   UNL     1      31.566  -4.798 -19.587  0.00  0.00    -0.478 OA
ATOM     35  H   UNL     1      31.038  -5.056 -20.317  0.00  0.00    +0.295 HD
ENDBRANCH  33  34
ENDBRANCH  31  33
ENDBRANCH  30  31
ENDBRANCH  27  30
ENDBRANCH  23  24
ENDBRANCH   1  23
TORSDOF 11
ENDMDL
MODEL 8
REMARK VINA RESULT:      -9.5      1.777      2.304
REMARK  Name = 18376177
REMARK  11 active torsions:
REMARK  status: ('A' for Active; 'I' for Inactive)
REMARK    1  A    between atoms: N_1  and  S_2
REMARK    2  A    between atoms: N_1  and  C_11
REMARK    3  A    between atoms: N_1  and  C_23
REMARK    4  A    between atoms: S_2  and  C_6
REMARK    5  A    between atoms: C_11  and  C_12
REMARK    6  A    between atoms: C_15  and  N_18
REMARK    7  A    between atoms: C_23  and  C_24
REMARK    8  A    between atoms: C_27  and  O_30
REMARK    9  A    between atoms: O_30  and  C_31
REMARK   10  A    between atoms: C_31  and  C_33
REMARK   11  A    between atoms: C_33  and  O_34
REMARK                            x       y       z     vdW  Elec       q    Type
REMARK                         _______ _______ _______ _____ _____    ______ ____
ROOT
ATOM      1  N   UNL     1      33.841 -22.218 -16.290  0.00  0.00    -0.147 NA
ENDROOT
BRANCH   1   2
ATOM      2  S   UNL     1      32.896 -23.653 -16.435  0.00  0.00    +0.065 S 
ATOM      3  O   UNL     1      33.473 -24.697 -15.608  0.00  0.00    -0.153 OA
ATOM      4  O   UNL     1      32.630 -23.917 -17.837  0.00  0.00    -0.153 OA
BRANCH   2   6
ATOM      5  N   UNL     1      29.242 -22.031 -15.878  0.00  0.00    -0.241 NA
ATOM      6  C   UNL     1      31.360 -23.180 -15.690  0.00  0.00    +0.141 C 
ATOM      7  C   UNL     1      31.050 -23.556 -14.388  0.00  0.00    +0.023 C 
ATOM      8  C   UNL     1      30.430 -22.425 -16.386  0.00  0.00    +0.119 C 
ATOM      9  C   UNL     1      29.837 -23.171 -13.830  0.00  0.00    +0.022 C 
ATOM     10  C   UNL     1      28.974 -22.416 -14.610  0.00  0.00    +0.099 C 
ENDBRANCH   2   6
ENDBRANCH   1   2
BRANCH   1  11
ATOM     11  C   UNL     1      35.035 -22.083 -17.163  0.00  0.00    +0.122 C 
BRANCH  11  12
ATOM     12  C   UNL     1      34.795 -21.151 -18.317  0.00  0.00    -0.004 C 
ATOM     13  C   UNL     1      33.502 -20.966 -18.805  0.00  0.00    -0.002 C 
ATOM     14  C   UNL     1      35.864 -20.472 -18.900  0.00  0.00    -0.002 C 
ATOM     15  C   UNL     1      34.348 -19.423 -20.461  0.00  0.00    +0.074 C 
ATOM     16  C   UNL     1      33.279 -20.102 -19.878  0.00  0.00    +0.016 C 
ATOM     17  C   UNL     1      35.641 -19.608 -19.972  0.00  0.00    +0.016 C 
BRANCH  15  18
ATOM     18  N   UNL     1      34.126 -18.565 -21.523  0.00  0.00    -0.189 N 
ATOM     19  N   UNL     1      34.418 -17.258 -21.414  0.00  0.00    -0.172 NA
ATOM     20  C   UNL     1      33.619 -18.918 -22.739  0.00  0.00    +0.091 C 
ATOM     21  C   UNL     1      33.574 -17.760 -23.476  0.00  0.00    +0.040 C 
ATOM     22  C   UNL     1      34.078 -16.771 -22.612  0.00  0.00    +0.120 C 
ENDBRANCH  15  18
ENDBRANCH  11  12
ENDBRANCH   1  11
BRANCH   1  23
ATOM     23  C   UNL     1      34.088 -21.685 -14.926  0.00  0.00    +0.123 C 
BRANCH  23  24
ATOM     24  C   UNL     1      34.831 -22.662 -14.059  0.00  0.00    -0.001 C 
ATOM     25  C   UNL     1      36.159 -22.979 -14.344  0.00  0.00    +0.034 C 
ATOM     26  C   UNL     1      34.193 -23.253 -12.967  0.00  0.00    -0.003 C 
ATOM     27  C   UNL     1      36.848 -23.886 -13.539  0.00  0.00    +0.139 C 
ATOM     28  C   UNL     1      34.882 -24.159 -12.163  0.00  0.00    +0.003 C 
ATOM     29  C   UNL     1      36.211 -24.476 -12.448  0.00  0.00    +0.037 C 
BRANCH  27  30
ATOM     30  O   UNL     1      38.143 -24.197 -13.819  0.00  0.00    -0.464 OA
BRANCH  30  31
ATOM     31  C   UNL     1      38.790 -25.129 -12.954  0.00  0.00    +0.314 C 
BRANCH  31  33
ATOM     32  O   UNL     1      40.525 -26.798 -13.284  0.00  0.00    -0.246 OA
ATOM     33  C   UNL     1      39.731 -25.992 -13.747  0.00  0.00    +0.359 C 
BRANCH  33  34
ATOM     34  O   UNL     1      39.579 -25.753 -15.074  0.00  0.00    -0.478 OA
ATOM     35  H   UNL     1      39.592 -26.465 -15.683  0.00  0.00    +0.295 HD
ENDBRANCH  33  34
ENDBRANCH  31  33
ENDBRANCH  30  31
ENDBRANCH  27  30
ENDBRANCH  23  24
ENDBRANCH   1  23
TORSDOF 11
ENDMDL
MODEL 9
REMARK VINA RESULT:      -9.3     11.018     15.902
REMARK  Name = 18376177
REMARK  11 active torsions:
REMARK  status: ('A' for Active; 'I' for Inactive)
REMARK    1  A    between atoms: N_1  and  S_2
REMARK    2  A    between atoms: N_1  and  C_11
REMARK    3  A    between atoms: N_1  and  C_23
REMARK    4  A    between atoms: S_2  and  C_6
REMARK    5  A    between atoms: C_11  and  C_12
REMARK    6  A    between atoms: C_15  and  N_18
REMARK    7  A    between atoms: C_23  and  C_24
REMARK    8  A    between atoms: C_27  and  O_30
REMARK    9  A    between atoms: O_30  and  C_31
REMARK   10  A    between atoms: C_31  and  C_33
REMARK   11  A    between atoms: C_33  and  O_34
REMARK                            x       y       z     vdW  Elec       q    Type
REMARK                         _______ _______ _______ _____ _____    ______ ____
ROOT
ATOM      1  N   UNL     1      32.734  -8.992 -23.737  0.00  0.00    -0.147 NA
ENDROOT
BRANCH   1   2
ATOM      2  S   UNL     1      34.214  -8.120 -23.887  0.00  0.00    +0.065 S 
ATOM      3  O   UNL     1      35.111  -8.840 -24.772  0.00  0.00    -0.153 OA
ATOM      4  O   UNL     1      34.676  -7.723 -22.570  0.00  0.00    -0.153 OA
BRANCH   2   6
ATOM      5  N   UNL     1      33.192  -5.538 -26.817  0.00  0.00    -0.241 NA
ATOM      6  C   UNL     1      33.711  -6.647 -24.732  0.00  0.00    +0.141 C 
ATOM      7  C   UNL     1      33.444  -5.476 -24.033  0.00  0.00    +0.023 C 
ATOM      8  C   UNL     1      33.571  -6.626 -26.111  0.00  0.00    +0.119 C 
ATOM      9  C   UNL     1      33.051  -4.335 -24.724  0.00  0.00    +0.022 C 
ATOM     10  C   UNL     1      32.940  -4.418 -26.103  0.00  0.00    +0.099 C 
ENDBRANCH   2   6
ENDBRANCH   1   2
BRANCH   1  11
ATOM     11  C   UNL     1      32.339  -9.887 -24.854  0.00  0.00    +0.122 C 
BRANCH  11  12
ATOM     12  C   UNL     1      32.628 -11.331 -24.555  0.00  0.00    -0.004 C 
ATOM     13  C   UNL     1      32.343 -12.310 -25.507  0.00  0.00    -0.002 C 
ATOM     14  C   UNL     1      33.181 -11.693 -23.327  0.00  0.00    -0.002 C 
ATOM     15  C   UNL     1      33.161 -14.013 -24.000  0.00  0.00    +0.074 C 
ATOM     16  C   UNL     1      32.609 -13.651 -25.229  0.00  0.00    +0.016 C 
ATOM     17  C   UNL     1      33.448 -13.033 -23.050  0.00  0.00    +0.016 C 
BRANCH  15  18
ATOM     18  N   UNL     1      33.427 -15.342 -23.727  0.00  0.00    -0.189 N 
ATOM     19  N   UNL     1      32.932 -16.312 -24.515  0.00  0.00    -0.172 NA
ATOM     20  C   UNL     1      34.182 -15.806 -22.690  0.00  0.00    +0.091 C 
ATOM     21  C   UNL     1      34.179 -17.174 -22.807  0.00  0.00    +0.040 C 
ATOM     22  C   UNL     1      33.395 -17.429 -23.946  0.00  0.00    +0.120 C 
ENDBRANCH  15  18
ENDBRANCH  11  12
ENDBRANCH   1  11
BRANCH   1  23
ATOM     23  C   UNL     1      31.566  -8.280 -23.157  0.00  0.00    +0.123 C 
BRANCH  23  24
ATOM     24  C   UNL     1      31.394  -8.566 -21.692  0.00  0.00    -0.001 C 
ATOM     25  C   UNL     1      31.076  -9.855 -21.265  0.00  0.00    +0.034 C 
ATOM     26  C   UNL     1      31.554  -7.542 -20.758  0.00  0.00    -0.003 C 
ATOM     27  C   UNL     1      30.917 -10.120 -19.906  0.00  0.00    +0.139 C 
ATOM     28  C   UNL     1      31.395  -7.807 -19.398  0.00  0.00    +0.003 C 
ATOM     29  C   UNL     1      31.077  -9.097 -18.972  0.00  0.00    +0.037 C 
BRANCH  27  30
ATOM     30  O   UNL     1      30.603 -11.377 -19.489  0.00  0.00    -0.464 OA
BRANCH  30  31
ATOM     31  C   UNL     1      30.876 -12.448 -20.392  0.00  0.00    +0.314 C 
BRANCH  31  33
ATOM     32  O   UNL     1      30.976 -14.367 -18.906  0.00  0.00    -0.246 OA
ATOM     33  C   UNL     1      31.535 -13.580 -19.656  0.00  0.00    +0.359 C 
BRANCH  33  34
ATOM     34  O   UNL     1      32.861 -13.615 -19.940  0.00  0.00    -0.478 OA
ATOM     35  H   UNL     1      33.490 -13.613 -19.245  0.00  0.00    +0.295 HD
ENDBRANCH  33  34
ENDBRANCH  31  33
ENDBRANCH  30  31
ENDBRANCH  27  30
ENDBRANCH  23  24
ENDBRANCH   1  23
TORSDOF 11
ENDMDL
