MODEL 1
REMARK VINA RESULT:     -12.0      0.000      0.000
REMARK  Name = 23586146
REMARK  5 active torsions:
REMARK  status: ('A' for Active; 'I' for Inactive)
REMARK    1  A    between atoms: N_1  and  C_12
REMARK    2  A    between atoms: C_8  and  N_18
REMARK    3  A    between atoms: N_18  and  C_20
REMARK    4  A    between atoms: C_23  and  S_26
REMARK    5  A    between atoms: S_26  and  N_29
REMARK                            x       y       z     vdW  Elec       q    Type
REMARK                         _______ _______ _______ _____ _____    ______ ____
ROOT
ATOM      1  N   UNL     1      34.598 -24.029 -13.721  0.00  0.00    -0.309 N 
ATOM      2  N   UNL     1      32.358 -23.552 -13.572  0.00  0.00    -0.321 NA
ATOM      3  N   UNL     1      31.183 -22.869 -15.553  0.00  0.00    -0.106 N 
ATOM      4  N   UNL     1      29.920 -22.509 -15.906  0.00  0.00    -0.139 NA
ATOM      5  N   UNL     1      30.003 -22.994 -13.683  0.00  0.00    -0.145 NA
ATOM      6  C   UNL     1      33.447 -23.647 -14.298  0.00  0.00    +0.196 C 
ATOM      7  C   UNL     1      33.473 -23.343 -15.771  0.00  0.00    +0.081 C 
ATOM      8  C   UNL     1      32.326 -22.961 -16.351  0.00  0.00    +0.140 C 
ATOM      9  C   UNL     1      31.209 -23.162 -14.188  0.00  0.00    +0.176 C 
ATOM     10  C   UNL     1      29.266 -22.602 -14.753  0.00  0.00    +0.230 C 
ATOM     11  H   UNL     1      35.409 -24.080 -14.276  0.00  0.00    +0.149 HD
ENDROOT
BRANCH   1  12
ATOM     12  C   UNL     1      34.698 -24.370 -12.314  0.00  0.00    +0.071 C 
ATOM     13  C   UNL     1      35.700 -25.512 -12.119  0.00  0.00    +0.020 C 
ATOM     14  C   UNL     1      35.090 -23.133 -11.500  0.00  0.00    +0.020 C 
ATOM     15  C   UNL     1      37.147 -25.076 -12.351  0.00  0.00    +0.002 C 
ATOM     16  C   UNL     1      36.539 -22.706 -11.734  0.00  0.00    +0.002 C 
ATOM     17  C   UNL     1      37.511 -23.860 -11.507  0.00  0.00    +0.000 C 
ENDBRANCH   1  12
BRANCH   8  18
ATOM     18  N   UNL     1      32.200 -22.653 -17.676  0.00  0.00    -0.299 N 
ATOM     19  H   UNL     1      31.520 -23.162 -18.172  0.00  0.00    +0.153 HD
BRANCH  18  20
ATOM     20  C   UNL     1      32.914 -21.706 -18.418  0.00  0.00    +0.049 C 
ATOM     21  C   UNL     1      32.232 -20.767 -19.192  0.00  0.00    +0.016 C 
ATOM     22  C   UNL     1      34.309 -21.700 -18.384  0.00  0.00    +0.016 C 
ATOM     23  C   UNL     1      34.339 -19.817 -19.897  0.00  0.00    +0.122 C 
ATOM     24  C   UNL     1      32.944 -19.822 -19.932  0.00  0.00    +0.021 C 
ATOM     25  C   UNL     1      35.020 -20.755 -19.124  0.00  0.00    +0.021 C 
BRANCH  23  26
ATOM     26  S   UNL     1      35.228 -18.635 -20.823  0.00  0.00    +0.057 S 
ATOM     27  O   UNL     1      36.617 -18.658 -20.384  0.00  0.00    -0.153 OA
ATOM     28  O   UNL     1      34.913 -18.817 -22.233  0.00  0.00    -0.153 OA
BRANCH  26  29
ATOM     29  N   UNL     1      34.504 -17.184 -20.282  0.00  0.00    -0.203 NA
ATOM     30  H   UNL     1      35.174 -16.421 -20.356  0.00  0.00    +0.144 HD
ATOM     31  H   UNL     1      34.216 -17.291 -19.309  0.00  0.00    +0.144 HD
ENDBRANCH  26  29
ENDBRANCH  23  26
ENDBRANCH  18  20
ENDBRANCH   8  18
TORSDOF 5
ENDMDL
MODEL 2
REMARK VINA RESULT:     -10.0      8.369     12.081
REMARK  Name = 23586146
REMARK  5 active torsions:
REMARK  status: ('A' for Active; 'I' for Inactive)
REMARK    1  A    between atoms: N_1  and  C_12
REMARK    2  A    between atoms: C_8  and  N_18
REMARK    3  A    between atoms: N_18  and  C_20
REMARK    4  A    between atoms: C_23  and  S_26
REMARK    5  A    between atoms: S_26  and  N_29
REMARK                            x       y       z     vdW  Elec       q    Type
REMARK                         _______ _______ _______ _____ _____    ______ ____
ROOT
ATOM      1  N   UNL     1      34.438 -16.550 -21.804  0.00  0.00    -0.309 N 
ATOM      2  N   UNL     1      33.530 -15.873 -23.801  0.00  0.00    -0.321 NA
ATOM      3  N   UNL     1      32.550 -13.684 -23.947  0.00  0.00    -0.106 N 
ATOM      4  N   UNL     1      31.932 -12.914 -24.881  0.00  0.00    -0.139 NA
ATOM      5  N   UNL     1      32.509 -14.923 -25.782  0.00  0.00    -0.145 NA
ATOM      6  C   UNL     1      33.812 -15.620 -22.545  0.00  0.00    +0.196 C 
ATOM      7  C   UNL     1      33.462 -14.318 -21.877  0.00  0.00    +0.081 C 
ATOM      8  C   UNL     1      32.837 -13.387 -22.612  0.00  0.00    +0.140 C 
ATOM      9  C   UNL     1      32.895 -14.909 -24.522  0.00  0.00    +0.176 C 
ATOM     10  C   UNL     1      31.938 -13.704 -25.950  0.00  0.00    +0.230 C 
ATOM     11  H   UNL     1      34.628 -16.351 -20.860  0.00  0.00    +0.149 HD
ENDROOT
BRANCH   1  12
ATOM     12  C   UNL     1      34.847 -17.836 -22.338  0.00  0.00    +0.071 C 
ATOM     13  C   UNL     1      36.166 -18.277 -21.697  0.00  0.00    +0.020 C 
ATOM     14  C   UNL     1      33.740 -18.872 -22.116  0.00  0.00    +0.020 C 
ATOM     15  C   UNL     1      36.006 -18.679 -20.230  0.00  0.00    +0.002 C 
ATOM     16  C   UNL     1      33.589 -19.272 -20.649  0.00  0.00    +0.002 C 
ATOM     17  C   UNL     1      34.916 -19.729 -20.050  0.00  0.00    +0.000 C 
ENDBRANCH   1  12
BRANCH   8  18
ATOM     18  N   UNL     1      32.459 -12.162 -22.141  0.00  0.00    -0.299 N 
ATOM     19  H   UNL     1      31.943 -12.165 -21.303  0.00  0.00    +0.153 HD
BRANCH  18  20
ATOM     20  C   UNL     1      32.713 -10.903 -22.696  0.00  0.00    +0.049 C 
ATOM     21  C   UNL     1      31.886  -9.823 -22.384  0.00  0.00    +0.016 C 
ATOM     22  C   UNL     1      33.792 -10.726 -23.561  0.00  0.00    +0.016 C 
ATOM     23  C   UNL     1      33.219  -8.392 -23.803  0.00  0.00    +0.122 C 
ATOM     24  C   UNL     1      32.139  -8.568 -22.937  0.00  0.00    +0.021 C 
ATOM     25  C   UNL     1      34.045  -9.471 -24.114  0.00  0.00    +0.021 C 
BRANCH  23  26
ATOM     26  S   UNL     1      33.535  -6.821 -24.495  0.00  0.00    +0.057 S 
ATOM     27  O   UNL     1      34.159  -5.988 -23.476  0.00  0.00    -0.153 OA
ATOM     28  O   UNL     1      34.193  -7.005 -25.781  0.00  0.00    -0.153 OA
BRANCH  26  29
ATOM     29  N   UNL     1      31.944  -6.259 -24.767  0.00  0.00    -0.203 NA
ATOM     30  H   UNL     1      31.278  -6.903 -24.344  0.00  0.00    +0.144 HD
ATOM     31  H   UNL     1      31.771  -6.202 -25.771  0.00  0.00    +0.144 HD
ENDBRANCH  26  29
ENDBRANCH  23  26
ENDBRANCH  18  20
ENDBRANCH   8  18
TORSDOF 5
ENDMDL
MODEL 3
REMARK VINA RESULT:      -9.0      9.573     13.089
REMARK  Name = 23586146
REMARK  5 active torsions:
REMARK  status: ('A' for Active; 'I' for Inactive)
REMARK    1  A    between atoms: N_1  and  C_12
REMARK    2  A    between atoms: C_8  and  N_18
REMARK    3  A    between atoms: N_18  and  C_20
REMARK    4  A    between atoms: C_23  and  S_26
REMARK    5  A    between atoms: S_26  and  N_29
REMARK                            x       y       z     vdW  Elec       q    Type
REMARK                         _______ _______ _______ _____ _____    ______ ____
ROOT
ATOM      1  N   UNL     1      33.528 -15.473 -21.714  0.00  0.00    -0.309 N 
ATOM      2  N   UNL     1      33.769 -13.568 -22.973  0.00  0.00    -0.321 NA
ATOM      3  N   UNL     1      32.359 -11.681 -22.502  0.00  0.00    -0.106 N 
ATOM      4  N   UNL     1      32.169 -10.419 -22.971  0.00  0.00    -0.139 NA
ATOM      5  N   UNL     1      33.821 -11.451 -24.150  0.00  0.00    -0.145 NA
ATOM      6  C   UNL     1      33.165 -14.212 -22.002  0.00  0.00    +0.196 C 
ATOM      7  C   UNL     1      32.064 -13.599 -21.179  0.00  0.00    +0.081 C 
ATOM      8  C   UNL     1      31.698 -12.341 -21.463  0.00  0.00    +0.140 C 
ATOM      9  C   UNL     1      33.375 -12.293 -23.238  0.00  0.00    +0.176 C 
ATOM     10  C   UNL     1      33.066 -10.342 -23.949  0.00  0.00    +0.230 C 
ATOM     11  H   UNL     1      33.054 -15.947 -20.994  0.00  0.00    +0.149 HD
ENDROOT
BRANCH   1  12
ATOM     12  C   UNL     1      34.589 -16.166 -22.421  0.00  0.00    +0.071 C 
ATOM     13  C   UNL     1      35.016 -17.412 -21.638  0.00  0.00    +0.020 C 
ATOM     14  C   UNL     1      34.130 -16.523 -23.838  0.00  0.00    +0.020 C 
ATOM     15  C   UNL     1      33.962 -18.519 -21.666  0.00  0.00    +0.002 C 
ATOM     16  C   UNL     1      33.080 -17.633 -23.859  0.00  0.00    +0.002 C 
ATOM     17  C   UNL     1      33.548 -18.866 -23.092  0.00  0.00    +0.000 C 
ENDBRANCH   1  12
BRANCH   8  18
ATOM     18  N   UNL     1      30.717 -11.659 -20.802  0.00  0.00    -0.299 N 
ATOM     19  H   UNL     1      29.872 -12.145 -20.667  0.00  0.00    +0.153 HD
BRANCH  18  20
ATOM     20  C   UNL     1      30.760 -10.357 -20.290  0.00  0.00    +0.049 C 
ATOM     21  C   UNL     1      31.019 -10.148 -18.934  0.00  0.00    +0.016 C 
ATOM     22  C   UNL     1      30.543  -9.268 -21.133  0.00  0.00    +0.016 C 
ATOM     23  C   UNL     1      30.845  -7.762 -19.269  0.00  0.00    +0.122 C 
ATOM     24  C   UNL     1      31.062  -8.851 -18.424  0.00  0.00    +0.021 C 
ATOM     25  C   UNL     1      30.586  -7.971 -20.623  0.00  0.00    +0.021 C 
BRANCH  23  26
ATOM     26  S   UNL     1      30.899  -6.139 -18.630  0.00  0.00    +0.057 S 
ATOM     27  O   UNL     1      29.931  -6.039 -17.546  0.00  0.00    -0.153 OA
ATOM     28  O   UNL     1      32.290  -5.780 -18.392  0.00  0.00    -0.153 OA
BRANCH  26  29
ATOM     29  N   UNL     1      30.322  -5.242 -19.966  0.00  0.00    -0.203 NA
ATOM     30  H   UNL     1      30.948  -5.374 -20.759  0.00  0.00    +0.144 HD
ATOM     31  H   UNL     1      30.286  -4.252 -19.721  0.00  0.00    +0.144 HD
ENDBRANCH  26  29
ENDBRANCH  23  26
ENDBRANCH  18  20
ENDBRANCH   8  18
TORSDOF 5
ENDMDL
