MODEL 1
REMARK VINA RESULT:     -11.8      0.000      0.000
REMARK  Name = 6323454
REMARK  1 active torsions:
REMARK  status: ('A' for Active; 'I' for Inactive)
REMARK    1  A    between atoms: C_18  and  O_22
REMARK                            x       y       z     vdW  Elec       q    Type
REMARK                         _______ _______ _______ _____ _____    ______ ____
ROOT
ATOM      1  O   UNL     1      33.240 -24.238 -12.648  0.00  0.00    -0.350 OA
ATOM      2  O   UNL     1      36.359 -22.597 -12.777  0.00  0.00    -0.445 OA
ATOM      3  O   UNL     1      36.827 -22.172 -15.495  0.00  0.00    -0.287 OA
ATOM      4  O   UNL     1      37.200 -22.517 -10.631  0.00  0.00    -0.250 OA
ATOM      5  O   UNL     1      31.678 -23.147 -16.471  0.00  0.00    -0.287 OA
ATOM      6  C   UNL     1      34.246 -23.313 -12.299  0.00  0.00    +0.171 C 
ATOM      7  C   UNL     1      35.317 -23.369 -13.359  0.00  0.00    +0.221 C 
ATOM      8  C   UNL     1      34.735 -22.905 -14.659  0.00  0.00    +0.060 C 
ATOM      9  C   UNL     1      32.527 -23.806 -13.838  0.00  0.00    +0.141 C 
ATOM     10  C   UNL     1      33.427 -23.136 -14.886  0.00  0.00    +0.046 C 
ATOM     11  C   UNL     1      35.072 -23.618 -11.074  0.00  0.00    +0.143 C 
ATOM     12  C   UNL     1      36.331 -22.855 -11.420  0.00  0.00    +0.320 C 
ATOM     13  C   UNL     1      35.622 -22.291 -15.677  0.00  0.00    +0.195 C 
ATOM     14  C   UNL     1      32.823 -22.801 -16.207  0.00  0.00    +0.197 C 
ATOM     15  C   UNL     1      31.371 -22.909 -13.383  0.00  0.00    +0.037 C 
ATOM     16  C   UNL     1      35.000 -21.825 -16.930  0.00  0.00    +0.045 C 
ATOM     17  C   UNL     1      33.652 -22.072 -17.184  0.00  0.00    +0.075 C 
ATOM     18  C   UNL     1      33.078 -21.633 -18.384  0.00  0.00    +0.137 C 
ATOM     19  C   UNL     1      35.777 -21.143 -17.873  0.00  0.00    +0.003 C 
ATOM     20  C   UNL     1      33.854 -20.950 -19.321  0.00  0.00    +0.037 C 
ATOM     21  C   UNL     1      35.201 -20.706 -19.066  0.00  0.00    +0.003 C 
ENDROOT
BRANCH  18  22
ATOM     22  O   UNL     1      31.765 -21.834 -18.692  0.00  0.00    -0.505 OA
ATOM     23  H   UNL     1      31.097 -21.563 -18.093  0.00  0.00    +0.292 HD
ENDBRANCH  18  22
TORSDOF 1
ENDMDL
MODEL 2
REMARK VINA RESULT:     -10.7      2.020      5.731
REMARK  Name = 6323454
REMARK  1 active torsions:
REMARK  status: ('A' for Active; 'I' for Inactive)
REMARK    1  A    between atoms: C_18  and  O_22
REMARK                            x       y       z     vdW  Elec       q    Type
REMARK                         _______ _______ _______ _____ _____    ______ ____
ROOT
ATOM      1  O   UNL     1      31.097 -22.686 -14.140  0.00  0.00    -0.350 OA
ATOM      2  O   UNL     1      33.357 -22.584 -16.847  0.00  0.00    -0.445 OA
ATOM      3  O   UNL     1      35.879 -22.820 -15.676  0.00  0.00    -0.287 OA
ATOM      4  O   UNL     1      32.142 -22.163 -18.761  0.00  0.00    -0.250 OA
ATOM      5  O   UNL     1      33.569 -24.540 -11.191  0.00  0.00    -0.287 OA
ATOM      6  C   UNL     1      31.627 -22.984 -15.415  0.00  0.00    +0.171 C 
ATOM      7  C   UNL     1      33.035 -22.445 -15.469  0.00  0.00    +0.221 C 
ATOM      8  C   UNL     1      33.873 -23.182 -14.470  0.00  0.00    +0.060 C 
ATOM      9  C   UNL     1      31.769 -23.455 -13.106  0.00  0.00    +0.141 C 
ATOM     10  C   UNL     1      33.274 -23.632 -13.350  0.00  0.00    +0.046 C 
ATOM     11  C   UNL     1      31.026 -22.268 -16.599  0.00  0.00    +0.143 C 
ATOM     12  C   UNL     1      32.198 -22.325 -17.552  0.00  0.00    +0.320 C 
ATOM     13  C   UNL     1      35.332 -23.316 -14.700  0.00  0.00    +0.195 C 
ATOM     14  C   UNL     1      34.081 -24.267 -12.270  0.00  0.00    +0.197 C 
ATOM     15  C   UNL     1      31.026 -24.788 -12.968  0.00  0.00    +0.037 C 
ATOM     16  C   UNL     1      36.112 -24.071 -13.703  0.00  0.00    +0.045 C 
ATOM     17  C   UNL     1      35.508 -24.529 -12.532  0.00  0.00    +0.075 C 
ATOM     18  C   UNL     1      36.264 -25.236 -11.589  0.00  0.00    +0.137 C 
ATOM     19  C   UNL     1      37.471 -24.316 -13.931  0.00  0.00    +0.003 C 
ATOM     20  C   UNL     1      37.618 -25.482 -11.821  0.00  0.00    +0.037 C 
ATOM     21  C   UNL     1      38.220 -25.022 -12.990  0.00  0.00    +0.003 C 
ENDROOT
BRANCH  18  22
ATOM     22  O   UNL     1      35.735 -25.717 -10.428  0.00  0.00    -0.505 OA
ATOM     23  H   UNL     1      35.465 -26.613 -10.374  0.00  0.00    +0.292 HD
ENDBRANCH  18  22
TORSDOF 1
ENDMDL
MODEL 3
REMARK VINA RESULT:     -10.6      1.733      4.400
REMARK  Name = 6323454
REMARK  1 active torsions:
REMARK  status: ('A' for Active; 'I' for Inactive)
REMARK    1  A    between atoms: C_18  and  O_22
REMARK                            x       y       z     vdW  Elec       q    Type
REMARK                         _______ _______ _______ _____ _____    ______ ____
ROOT
ATOM      1  O   UNL     1      32.254 -23.815 -12.273  0.00  0.00    -0.350 OA
ATOM      2  O   UNL     1      29.812 -24.056 -14.808  0.00  0.00    -0.445 OA
ATOM      3  O   UNL     1      30.707 -22.345 -16.822  0.00  0.00    -0.287 OA
ATOM      4  O   UNL     1      28.103 -25.385 -14.013  0.00  0.00    -0.250 OA
ATOM      5  O   UNL     1      35.532 -22.298 -14.554  0.00  0.00    -0.287 OA
ATOM      6  C   UNL     1      31.344 -24.431 -13.159  0.00  0.00    +0.171 C 
ATOM      7  C   UNL     1      30.882 -23.391 -14.148  0.00  0.00    +0.221 C 
ATOM      8  C   UNL     1      32.054 -22.951 -14.970  0.00  0.00    +0.060 C 
ATOM      9  C   UNL     1      33.486 -23.462 -12.958  0.00  0.00    +0.141 C 
ATOM     10  C   UNL     1      33.272 -22.965 -14.394  0.00  0.00    +0.046 C 
ATOM     11  C   UNL     1      30.014 -24.865 -12.594  0.00  0.00    +0.143 C 
ATOM     12  C   UNL     1      29.178 -24.827 -13.853  0.00  0.00    +0.320 C 
ATOM     13  C   UNL     1      31.831 -22.440 -16.344  0.00  0.00    +0.195 C 
ATOM     14  C   UNL     1      34.455 -22.428 -15.125  0.00  0.00    +0.197 C 
ATOM     15  C   UNL     1      34.420 -24.674 -12.878  0.00  0.00    +0.037 C 
ATOM     16  C   UNL     1      33.017 -22.044 -17.125  0.00  0.00    +0.045 C 
ATOM     17  C   UNL     1      34.281 -22.038 -16.536  0.00  0.00    +0.075 C 
ATOM     18  C   UNL     1      35.397 -21.648 -17.287  0.00  0.00    +0.137 C 
ATOM     19  C   UNL     1      32.865 -21.658 -18.462  0.00  0.00    +0.003 C 
ATOM     20  C   UNL     1      35.244 -21.268 -18.621  0.00  0.00    +0.037 C 
ATOM     21  C   UNL     1      33.980 -21.272 -19.207  0.00  0.00    +0.003 C 
ENDROOT
BRANCH  18  22
ATOM     22  O   UNL     1      36.661 -21.628 -16.776  0.00  0.00    -0.505 OA
ATOM     23  H   UNL     1      37.077 -22.428 -16.524  0.00  0.00    +0.292 HD
ENDBRANCH  18  22
TORSDOF 1
ENDMDL
MODEL 4
REMARK VINA RESULT:     -10.4      1.836      6.178
REMARK  Name = 6323454
REMARK  1 active torsions:
REMARK  status: ('A' for Active; 'I' for Inactive)
REMARK    1  A    between atoms: C_18  and  O_22
REMARK                            x       y       z     vdW  Elec       q    Type
REMARK                         _______ _______ _______ _____ _____    ______ ____
ROOT
ATOM      1  O   UNL     1      36.097 -22.029 -17.272  0.00  0.00    -0.350 OA
ATOM      2  O   UNL     1      33.110 -20.962 -18.815  0.00  0.00    -0.445 OA
ATOM      3  O   UNL     1      31.087 -22.341 -17.476  0.00  0.00    -0.287 OA
ATOM      4  O   UNL     1      33.682 -19.602 -20.588  0.00  0.00    -0.250 OA
ATOM      5  O   UNL     1      34.533 -23.484 -13.573  0.00  0.00    -0.287 OA
ATOM      6  C   UNL     1      35.160 -21.132 -17.828  0.00  0.00    +0.171 C 
ATOM      7  C   UNL     1      33.870 -21.883 -18.042  0.00  0.00    +0.221 C 
ATOM      8  C   UNL     1      33.328 -22.303 -16.710  0.00  0.00    +0.060 C 
ATOM      9  C   UNL     1      35.721 -22.399 -15.918  0.00  0.00    +0.141 C 
ATOM     10  C   UNL     1      34.207 -22.567 -15.724  0.00  0.00    +0.046 C 
ATOM     11  C   UNL     1      35.417 -20.645 -19.232  0.00  0.00    +0.143 C 
ATOM     12  C   UNL     1      34.001 -20.319 -19.652  0.00  0.00    +0.320 C 
ATOM     13  C   UNL     1      31.867 -22.494 -16.545  0.00  0.00    +0.195 C 
ATOM     14  C   UNL     1      33.732 -23.100 -14.416  0.00  0.00    +0.197 C 
ATOM     15  C   UNL     1      36.334 -21.364 -14.969  0.00  0.00    +0.037 C 
ATOM     16  C   UNL     1      31.378 -22.882 -15.209  0.00  0.00    +0.045 C 
ATOM     17  C   UNL     1      32.277 -23.174 -14.185  0.00  0.00    +0.075 C 
ATOM     18  C   UNL     1      31.798 -23.552 -12.924  0.00  0.00    +0.137 C 
ATOM     19  C   UNL     1      30.000 -22.969 -14.978  0.00  0.00    +0.003 C 
ATOM     20  C   UNL     1      30.424 -23.634 -12.695  0.00  0.00    +0.037 C 
ATOM     21  C   UNL     1      29.527 -23.344 -13.720  0.00  0.00    +0.003 C 
ENDROOT
BRANCH  18  22
ATOM     22  O   UNL     1      32.621 -23.843 -11.877  0.00  0.00    -0.505 OA
ATOM     23  H   UNL     1      32.259 -24.151 -11.069  0.00  0.00    +0.292 HD
ENDBRANCH  18  22
TORSDOF 1
ENDMDL
MODEL 5
REMARK VINA RESULT:     -10.2      1.928      5.151
REMARK  Name = 6323454
REMARK  1 active torsions:
REMARK  status: ('A' for Active; 'I' for Inactive)
REMARK    1  A    between atoms: C_18  and  O_22
REMARK                            x       y       z     vdW  Elec       q    Type
REMARK                         _______ _______ _______ _____ _____    ______ ____
ROOT
ATOM      1  O   UNL     1      35.863 -23.566 -14.052  0.00  0.00    -0.350 OA
ATOM      2  O   UNL     1      34.598 -21.607 -16.699  0.00  0.00    -0.445 OA
ATOM      3  O   UNL     1      31.961 -22.463 -17.019  0.00  0.00    -0.287 OA
ATOM      4  O   UNL     1      36.336 -20.337 -17.525  0.00  0.00    -0.250 OA
ATOM      5  O   UNL     1      32.198 -24.789 -12.229  0.00  0.00    -0.287 OA
ATOM      6  C   UNL     1      35.612 -22.407 -14.818  0.00  0.00    +0.171 C 
ATOM      7  C   UNL     1      34.578 -22.754 -15.859  0.00  0.00    +0.221 C 
ATOM      8  C   UNL     1      33.294 -23.101 -15.168  0.00  0.00    +0.060 C 
ATOM      9  C   UNL     1      34.707 -23.913 -13.242  0.00  0.00    +0.141 C 
ATOM     10  C   UNL     1      33.365 -23.668 -13.948  0.00  0.00    +0.046 C 
ATOM     11  C   UNL     1      36.725 -21.913 -15.709  0.00  0.00    +0.143 C 
ATOM     12  C   UNL     1      35.910 -21.178 -16.750  0.00  0.00    +0.320 C 
ATOM     13  C   UNL     1      32.007 -22.892 -15.873  0.00  0.00    +0.195 C 
ATOM     14  C   UNL     1      32.127 -24.140 -13.265  0.00  0.00    +0.197 C 
ATOM     15  C   UNL     1      34.830 -23.157 -11.915  0.00  0.00    +0.037 C 
ATOM     16  C   UNL     1      30.769 -23.222 -15.144  0.00  0.00    +0.045 C 
ATOM     17  C   UNL     1      30.829 -23.824 -13.888  0.00  0.00    +0.075 C 
ATOM     18  C   UNL     1      29.644 -24.142 -13.212  0.00  0.00    +0.137 C 
ATOM     19  C   UNL     1      29.528 -22.941 -15.728  0.00  0.00    +0.003 C 
ATOM     20  C   UNL     1      28.408 -23.857 -13.794  0.00  0.00    +0.037 C 
ATOM     21  C   UNL     1      28.351 -23.258 -15.050  0.00  0.00    +0.003 C 
ENDROOT
BRANCH  18  22
ATOM     22  O   UNL     1      29.630 -24.724 -11.978  0.00  0.00    -0.505 OA
ATOM     23  H   UNL     1      30.304 -24.523 -11.359  0.00  0.00    +0.292 HD
ENDBRANCH  18  22
TORSDOF 1
ENDMDL
MODEL 6
REMARK VINA RESULT:      -9.8      2.327      5.371
REMARK  Name = 6323454
REMARK  1 active torsions:
REMARK  status: ('A' for Active; 'I' for Inactive)
REMARK    1  A    between atoms: C_18  and  O_22
REMARK                            x       y       z     vdW  Elec       q    Type
REMARK                         _______ _______ _______ _____ _____    ______ ____
ROOT
ATOM      1  O   UNL     1      29.712 -23.487 -13.133  0.00  0.00    -0.350 OA
ATOM      2  O   UNL     1      28.824 -23.097 -16.525  0.00  0.00    -0.445 OA
ATOM      3  O   UNL     1      30.962 -21.710 -17.663  0.00  0.00    -0.287 OA
ATOM      4  O   UNL     1      26.683 -23.911 -16.789  0.00  0.00    -0.250 OA
ATOM      5  O   UNL     1      33.937 -22.928 -13.411  0.00  0.00    -0.287 OA
ATOM      6  C   UNL     1      29.226 -23.848 -14.409  0.00  0.00    +0.171 C 
ATOM      7  C   UNL     1      29.565 -22.734 -15.366  0.00  0.00    +0.221 C 
ATOM      8  C   UNL     1      31.055 -22.632 -15.484  0.00  0.00    +0.060 C 
ATOM      9  C   UNL     1      31.165 -23.485 -13.112  0.00  0.00    +0.141 C 
ATOM     10  C   UNL     1      31.798 -22.965 -14.410  0.00  0.00    +0.046 C 
ATOM     11  C   UNL     1      27.730 -23.905 -14.589  0.00  0.00    +0.143 C 
ATOM     12  C   UNL     1      27.644 -23.659 -16.079  0.00  0.00    +0.320 C 
ATOM     13  C   UNL     1      31.653 -22.096 -16.730  0.00  0.00    +0.195 C 
ATOM     14  C   UNL     1      33.276 -22.773 -14.431  0.00  0.00    +0.197 C 
ATOM     15  C   UNL     1      31.623 -24.901 -12.749  0.00  0.00    +0.037 C 
ATOM     16  C   UNL     1      33.124 -22.040 -16.809  0.00  0.00    +0.045 C 
ATOM     17  C   UNL     1      33.905 -22.366 -15.701  0.00  0.00    +0.075 C 
ATOM     18  C   UNL     1      35.301 -22.297 -15.788  0.00  0.00    +0.137 C 
ATOM     19  C   UNL     1      33.736 -21.644 -18.005  0.00  0.00    +0.003 C 
ATOM     20  C   UNL     1      35.908 -21.905 -16.982  0.00  0.00    +0.037 C 
ATOM     21  C   UNL     1      35.127 -21.579 -18.088  0.00  0.00    +0.003 C 
ENDROOT
BRANCH  18  22
ATOM     22  O   UNL     1      36.123 -22.609 -14.746  0.00  0.00    -0.505 OA
ATOM     23  H   UNL     1      36.540 -23.448 -14.714  0.00  0.00    +0.292 HD
ENDBRANCH  18  22
TORSDOF 1
ENDMDL
MODEL 7
REMARK VINA RESULT:      -9.7      2.130      4.846
REMARK  Name = 6323454
REMARK  1 active torsions:
REMARK  status: ('A' for Active; 'I' for Inactive)
REMARK    1  A    between atoms: C_18  and  O_22
REMARK                            x       y       z     vdW  Elec       q    Type
REMARK                         _______ _______ _______ _____ _____    ______ ____
ROOT
ATOM      1  O   UNL     1      34.871 -22.123 -15.647  0.00  0.00    -0.350 OA
ATOM      2  O   UNL     1      34.767 -24.566 -13.105  0.00  0.00    -0.445 OA
ATOM      3  O   UNL     1      32.102 -24.618 -12.278  0.00  0.00    -0.287 OA
ATOM      4  O   UNL     1      36.928 -25.273 -12.722  0.00  0.00    -0.250 OA
ATOM      5  O   UNL     1      30.738 -22.001 -16.718  0.00  0.00    -0.287 OA
ATOM      6  C   UNL     1      35.127 -23.353 -15.003  0.00  0.00    +0.171 C 
ATOM      7  C   UNL     1      34.247 -23.428 -13.781  0.00  0.00    +0.221 C 
ATOM      8  C   UNL     1      32.815 -23.459 -14.217  0.00  0.00    +0.060 C 
ATOM      9  C   UNL     1      33.536 -22.105 -16.220  0.00  0.00    +0.141 C 
ATOM     10  C   UNL     1      32.485 -22.813 -15.353  0.00  0.00    +0.046 C 
ATOM     11  C   UNL     1      36.482 -23.530 -14.364  0.00  0.00    +0.143 C 
ATOM     12  C   UNL     1      36.133 -24.558 -13.311  0.00  0.00    +0.320 C 
ATOM     13  C   UNL     1      31.804 -24.116 -13.355  0.00  0.00    +0.195 C 
ATOM     14  C   UNL     1      31.059 -22.712 -15.773  0.00  0.00    +0.197 C 
ATOM     15  C   UNL     1      33.633 -22.685 -17.634  0.00  0.00    +0.037 C 
ATOM     16  C   UNL     1      30.411 -24.145 -13.838  0.00  0.00    +0.045 C 
ATOM     17  C   UNL     1      30.054 -23.468 -15.003  0.00  0.00    +0.075 C 
ATOM     18  C   UNL     1      28.724 -23.495 -15.444  0.00  0.00    +0.137 C 
ATOM     19  C   UNL     1      29.443 -24.847 -13.111  0.00  0.00    +0.003 C 
ATOM     20  C   UNL     1      27.762 -24.199 -14.719  0.00  0.00    +0.037 C 
ATOM     21  C   UNL     1      28.120 -24.873 -13.554  0.00  0.00    +0.003 C 
ENDROOT
BRANCH  18  22
ATOM     22  O   UNL     1      28.309 -22.862 -16.577  0.00  0.00    -0.505 OA
ATOM     23  H   UNL     1      28.408 -21.933 -16.658  0.00  0.00    +0.292 HD
ENDBRANCH  18  22
TORSDOF 1
ENDMDL
MODEL 8
REMARK VINA RESULT:      -9.4      1.259      6.497
REMARK  Name = 6323454
REMARK  1 active torsions:
REMARK  status: ('A' for Active; 'I' for Inactive)
REMARK    1  A    between atoms: C_18  and  O_22
REMARK                            x       y       z     vdW  Elec       q    Type
REMARK                         _______ _______ _______ _____ _____    ______ ____
ROOT
ATOM      1  O   UNL     1      35.702 -21.293 -18.421  0.00  0.00    -0.350 OA
ATOM      2  O   UNL     1      32.180 -21.435 -18.261  0.00  0.00    -0.445 OA
ATOM      3  O   UNL     1      31.635 -23.191 -16.162  0.00  0.00    -0.287 OA
ATOM      4  O   UNL     1      31.347 -20.212 -20.029  0.00  0.00    -0.250 OA
ATOM      5  O   UNL     1      36.671 -22.663 -14.493  0.00  0.00    -0.287 OA
ATOM      6  C   UNL     1      34.372 -20.819 -18.411  0.00  0.00    +0.171 C 
ATOM      7  C   UNL     1      33.476 -21.959 -17.997  0.00  0.00    +0.221 C 
ATOM      8  C   UNL     1      33.807 -22.348 -16.589  0.00  0.00    +0.060 C 
ATOM      9  C   UNL     1      36.161 -21.580 -17.073  0.00  0.00    +0.141 C 
ATOM     10  C   UNL     1      35.078 -22.188 -16.170  0.00  0.00    +0.046 C 
ATOM     11  C   UNL     1      33.752 -20.467 -19.740  0.00  0.00    +0.143 C 
ATOM     12  C   UNL     1      32.292 -20.661 -19.400  0.00  0.00    +0.320 C 
ATOM     13  C   UNL     1      32.762 -22.966 -15.738  0.00  0.00    +0.195 C 
ATOM     14  C   UNL     1      35.490 -22.666 -14.820  0.00  0.00    +0.197 C 
ATOM     15  C   UNL     1      36.756 -20.288 -16.504  0.00  0.00    +0.037 C 
ATOM     16  C   UNL     1      33.127 -23.308 -14.351  0.00  0.00    +0.045 C 
ATOM     17  C   UNL     1      34.442 -23.163 -13.910  0.00  0.00    +0.075 C 
ATOM     18  C   UNL     1      34.776 -23.502 -12.593  0.00  0.00    +0.137 C 
ATOM     19  C   UNL     1      32.145 -23.793 -13.479  0.00  0.00    +0.003 C 
ATOM     20  C   UNL     1      33.794 -23.982 -11.725  0.00  0.00    +0.037 C 
ATOM     21  C   UNL     1      32.482 -24.128 -12.167  0.00  0.00    +0.003 C 
ENDROOT
BRANCH  18  22
ATOM     22  O   UNL     1      36.039 -23.378 -12.095  0.00  0.00    -0.505 OA
ATOM     23  H   UNL     1      36.627 -22.747 -12.463  0.00  0.00    +0.292 HD
ENDBRANCH  18  22
TORSDOF 1
ENDMDL
MODEL 9
REMARK VINA RESULT:      -9.3     12.417     15.078
REMARK  Name = 6323454
REMARK  1 active torsions:
REMARK  status: ('A' for Active; 'I' for Inactive)
REMARK    1  A    between atoms: C_18  and  O_22
REMARK                            x       y       z     vdW  Elec       q    Type
REMARK                         _______ _______ _______ _____ _____    ______ ____
ROOT
ATOM      1  O   UNL     1      30.246 -11.393 -19.904  0.00  0.00    -0.350 OA
ATOM      2  O   UNL     1      32.922 -12.538 -21.896  0.00  0.00    -0.445 OA
ATOM      3  O   UNL     1      33.344 -10.501 -23.757  0.00  0.00    -0.287 OA
ATOM      4  O   UNL     1      33.424 -14.688 -21.231  0.00  0.00    -0.250 OA
ATOM      5  O   UNL     1      30.470  -7.204 -20.709  0.00  0.00    -0.287 OA
ATOM      6  C   UNL     1      31.497 -11.972 -20.207  0.00  0.00    +0.171 C 
ATOM      7  C   UNL     1      31.786 -11.713 -21.664  0.00  0.00    +0.221 C 
ATOM      8  C   UNL     1      31.930 -10.237 -21.875  0.00  0.00    +0.060 C 
ATOM      9  C   UNL     1      30.317  -9.943 -19.958  0.00  0.00    +0.141 C 
ATOM     10  C   UNL     1      31.217  -9.412 -21.083  0.00  0.00    +0.046 C 
ATOM     11  C   UNL     1      31.588 -13.477 -20.183  0.00  0.00    +0.143 C 
ATOM     12  C   UNL     1      32.745 -13.677 -21.136  0.00  0.00    +0.320 C 
ATOM     13  C   UNL     1      32.775  -9.738 -22.987  0.00  0.00    +0.195 C 
ATOM     14  C   UNL     1      31.231  -7.942 -21.324  0.00  0.00    +0.197 C 
ATOM     15  C   UNL     1      30.742  -9.450 -18.571  0.00  0.00    +0.037 C 
ATOM     16  C   UNL     1      32.907  -8.278 -23.139  0.00  0.00    +0.045 C 
ATOM     17  C   UNL     1      32.163  -7.414 -22.337  0.00  0.00    +0.075 C 
ATOM     18  C   UNL     1      32.291  -6.028 -22.501  0.00  0.00    +0.137 C 
ATOM     19  C   UNL     1      33.778  -7.761 -24.105  0.00  0.00    +0.003 C 
ATOM     20  C   UNL     1      33.163  -5.516 -23.462  0.00  0.00    +0.037 C 
ATOM     21  C   UNL     1      33.905  -6.381 -24.263  0.00  0.00    +0.003 C 
ENDROOT
BRANCH  18  22
ATOM     22  O   UNL     1      31.599  -5.128 -21.746  0.00  0.00    -0.505 OA
ATOM     23  H   UNL     1      31.968  -4.285 -21.568  0.00  0.00    +0.292 HD
ENDBRANCH  18  22
TORSDOF 1
ENDMDL
