MODEL 1
REMARK VINA RESULT:     -12.5      0.000      0.000
REMARK  Name = 107971
REMARK  9 active torsions:
REMARK  status: ('A' for Active; 'I' for Inactive)
REMARK    1  A    between atoms: C_3  and  O_20
REMARK    2  A    between atoms: C_10  and  C_12
REMARK    3  A    between atoms: C_17  and  O_18
REMARK    4  A    between atoms: O_20  and  C_26
REMARK    5  A    between atoms: C_22  and  O_27
REMARK    6  A    between atoms: C_23  and  O_29
REMARK    7  A    between atoms: C_24  and  O_31
REMARK    8  A    between atoms: C_25  and  C_33
REMARK    9  A    between atoms: C_33  and  O_34
REMARK                            x       y       z     vdW  Elec       q    Type
REMARK                         _______ _______ _______ _____ _____    ______ ____
ROOT
ATOM      1  O   UNL     1      32.141 -20.958 -19.110  0.00  0.00    -0.450 OA
ATOM      2  O   UNL     1      35.880 -19.453 -19.743  0.00  0.00    -0.286 OA
ATOM      3  C   UNL     1      33.934 -22.725 -16.477  0.00  0.00    +0.144 C 
ATOM      4  C   UNL     1      32.909 -22.279 -17.310  0.00  0.00    +0.075 C 
ATOM      5  C   UNL     1      35.236 -22.253 -16.654  0.00  0.00    +0.037 C 
ATOM      6  C   UNL     1      33.188 -21.360 -18.322  0.00  0.00    +0.151 C 
ATOM      7  C   UNL     1      34.488 -20.889 -18.499  0.00  0.00    +0.074 C 
ATOM      8  C   UNL     1      35.517 -21.334 -17.665  0.00  0.00    +0.009 C 
ATOM      9  C   UNL     1      34.759 -19.915 -19.573  0.00  0.00    +0.202 C 
ATOM     10  C   UNL     1      33.598 -19.520 -20.417  0.00  0.00    +0.077 C 
ATOM     11  C   UNL     1      32.409 -20.066 -20.120  0.00  0.00    +0.183 C 
ENDROOT
BRANCH  10  12
ATOM     12  C   UNL     1      33.737 -18.586 -21.546  0.00  0.00    +0.006 C 
ATOM     13  C   UNL     1      34.276 -17.313 -21.341  0.00  0.00    +0.003 C 
ATOM     14  C   UNL     1      33.331 -18.969 -22.826  0.00  0.00    +0.003 C 
ATOM     15  C   UNL     1      34.407 -16.429 -22.411  0.00  0.00    +0.037 C 
ATOM     16  C   UNL     1      33.462 -18.084 -23.896  0.00  0.00    +0.037 C 
ATOM     17  C   UNL     1      34.000 -16.813 -23.689  0.00  0.00    +0.134 C 
BRANCH  17  18
ATOM     18  O   UNL     1      34.128 -15.950 -24.733  0.00  0.00    -0.506 OA
ATOM     19  H   UNL     1      34.979 -15.742 -25.066  0.00  0.00    +0.292 HD
ENDBRANCH  17  18
ENDBRANCH  10  12
BRANCH   3  20
ATOM     20  O   UNL     1      33.666 -23.624 -15.488  0.00  0.00    -0.450 OA
BRANCH  20  26
ATOM     21  O   UNL     1      35.593 -24.569 -14.574  0.00  0.00    -0.316 OA
ATOM     22  C   UNL     1      34.632 -24.153 -11.899  0.00  0.00    +0.173 C 
ATOM     23  C   UNL     1      35.829 -25.051 -12.209  0.00  0.00    +0.169 C 
ATOM     24  C   UNL     1      33.734 -23.986 -13.124  0.00  0.00    +0.210 C 
ATOM     25  C   UNL     1      36.528 -24.600 -13.494  0.00  0.00    +0.177 C 
ATOM     26  C   UNL     1      34.549 -23.622 -14.366  0.00  0.00    +0.318 C 
BRANCH  22  27
ATOM     27  O   UNL     1      33.886 -24.760 -10.843  0.00  0.00    -0.379 OA
ATOM     28  H   UNL     1      33.816 -24.141 -10.099  0.00  0.00    +0.211 HD
ENDBRANCH  22  27
BRANCH  23  29
ATOM     29  O   UNL     1      36.753 -24.996 -11.126  0.00  0.00    -0.379 OA
ATOM     30  H   UNL     1      36.392 -25.481 -10.367  0.00  0.00    +0.211 HD
ENDBRANCH  23  29
BRANCH  24  31
ATOM     31  O   UNL     1      32.794 -22.939 -12.884  0.00  0.00    -0.377 OA
ATOM     32  H   UNL     1      31.904 -23.315 -12.806  0.00  0.00    +0.211 HD
ENDBRANCH  24  31
BRANCH  25  33
ATOM     33  C   UNL     1      37.655 -25.550 -13.887  0.00  0.00    +0.169 C 
BRANCH  33  34
ATOM     34  O   UNL     1      37.193 -26.880 -13.742  0.00  0.00    -0.379 OA
ATOM     35  H   UNL     1      37.346 -27.367 -14.567  0.00  0.00    +0.211 HD
ENDBRANCH  33  34
ENDBRANCH  25  33
ENDBRANCH  20  26
ENDBRANCH   3  20
TORSDOF 9
ENDMDL
MODEL 2
REMARK VINA RESULT:     -12.3      0.976      1.948
REMARK  Name = 107971
REMARK  9 active torsions:
REMARK  status: ('A' for Active; 'I' for Inactive)
REMARK    1  A    between atoms: C_3  and  O_20
REMARK    2  A    between atoms: C_10  and  C_12
REMARK    3  A    between atoms: C_17  and  O_18
REMARK    4  A    between atoms: O_20  and  C_26
REMARK    5  A    between atoms: C_22  and  O_27
REMARK    6  A    between atoms: C_23  and  O_29
REMARK    7  A    between atoms: C_24  and  O_31
REMARK    8  A    between atoms: C_25  and  C_33
REMARK    9  A    between atoms: C_33  and  O_34
REMARK                            x       y       z     vdW  Elec       q    Type
REMARK                         _______ _______ _______ _____ _____    ______ ____
ROOT
ATOM      1  O   UNL     1      35.330 -21.271 -18.119  0.00  0.00    -0.450 OA
ATOM      2  O   UNL     1      31.726 -20.257 -19.739  0.00  0.00    -0.286 OA
ATOM      3  C   UNL     1      33.141 -23.160 -15.902  0.00  0.00    +0.144 C 
ATOM      4  C   UNL     1      34.287 -22.625 -16.489  0.00  0.00    +0.075 C 
ATOM      5  C   UNL     1      31.880 -22.839 -16.406  0.00  0.00    +0.037 C 
ATOM      6  C   UNL     1      34.170 -21.767 -17.583  0.00  0.00    +0.151 C 
ATOM      7  C   UNL     1      32.910 -21.446 -18.088  0.00  0.00    +0.074 C 
ATOM      8  C   UNL     1      31.760 -21.981 -17.501  0.00  0.00    +0.009 C 
ATOM      9  C   UNL     1      32.810 -20.541 -19.247  0.00  0.00    +0.202 C 
ATOM     10  C   UNL     1      34.093 -20.010 -19.785  0.00  0.00    +0.077 C 
ATOM     11  C   UNL     1      35.224 -20.413 -19.186  0.00  0.00    +0.183 C 
ENDROOT
BRANCH  10  12
ATOM     12  C   UNL     1      34.133 -19.067 -20.916  0.00  0.00    +0.006 C 
ATOM     13  C   UNL     1      33.806 -19.501 -22.202  0.00  0.00    +0.003 C 
ATOM     14  C   UNL     1      34.499 -17.736 -20.704  0.00  0.00    +0.003 C 
ATOM     15  C   UNL     1      33.845 -18.607 -23.272  0.00  0.00    +0.037 C 
ATOM     16  C   UNL     1      34.539 -16.843 -21.775  0.00  0.00    +0.037 C 
ATOM     17  C   UNL     1      34.211 -17.278 -23.059  0.00  0.00    +0.134 C 
BRANCH  17  18
ATOM     18  O   UNL     1      34.249 -16.407 -24.104  0.00  0.00    -0.506 OA
ATOM     19  H   UNL     1      34.899 -15.732 -24.126  0.00  0.00    +0.292 HD
ENDBRANCH  17  18
ENDBRANCH  10  12
BRANCH   3  20
ATOM     20  O   UNL     1      33.252 -23.997 -14.832  0.00  0.00    -0.450 OA
BRANCH  20  26
ATOM     21  O   UNL     1      35.451 -24.353 -14.139  0.00  0.00    -0.316 OA
ATOM     22  C   UNL     1      34.755 -23.871 -11.394  0.00  0.00    +0.173 C 
ATOM     23  C   UNL     1      36.090 -24.493 -11.804  0.00  0.00    +0.169 C 
ATOM     24  C   UNL     1      33.699 -24.060 -12.483  0.00  0.00    +0.210 C 
ATOM     25  C   UNL     1      36.491 -24.039 -13.210  0.00  0.00    +0.177 C 
ATOM     26  C   UNL     1      34.238 -23.659 -13.856  0.00  0.00    +0.318 C 
BRANCH  22  27
ATOM     27  O   UNL     1      34.320 -24.511 -10.193  0.00  0.00    -0.379 OA
ATOM     28  H   UNL     1      34.427 -25.472 -10.282  0.00  0.00    +0.211 HD
ENDBRANCH  22  27
BRANCH  23  29
ATOM     29  O   UNL     1      37.099 -24.099 -10.877  0.00  0.00    -0.379 OA
ATOM     30  H   UNL     1      37.706 -23.477 -11.306  0.00  0.00    +0.211 HD
ENDBRANCH  23  29
BRANCH  24  31
ATOM     31  O   UNL     1      32.567 -23.242 -12.191  0.00  0.00    -0.377 OA
ATOM     32  H   UNL     1      32.864 -22.346 -11.969  0.00  0.00    +0.211 HD
ENDBRANCH  24  31
BRANCH  25  33
ATOM     33  C   UNL     1      37.761 -24.737 -13.688  0.00  0.00    +0.169 C 
BRANCH  33  34
ATOM     34  O   UNL     1      37.391 -25.864 -14.462  0.00  0.00    -0.379 OA
ATOM     35  H   UNL     1      37.742 -26.668 -14.049  0.00  0.00    +0.211 HD
ENDBRANCH  33  34
ENDBRANCH  25  33
ENDBRANCH  20  26
ENDBRANCH   3  20
TORSDOF 9
ENDMDL
MODEL 3
REMARK VINA RESULT:     -11.2      1.354      3.274
REMARK  Name = 107971
REMARK  9 active torsions:
REMARK  status: ('A' for Active; 'I' for Inactive)
REMARK    1  A    between atoms: C_3  and  O_20
REMARK    2  A    between atoms: C_10  and  C_12
REMARK    3  A    between atoms: C_17  and  O_18
REMARK    4  A    between atoms: O_20  and  C_26
REMARK    5  A    between atoms: C_22  and  O_27
REMARK    6  A    between atoms: C_23  and  O_29
REMARK    7  A    between atoms: C_24  and  O_31
REMARK    8  A    between atoms: C_25  and  C_33
REMARK    9  A    between atoms: C_33  and  O_34
REMARK                            x       y       z     vdW  Elec       q    Type
REMARK                         _______ _______ _______ _____ _____    ______ ____
ROOT
ATOM      1  O   UNL     1      36.129 -19.482 -19.420  0.00  0.00    -0.450 OA
ATOM      2  O   UNL     1      32.286 -19.750 -20.765  0.00  0.00    -0.286 OA
ATOM      3  C   UNL     1      34.864 -21.974 -17.082  0.00  0.00    +0.144 C 
ATOM      4  C   UNL     1      35.719 -21.092 -17.741  0.00  0.00    +0.075 C 
ATOM      5  C   UNL     1      33.536 -22.099 -17.491  0.00  0.00    +0.037 C 
ATOM      6  C   UNL     1      35.243 -20.333 -18.810  0.00  0.00    +0.151 C 
ATOM      7  C   UNL     1      33.915 -20.458 -19.220  0.00  0.00    +0.074 C 
ATOM      8  C   UNL     1      33.057 -21.342 -18.561  0.00  0.00    +0.009 C 
ATOM      9  C   UNL     1      33.435 -19.649 -20.355  0.00  0.00    +0.202 C 
ATOM     10  C   UNL     1      34.424 -18.724 -20.975  0.00  0.00    +0.077 C 
ATOM     11  C   UNL     1      35.664 -18.719 -20.463  0.00  0.00    +0.183 C 
ENDROOT
BRANCH  10  12
ATOM     12  C   UNL     1      34.065 -17.833 -22.090  0.00  0.00    +0.006 C 
ATOM     13  C   UNL     1      33.497 -18.359 -23.253  0.00  0.00    +0.003 C 
ATOM     14  C   UNL     1      34.292 -16.458 -21.990  0.00  0.00    +0.003 C 
ATOM     15  C   UNL     1      33.158 -17.514 -24.309  0.00  0.00    +0.037 C 
ATOM     16  C   UNL     1      33.953 -15.614 -23.047  0.00  0.00    +0.037 C 
ATOM     17  C   UNL     1      33.386 -16.141 -24.207  0.00  0.00    +0.134 C 
BRANCH  17  18
ATOM     18  O   UNL     1      33.055 -15.317 -25.238  0.00  0.00    -0.506 OA
ATOM     19  H   UNL     1      33.301 -14.414 -25.212  0.00  0.00    +0.292 HD
ENDBRANCH  17  18
ENDBRANCH  10  12
BRANCH   3  20
ATOM     20  O   UNL     1      35.325 -22.716 -16.035  0.00  0.00    -0.450 OA
BRANCH  20  26
ATOM     21  O   UNL     1      33.317 -22.611 -14.853  0.00  0.00    -0.316 OA
ATOM     22  C   UNL     1      34.063 -24.849 -13.216  0.00  0.00    +0.173 C 
ATOM     23  C   UNL     1      32.882 -23.942 -12.874  0.00  0.00    +0.169 C 
ATOM     24  C   UNL     1      35.060 -24.139 -14.131  0.00  0.00    +0.210 C 
ATOM     25  C   UNL     1      32.296 -23.312 -14.141  0.00  0.00    +0.177 C 
ATOM     26  C   UNL     1      34.354 -23.473 -15.312  0.00  0.00    +0.318 C 
BRANCH  22  27
ATOM     27  O   UNL     1      34.712 -25.210 -11.995  0.00  0.00    -0.379 OA
ATOM     28  H   UNL     1      34.883 -26.164 -11.989  0.00  0.00    +0.211 HD
ENDBRANCH  22  27
BRANCH  23  29
ATOM     29  O   UNL     1      31.874 -24.707 -12.219  0.00  0.00    -0.379 OA
ATOM     30  H   UNL     1      31.211 -24.991 -12.867  0.00  0.00    +0.211 HD
ENDBRANCH  23  29
BRANCH  24  31
ATOM     31  O   UNL     1      35.993 -25.089 -14.645  0.00  0.00    -0.377 OA
ATOM     32  H   UNL     1      36.103 -24.950 -15.598  0.00  0.00    +0.211 HD
ENDBRANCH  24  31
BRANCH  25  33
ATOM     33  C   UNL     1      31.191 -22.312 -13.815  0.00  0.00    +0.169 C 
BRANCH  33  34
ATOM     34  O   UNL     1      29.994 -23.028 -13.572  0.00  0.00    -0.379 OA
ATOM     35  H   UNL     1      30.204 -23.958 -13.391  0.00  0.00    +0.211 HD
ENDBRANCH  33  34
ENDBRANCH  25  33
ENDBRANCH  20  26
ENDBRANCH   3  20
TORSDOF 9
ENDMDL
MODEL 4
REMARK VINA RESULT:     -11.0      1.412      1.911
REMARK  Name = 107971
REMARK  9 active torsions:
REMARK  status: ('A' for Active; 'I' for Inactive)
REMARK    1  A    between atoms: C_3  and  O_20
REMARK    2  A    between atoms: C_10  and  C_12
REMARK    3  A    between atoms: C_17  and  O_18
REMARK    4  A    between atoms: O_20  and  C_26
REMARK    5  A    between atoms: C_22  and  O_27
REMARK    6  A    between atoms: C_23  and  O_29
REMARK    7  A    between atoms: C_24  and  O_31
REMARK    8  A    between atoms: C_25  and  C_33
REMARK    9  A    between atoms: C_33  and  O_34
REMARK                            x       y       z     vdW  Elec       q    Type
REMARK                         _______ _______ _______ _____ _____    ______ ____
ROOT
ATOM      1  O   UNL     1      32.010 -20.613 -19.741  0.00  0.00    -0.450 OA
ATOM      2  O   UNL     1      35.763 -19.077 -20.188  0.00  0.00    -0.286 OA
ATOM      3  C   UNL     1      33.747 -22.566 -17.203  0.00  0.00    +0.144 C 
ATOM      4  C   UNL     1      32.740 -22.060 -18.023  0.00  0.00    +0.075 C 
ATOM      5  C   UNL     1      35.052 -22.086 -17.319  0.00  0.00    +0.037 C 
ATOM      6  C   UNL     1      33.040 -21.072 -18.962  0.00  0.00    +0.151 C 
ATOM      7  C   UNL     1      34.345 -20.593 -19.078  0.00  0.00    +0.074 C 
ATOM      8  C   UNL     1      35.356 -21.098 -18.257  0.00  0.00    +0.009 C 
ATOM      9  C   UNL     1      34.639 -19.546 -20.074  0.00  0.00    +0.202 C 
ATOM     10  C   UNL     1      33.496 -19.090 -20.912  0.00  0.00    +0.077 C 
ATOM     11  C   UNL     1      32.300 -19.652 -20.679  0.00  0.00    +0.183 C 
ENDROOT
BRANCH  10  12
ATOM     12  C   UNL     1      33.659 -18.078 -21.970  0.00  0.00    +0.006 C 
ATOM     13  C   UNL     1      33.341 -18.389 -23.294  0.00  0.00    +0.003 C 
ATOM     14  C   UNL     1      34.134 -16.803 -21.651  0.00  0.00    +0.003 C 
ATOM     15  C   UNL     1      33.496 -17.430 -24.294  0.00  0.00    +0.037 C 
ATOM     16  C   UNL     1      34.290 -15.845 -22.653  0.00  0.00    +0.037 C 
ATOM     17  C   UNL     1      33.971 -16.158 -23.974  0.00  0.00    +0.134 C 
BRANCH  17  18
ATOM     18  O   UNL     1      34.123 -15.223 -24.951  0.00  0.00    -0.506 OA
ATOM     19  H   UNL     1      34.884 -15.237 -25.498  0.00  0.00    +0.292 HD
ENDBRANCH  17  18
ENDBRANCH  10  12
BRANCH   3  20
ATOM     20  O   UNL     1      33.457 -23.532 -16.286  0.00  0.00    -0.450 OA
BRANCH  20  26
ATOM     21  O   UNL     1      34.801 -23.455 -14.380  0.00  0.00    -0.316 OA
ATOM     22  C   UNL     1      32.515 -23.673 -12.654  0.00  0.00    +0.173 C 
ATOM     23  C   UNL     1      33.945 -23.860 -12.148  0.00  0.00    +0.169 C 
ATOM     24  C   UNL     1      32.426 -23.914 -14.161  0.00  0.00    +0.210 C 
ATOM     25  C   UNL     1      34.934 -23.071 -13.011  0.00  0.00    +0.177 C 
ATOM     26  C   UNL     1      33.515 -23.147 -14.912  0.00  0.00    +0.318 C 
BRANCH  22  27
ATOM     27  O   UNL     1      31.680 -24.611 -11.973  0.00  0.00    -0.379 OA
ATOM     28  H   UNL     1      32.223 -25.334 -11.623  0.00  0.00    +0.211 HD
ENDBRANCH  22  27
BRANCH  23  29
ATOM     29  O   UNL     1      34.031 -23.406 -10.799  0.00  0.00    -0.379 OA
ATOM     30  H   UNL     1      34.546 -24.041 -10.277  0.00  0.00    +0.211 HD
ENDBRANCH  23  29
BRANCH  24  31
ATOM     31  O   UNL     1      31.156 -23.469 -14.638  0.00  0.00    -0.377 OA
ATOM     32  H   UNL     1      31.261 -23.075 -15.518  0.00  0.00    +0.211 HD
ENDBRANCH  24  31
BRANCH  25  33
ATOM     33  C   UNL     1      36.379 -23.333 -12.597  0.00  0.00    +0.169 C 
BRANCH  33  34
ATOM     34  O   UNL     1      36.720 -22.433 -11.558  0.00  0.00    -0.379 OA
ATOM     35  H   UNL     1      36.300 -21.575 -11.724  0.00  0.00    +0.211 HD
ENDBRANCH  33  34
ENDBRANCH  25  33
ENDBRANCH  20  26
ENDBRANCH   3  20
TORSDOF 9
ENDMDL
MODEL 5
REMARK VINA RESULT:     -10.9      1.711     10.256
REMARK  Name = 107971
REMARK  9 active torsions:
REMARK  status: ('A' for Active; 'I' for Inactive)
REMARK    1  A    between atoms: C_3  and  O_20
REMARK    2  A    between atoms: C_10  and  C_12
REMARK    3  A    between atoms: C_17  and  O_18
REMARK    4  A    between atoms: O_20  and  C_26
REMARK    5  A    between atoms: C_22  and  O_27
REMARK    6  A    between atoms: C_23  and  O_29
REMARK    7  A    between atoms: C_24  and  O_31
REMARK    8  A    between atoms: C_25  and  C_33
REMARK    9  A    between atoms: C_33  and  O_34
REMARK                            x       y       z     vdW  Elec       q    Type
REMARK                         _______ _______ _______ _____ _____    ______ ____
ROOT
ATOM      1  O   UNL     1      32.542 -22.469 -16.949  0.00  0.00    -0.450 OA
ATOM      2  O   UNL     1      36.482 -22.197 -15.926  0.00  0.00    -0.286 OA
ATOM      3  C   UNL     1      33.726 -20.426 -19.723  0.00  0.00    +0.144 C 
ATOM      4  C   UNL     1      32.890 -21.161 -18.884  0.00  0.00    +0.075 C 
ATOM      5  C   UNL     1      35.081 -20.289 -19.417  0.00  0.00    +0.037 C 
ATOM      6  C   UNL     1      33.411 -21.759 -17.736  0.00  0.00    +0.151 C 
ATOM      7  C   UNL     1      34.765 -21.623 -17.430  0.00  0.00    +0.074 C 
ATOM      8  C   UNL     1      35.605 -20.887 -18.270  0.00  0.00    +0.009 C 
ATOM      9  C   UNL     1      35.295 -22.267 -16.215  0.00  0.00    +0.202 C 
ATOM     10  C   UNL     1      34.313 -23.011 -15.378  0.00  0.00    +0.077 C 
ATOM     11  C   UNL     1      33.043 -23.048 -15.808  0.00  0.00    +0.183 C 
ENDROOT
BRANCH  10  12
ATOM     12  C   UNL     1      34.702 -23.668 -14.119  0.00  0.00    +0.006 C 
ATOM     13  C   UNL     1      35.614 -24.727 -14.133  0.00  0.00    +0.003 C 
ATOM     14  C   UNL     1      34.161 -23.235 -12.907  0.00  0.00    +0.003 C 
ATOM     15  C   UNL     1      35.982 -25.348 -12.940  0.00  0.00    +0.037 C 
ATOM     16  C   UNL     1      34.528 -23.858 -11.714  0.00  0.00    +0.037 C 
ATOM     17  C   UNL     1      35.439 -24.915 -11.731  0.00  0.00    +0.134 C 
BRANCH  17  18
ATOM     18  O   UNL     1      35.798 -25.522 -10.567  0.00  0.00    -0.506 OA
ATOM     19  H   UNL     1      35.246 -26.181 -10.194  0.00  0.00    +0.292 HD
ENDBRANCH  17  18
ENDBRANCH  10  12
BRANCH   3  20
ATOM     20  O   UNL     1      33.220 -19.839 -20.844  0.00  0.00    -0.450 OA
BRANCH  20  26
ATOM     21  O   UNL     1      33.556 -17.541 -20.625  0.00  0.00    -0.316 OA
ATOM     22  C   UNL     1      34.185 -17.279 -23.416  0.00  0.00    +0.173 C 
ATOM     23  C   UNL     1      33.894 -16.072 -22.525  0.00  0.00    +0.169 C 
ATOM     24  C   UNL     1      33.582 -18.556 -22.831  0.00  0.00    +0.210 C 
ATOM     25  C   UNL     1      34.253 -16.374 -21.067  0.00  0.00    +0.177 C 
ATOM     26  C   UNL     1      33.931 -18.709 -21.350  0.00  0.00    +0.318 C 
BRANCH  22  27
ATOM     27  O   UNL     1      33.612 -17.028 -24.700  0.00  0.00    -0.379 OA
ATOM     28  H   UNL     1      32.645 -17.030 -24.629  0.00  0.00    +0.211 HD
ENDBRANCH  22  27
BRANCH  23  29
ATOM     29  O   UNL     1      34.660 -14.958 -22.977  0.00  0.00    -0.379 OA
ATOM     30  H   UNL     1      34.396 -14.730 -23.882  0.00  0.00    +0.211 HD
ENDBRANCH  23  29
BRANCH  24  31
ATOM     31  O   UNL     1      34.098 -19.688 -23.531  0.00  0.00    -0.377 OA
ATOM     32  H   UNL     1      34.804 -20.097 -23.007  0.00  0.00    +0.211 HD
ENDBRANCH  24  31
BRANCH  25  33
ATOM     33  C   UNL     1      33.864 -15.226 -20.141  0.00  0.00    +0.169 C 
BRANCH  33  34
ATOM     34  O   UNL     1      33.082 -14.301 -20.874  0.00  0.00    -0.379 OA
ATOM     35  H   UNL     1      32.216 -14.692 -21.067  0.00  0.00    +0.211 HD
ENDBRANCH  33  34
ENDBRANCH  25  33
ENDBRANCH  20  26
ENDBRANCH   3  20
TORSDOF 9
ENDMDL
MODEL 6
REMARK VINA RESULT:     -10.3      2.257     10.462
REMARK  Name = 107971
REMARK  9 active torsions:
REMARK  status: ('A' for Active; 'I' for Inactive)
REMARK    1  A    between atoms: C_3  and  O_20
REMARK    2  A    between atoms: C_10  and  C_12
REMARK    3  A    between atoms: C_17  and  O_18
REMARK    4  A    between atoms: O_20  and  C_26
REMARK    5  A    between atoms: C_22  and  O_27
REMARK    6  A    between atoms: C_23  and  O_29
REMARK    7  A    between atoms: C_24  and  O_31
REMARK    8  A    between atoms: C_25  and  C_33
REMARK    9  A    between atoms: C_33  and  O_34
REMARK                            x       y       z     vdW  Elec       q    Type
REMARK                         _______ _______ _______ _____ _____    ______ ____
ROOT
ATOM      1  O   UNL     1      32.365 -20.202 -20.081  0.00  0.00    -0.450 OA
ATOM      2  O   UNL     1      35.905 -20.837 -18.155  0.00  0.00    -0.286 OA
ATOM      3  C   UNL     1      34.534 -18.134 -22.151  0.00  0.00    +0.144 C 
ATOM      4  C   UNL     1      33.403 -18.779 -21.652  0.00  0.00    +0.075 C 
ATOM      5  C   UNL     1      35.770 -18.305 -21.527  0.00  0.00    +0.037 C 
ATOM      6  C   UNL     1      33.510 -19.595 -20.526  0.00  0.00    +0.151 C 
ATOM      7  C   UNL     1      34.745 -19.766 -19.902  0.00  0.00    +0.074 C 
ATOM      8  C   UNL     1      35.880 -19.121 -20.400  0.00  0.00    +0.009 C 
ATOM      9  C   UNL     1      34.835 -20.636 -18.715  0.00  0.00    +0.202 C 
ATOM     10  C   UNL     1      33.565 -21.261 -18.254  0.00  0.00    +0.077 C 
ATOM     11  C   UNL     1      32.457 -20.995 -18.962  0.00  0.00    +0.183 C 
ENDROOT
BRANCH  10  12
ATOM     12  C   UNL     1      33.507 -22.121 -17.060  0.00  0.00    +0.006 C 
ATOM     13  C   UNL     1      32.331 -22.805 -16.744  0.00  0.00    +0.003 C 
ATOM     14  C   UNL     1      34.630 -22.255 -16.239  0.00  0.00    +0.003 C 
ATOM     15  C   UNL     1      32.278 -23.619 -15.613  0.00  0.00    +0.037 C 
ATOM     16  C   UNL     1      34.576 -23.069 -15.108  0.00  0.00    +0.037 C 
ATOM     17  C   UNL     1      33.400 -23.751 -14.794  0.00  0.00    +0.134 C 
BRANCH  17  18
ATOM     18  O   UNL     1      33.348 -24.546 -13.691  0.00  0.00    -0.506 OA
ATOM     19  H   UNL     1      33.976 -24.436 -13.005  0.00  0.00    +0.292 HD
ENDBRANCH  17  18
ENDBRANCH  10  12
BRANCH   3  20
ATOM     20  O   UNL     1      34.433 -17.334 -23.251  0.00  0.00    -0.450 OA
BRANCH  20  26
ATOM     21  O   UNL     1      33.816 -15.742 -21.661  0.00  0.00    -0.316 OA
ATOM     22  C   UNL     1      32.766 -13.999 -23.688  0.00  0.00    +0.173 C 
ATOM     23  C   UNL     1      32.484 -13.790 -22.201  0.00  0.00    +0.169 C 
ATOM     24  C   UNL     1      33.154 -15.449 -23.979  0.00  0.00    +0.210 C 
ATOM     25  C   UNL     1      33.618 -14.362 -21.347  0.00  0.00    +0.177 C 
ATOM     26  C   UNL     1      34.229 -15.941 -23.011  0.00  0.00    +0.318 C 
BRANCH  22  27
ATOM     27  O   UNL     1      31.580 -13.670 -24.414  0.00  0.00    -0.379 OA
ATOM     28  H   UNL     1      31.429 -12.713 -24.370  0.00  0.00    +0.211 HD
ENDBRANCH  22  27
BRANCH  23  29
ATOM     29  O   UNL     1      32.354 -12.395 -21.938  0.00  0.00    -0.379 OA
ATOM     30  H   UNL     1      32.323 -11.909 -22.777  0.00  0.00    +0.211 HD
ENDBRANCH  23  29
BRANCH  24  31
ATOM     31  O   UNL     1      33.670 -15.544 -25.306  0.00  0.00    -0.377 OA
ATOM     32  H   UNL     1      33.125 -15.010 -25.904  0.00  0.00    +0.211 HD
ENDBRANCH  24  31
BRANCH  25  33
ATOM     33  C   UNL     1      33.305 -14.269 -19.857  0.00  0.00    +0.169 C 
BRANCH  33  34
ATOM     34  O   UNL     1      31.932 -13.957 -19.704  0.00  0.00    -0.379 OA
ATOM     35  H   UNL     1      31.557 -14.496 -18.990  0.00  0.00    +0.211 HD
ENDBRANCH  33  34
ENDBRANCH  25  33
ENDBRANCH  20  26
ENDBRANCH   3  20
TORSDOF 9
ENDMDL
MODEL 7
REMARK VINA RESULT:     -10.3      1.260      2.405
REMARK  Name = 107971
REMARK  9 active torsions:
REMARK  status: ('A' for Active; 'I' for Inactive)
REMARK    1  A    between atoms: C_3  and  O_20
REMARK    2  A    between atoms: C_10  and  C_12
REMARK    3  A    between atoms: C_17  and  O_18
REMARK    4  A    between atoms: O_20  and  C_26
REMARK    5  A    between atoms: C_22  and  O_27
REMARK    6  A    between atoms: C_23  and  O_29
REMARK    7  A    between atoms: C_24  and  O_31
REMARK    8  A    between atoms: C_25  and  C_33
REMARK    9  A    between atoms: C_33  and  O_34
REMARK                            x       y       z     vdW  Elec       q    Type
REMARK                         _______ _______ _______ _____ _____    ______ ____
ROOT
ATOM      1  O   UNL     1      32.082 -21.514 -18.449  0.00  0.00    -0.450 OA
ATOM      2  O   UNL     1      35.848 -20.003 -18.867  0.00  0.00    -0.286 OA
ATOM      3  C   UNL     1      33.707 -23.219 -15.669  0.00  0.00    +0.144 C 
ATOM      4  C   UNL     1      32.737 -22.795 -16.576  0.00  0.00    +0.075 C 
ATOM      5  C   UNL     1      35.015 -22.744 -15.770  0.00  0.00    +0.037 C 
ATOM      6  C   UNL     1      33.077 -21.895 -17.586  0.00  0.00    +0.151 C 
ATOM      7  C   UNL     1      34.385 -21.420 -17.688  0.00  0.00    +0.074 C 
ATOM      8  C   UNL     1      35.359 -21.843 -16.780  0.00  0.00    +0.009 C 
ATOM      9  C   UNL     1      34.720 -20.467 -18.761  0.00  0.00    +0.202 C 
ATOM     10  C   UNL     1      33.615 -20.095 -19.687  0.00  0.00    +0.077 C 
ATOM     11  C   UNL     1      32.412 -20.641 -19.457  0.00  0.00    +0.183 C 
ENDROOT
BRANCH  10  12
ATOM     12  C   UNL     1      33.824 -19.182 -20.823  0.00  0.00    +0.006 C 
ATOM     13  C   UNL     1      33.602 -19.626 -22.129  0.00  0.00    +0.003 C 
ATOM     14  C   UNL     1      34.245 -17.869 -20.598  0.00  0.00    +0.003 C 
ATOM     15  C   UNL     1      33.800 -18.761 -23.204  0.00  0.00    +0.037 C 
ATOM     16  C   UNL     1      34.444 -17.005 -21.675  0.00  0.00    +0.037 C 
ATOM     17  C   UNL     1      34.222 -17.450 -22.978  0.00  0.00    +0.134 C 
BRANCH  17  18
ATOM     18  O   UNL     1      34.415 -16.606 -24.028  0.00  0.00    -0.506 OA
ATOM     19  H   UNL     1      34.317 -15.682 -23.909  0.00  0.00    +0.292 HD
ENDBRANCH  17  18
ENDBRANCH  10  12
BRANCH   3  20
ATOM     20  O   UNL     1      33.378 -24.099 -14.682  0.00  0.00    -0.450 OA
BRANCH  20  26
ATOM     21  O   UNL     1      34.934 -23.307 -13.134  0.00  0.00    -0.316 OA
ATOM     22  C   UNL     1      36.748 -25.452 -13.729  0.00  0.00    +0.173 C 
ATOM     23  C   UNL     1      37.170 -24.221 -12.928  0.00  0.00    +0.169 C 
ATOM     24  C   UNL     1      35.522 -25.157 -14.593  0.00  0.00    +0.210 C 
ATOM     25  C   UNL     1      35.970 -23.611 -12.198  0.00  0.00    +0.177 C 
ATOM     26  C   UNL     1      34.424 -24.469 -13.782  0.00  0.00    +0.318 C 
BRANCH  22  27
ATOM     27  O   UNL     1      37.841 -25.828 -14.569  0.00  0.00    -0.379 OA
ATOM     28  H   UNL     1      38.280 -26.610 -14.198  0.00  0.00    +0.211 HD
ENDBRANCH  22  27
BRANCH  23  29
ATOM     29  O   UNL     1      38.160 -24.596 -11.973  0.00  0.00    -0.379 OA
ATOM     30  H   UNL     1      37.948 -24.198 -11.115  0.00  0.00    +0.211 HD
ENDBRANCH  23  29
BRANCH  24  31
ATOM     31  O   UNL     1      34.999 -26.381 -15.107  0.00  0.00    -0.377 OA
ATOM     32  H   UNL     1      34.182 -26.202 -15.599  0.00  0.00    +0.211 HD
ENDBRANCH  24  31
BRANCH  25  33
ATOM     33  C   UNL     1      36.342 -22.314 -11.485  0.00  0.00    +0.169 C 
BRANCH  33  34
ATOM     34  O   UNL     1      36.517 -22.593 -10.108  0.00  0.00    -0.379 OA
ATOM     35  H   UNL     1      36.718 -21.770  -9.636  0.00  0.00    +0.211 HD
ENDBRANCH  33  34
ENDBRANCH  25  33
ENDBRANCH  20  26
ENDBRANCH   3  20
TORSDOF 9
ENDMDL
MODEL 8
REMARK VINA RESULT:     -10.1      5.462     13.429
REMARK  Name = 107971
REMARK  9 active torsions:
REMARK  status: ('A' for Active; 'I' for Inactive)
REMARK    1  A    between atoms: C_3  and  O_20
REMARK    2  A    between atoms: C_10  and  C_12
REMARK    3  A    between atoms: C_17  and  O_18
REMARK    4  A    between atoms: O_20  and  C_26
REMARK    5  A    between atoms: C_22  and  O_27
REMARK    6  A    between atoms: C_23  and  O_29
REMARK    7  A    between atoms: C_24  and  O_31
REMARK    8  A    between atoms: C_25  and  C_33
REMARK    9  A    between atoms: C_33  and  O_34
REMARK                            x       y       z     vdW  Elec       q    Type
REMARK                         _______ _______ _______ _____ _____    ______ ____
ROOT
ATOM      1  O   UNL     1      33.794 -14.343 -20.909  0.00  0.00    -0.450 OA
ATOM      2  O   UNL     1      33.731 -17.496 -23.497  0.00  0.00    -0.286 OA
ATOM      3  C   UNL     1      33.048 -12.552 -23.992  0.00  0.00    +0.144 C 
ATOM      4  C   UNL     1      33.307 -12.823 -22.649  0.00  0.00    +0.075 C 
ATOM      5  C   UNL     1      33.025 -13.589 -24.925  0.00  0.00    +0.037 C 
ATOM      6  C   UNL     1      33.544 -14.136 -22.241  0.00  0.00    +0.151 C 
ATOM      7  C   UNL     1      33.522 -15.173 -23.173  0.00  0.00    +0.074 C 
ATOM      8  C   UNL     1      33.262 -14.903 -24.519  0.00  0.00    +0.009 C 
ATOM      9  C   UNL     1      33.771 -16.553 -22.717  0.00  0.00    +0.202 C 
ATOM     10  C   UNL     1      34.057 -16.730 -21.267  0.00  0.00    +0.077 C 
ATOM     11  C   UNL     1      34.045 -15.630 -20.499  0.00  0.00    +0.183 C 
ENDROOT
BRANCH  10  12
ATOM     12  C   UNL     1      34.360 -18.050 -20.688  0.00  0.00    +0.006 C 
ATOM     13  C   UNL     1      33.329 -18.956 -20.429  0.00  0.00    +0.003 C 
ATOM     14  C   UNL     1      35.681 -18.399 -20.395  0.00  0.00    +0.003 C 
ATOM     15  C   UNL     1      33.618 -20.205 -19.881  0.00  0.00    +0.037 C 
ATOM     16  C   UNL     1      35.969 -19.648 -19.846  0.00  0.00    +0.037 C 
ATOM     17  C   UNL     1      34.937 -20.552 -19.588  0.00  0.00    +0.134 C 
BRANCH  17  18
ATOM     18  O   UNL     1      35.219 -21.771 -19.053  0.00  0.00    -0.506 OA
ATOM     19  H   UNL     1      35.437 -21.844 -18.145  0.00  0.00    +0.292 HD
ENDBRANCH  17  18
ENDBRANCH  10  12
BRANCH   3  20
ATOM     20  O   UNL     1      32.817 -11.270 -24.395  0.00  0.00    -0.450 OA
BRANCH  20  26
ATOM     21  O   UNL     1      31.754  -9.783 -22.946  0.00  0.00    -0.316 OA
ATOM     22  C   UNL     1      33.918  -7.906 -23.145  0.00  0.00    +0.173 C 
ATOM     23  C   UNL     1      32.566  -7.537 -22.534  0.00  0.00    +0.169 C 
ATOM     24  C   UNL     1      33.793  -9.109 -24.080  0.00  0.00    +0.210 C 
ATOM     25  C   UNL     1      31.882  -8.772 -21.944  0.00  0.00    +0.177 C 
ATOM     26  C   UNL     1      33.016 -10.247 -23.419  0.00  0.00    +0.318 C 
BRANCH  22  27
ATOM     27  O   UNL     1      34.392  -6.778 -23.883  0.00  0.00    -0.379 OA
ATOM     28  H   UNL     1      33.637  -6.251 -24.189  0.00  0.00    +0.211 HD
ENDBRANCH  22  27
BRANCH  23  29
ATOM     29  O   UNL     1      32.763  -6.571 -21.504  0.00  0.00    -0.379 OA
ATOM     30  H   UNL     1      33.026  -7.020 -20.686  0.00  0.00    +0.211 HD
ENDBRANCH  23  29
BRANCH  24  31
ATOM     31  O   UNL     1      35.095  -9.590 -24.411  0.00  0.00    -0.377 OA
ATOM     32  H   UNL     1      35.563  -8.920 -24.934  0.00  0.00    +0.211 HD
ENDBRANCH  24  31
BRANCH  25  33
ATOM     33  C   UNL     1      30.481  -8.451 -21.432  0.00  0.00    +0.169 C 
BRANCH  33  34
ATOM     34  O   UNL     1      29.996  -7.318 -22.130  0.00  0.00    -0.379 OA
ATOM     35  H   UNL     1      29.095  -7.118 -21.833  0.00  0.00    +0.211 HD
ENDBRANCH  33  34
ENDBRANCH  25  33
ENDBRANCH  20  26
ENDBRANCH   3  20
TORSDOF 9
ENDMDL
MODEL 9
REMARK VINA RESULT:     -10.1      1.932     10.375
REMARK  Name = 107971
REMARK  9 active torsions:
REMARK  status: ('A' for Active; 'I' for Inactive)
REMARK    1  A    between atoms: C_3  and  O_20
REMARK    2  A    between atoms: C_10  and  C_12
REMARK    3  A    between atoms: C_17  and  O_18
REMARK    4  A    between atoms: O_20  and  C_26
REMARK    5  A    between atoms: C_22  and  O_27
REMARK    6  A    between atoms: C_23  and  O_29
REMARK    7  A    between atoms: C_24  and  O_31
REMARK    8  A    between atoms: C_25  and  C_33
REMARK    9  A    between atoms: C_33  and  O_34
REMARK                            x       y       z     vdW  Elec       q    Type
REMARK                         _______ _______ _______ _____ _____    ______ ____
ROOT
ATOM      1  O   UNL     1      32.171 -21.462 -18.380  0.00  0.00    -0.450 OA
ATOM      2  O   UNL     1      36.034 -21.599 -17.075  0.00  0.00    -0.286 OA
ATOM      3  C   UNL     1      33.742 -19.471 -20.996  0.00  0.00    +0.144 C 
ATOM      4  C   UNL     1      32.781 -20.143 -20.242  0.00  0.00    +0.075 C 
ATOM      5  C   UNL     1      35.077 -19.474 -20.592  0.00  0.00    +0.037 C 
ATOM      6  C   UNL     1      33.158 -20.819 -19.081  0.00  0.00    +0.151 C 
ATOM      7  C   UNL     1      34.493 -20.822 -18.677  0.00  0.00    +0.074 C 
ATOM      8  C   UNL     1      35.458 -20.149 -19.431  0.00  0.00    +0.009 C 
ATOM      9  C   UNL     1      34.870 -21.546 -17.449  0.00  0.00    +0.202 C 
ATOM     10  C   UNL     1      33.764 -22.214 -16.708  0.00  0.00    +0.077 C 
ATOM     11  C   UNL     1      32.531 -22.116 -17.227  0.00  0.00    +0.183 C 
ENDROOT
BRANCH  10  12
ATOM     12  C   UNL     1      33.996 -22.938 -15.448  0.00  0.00    +0.006 C 
ATOM     13  C   UNL     1      35.291 -23.061 -14.938  0.00  0.00    +0.003 C 
ATOM     14  C   UNL     1      32.922 -23.505 -14.757  0.00  0.00    +0.003 C 
ATOM     15  C   UNL     1      35.509 -23.747 -13.744  0.00  0.00    +0.037 C 
ATOM     16  C   UNL     1      33.142 -24.192 -13.564  0.00  0.00    +0.037 C 
ATOM     17  C   UNL     1      34.435 -24.313 -13.056  0.00  0.00    +0.134 C 
BRANCH  17  18
ATOM     18  O   UNL     1      34.650 -24.984 -11.891  0.00  0.00    -0.506 OA
ATOM     19  H   UNL     1      35.120 -24.571 -11.194  0.00  0.00    +0.292 HD
ENDBRANCH  17  18
ENDBRANCH  10  12
BRANCH   3  20
ATOM     20  O   UNL     1      33.376 -18.808 -22.130  0.00  0.00    -0.450 OA
BRANCH  20  26
ATOM     21  O   UNL     1      33.473 -16.645 -21.262  0.00  0.00    -0.316 OA
ATOM     22  C   UNL     1      33.870 -15.521 -23.875  0.00  0.00    +0.173 C 
ATOM     23  C   UNL     1      33.512 -14.665 -22.661  0.00  0.00    +0.169 C 
ATOM     24  C   UNL     1      33.454 -16.977 -23.667  0.00  0.00    +0.210 C 
ATOM     25  C   UNL     1      34.004 -15.323 -21.369  0.00  0.00    +0.177 C 
ATOM     26  C   UNL     1      33.922 -17.501 -22.309  0.00  0.00    +0.318 C 
BRANCH  22  27
ATOM     27  O   UNL     1      33.184 -14.988 -25.009  0.00  0.00    -0.379 OA
ATOM     28  H   UNL     1      33.794 -14.442 -25.529  0.00  0.00    +0.211 HD
ENDBRANCH  22  27
BRANCH  23  29
ATOM     29  O   UNL     1      34.117 -13.381 -22.795  0.00  0.00    -0.379 OA
ATOM     30  H   UNL     1      35.062 -13.445 -22.587  0.00  0.00    +0.211 HD
ENDBRANCH  23  29
BRANCH  24  31
ATOM     31  O   UNL     1      34.041 -17.788 -24.685  0.00  0.00    -0.377 OA
ATOM     32  H   UNL     1      34.986 -17.583 -24.756  0.00  0.00    +0.211 HD
ENDBRANCH  24  31
BRANCH  25  33
ATOM     33  C   UNL     1      33.558 -14.545 -20.134  0.00  0.00    +0.169 C 
BRANCH  33  34
ATOM     34  O   UNL     1      32.433 -13.758 -20.481  0.00  0.00    -0.379 OA
ATOM     35  H   UNL     1      32.154 -13.974 -21.384  0.00  0.00    +0.211 HD
ENDBRANCH  33  34
ENDBRANCH  25  33
ENDBRANCH  20  26
ENDBRANCH   3  20
TORSDOF 9
ENDMDL
