MODEL 1
REMARK VINA RESULT:     -12.5      0.000      0.000
REMARK  Name = 23629645
REMARK  6 active torsions:
REMARK  status: ('A' for Active; 'I' for Inactive)
REMARK    1  A    between atoms: N_1  and  C_6
REMARK    2  A    between atoms: N_1  and  C_21
REMARK    3  A    between atoms: C_3  and  C_16
REMARK    4  A    between atoms: C_11  and  C_18
REMARK    5  A    between atoms: C_18  and  O_19
REMARK    6  A    between atoms: C_21  and  C_28
REMARK                            x       y       z     vdW  Elec       q    Type
REMARK                         _______ _______ _______ _____ _____    ______ ____
ROOT
ATOM      1  N   UNL     1      34.756 -18.929 -21.436  0.00  0.00    -0.300 N 
ATOM      2  C   UNL     1      36.022 -18.247 -21.261  0.00  0.00    +0.113 C 
ENDROOT
BRANCH   1   6
ATOM      3  C   UNL     1      33.205 -21.345 -18.376  0.00  0.00    +0.054 C 
ATOM      4  C   UNL     1      34.581 -21.287 -18.583  0.00  0.00    +0.006 C 
ATOM      5  C   UNL     1      32.341 -20.607 -19.180  0.00  0.00    +0.006 C 
ATOM      6  C   UNL     1      34.234 -19.741 -20.406  0.00  0.00    +0.048 C 
ATOM      7  C   UNL     1      35.097 -20.483 -19.599  0.00  0.00    +0.015 C 
ATOM      8  C   UNL     1      32.856 -19.803 -20.197  0.00  0.00    +0.015 C 
BRANCH   3  16
ATOM      9  O   UNL     1      31.450 -22.394 -17.337  0.00  0.00    -0.270 OA
ATOM     10  N   UNL     1      33.546 -22.687 -16.345  0.00  0.00    -0.276 N 
ATOM     11  C   UNL     1      34.870 -22.617 -13.764  0.00  0.00    +0.102 C 
ATOM     12  C   UNL     1      33.384 -22.967 -13.910  0.00  0.00    +0.033 C 
ATOM     13  C   UNL     1      35.402 -21.831 -14.969  0.00  0.00    +0.033 C 
ATOM     14  C   UNL     1      33.048 -23.554 -15.280  0.00  0.00    +0.094 C 
ATOM     15  C   UNL     1      34.993 -22.447 -16.307  0.00  0.00    +0.094 C 
ATOM     16  C   UNL     1      32.662 -22.192 -17.306  0.00  0.00    +0.249 C 
BRANCH  11  18
ATOM     17  O   UNL     1      35.193 -24.937 -13.198  0.00  0.00    -0.250 OA
ATOM     18  C   UNL     1      35.674 -23.863 -13.533  0.00  0.00    +0.317 C 
BRANCH  18  19
ATOM     19  O   UNL     1      36.994 -23.601 -13.753  0.00  0.00    -0.444 OA
ATOM     20  C   UNL     1      37.843 -24.749 -13.843  0.00  0.00    +0.256 C 
ENDBRANCH  18  19
ENDBRANCH  11  18
ENDBRANCH   3  16
ENDBRANCH   1   6
BRANCH   1  21
ATOM     21  C   UNL     1      34.037 -18.777 -22.685  0.00  0.00    +0.148 C 
BRANCH  21  28
ATOM     22  N   UNL     1      33.755 -16.458 -22.039  0.00  0.00    -0.392 NA
ATOM     23  N   UNL     1      33.559 -15.660 -24.682  0.00  0.00    -0.200 NA
ATOM     24  N   UNL     1      33.293 -13.459 -24.013  0.00  0.00    -0.271 NA
ATOM     25  N   UNL     1      33.295 -12.868 -21.689  0.00  0.00    -0.310 NA
ATOM     26  N   UNL     1      33.574 -14.552 -20.055  0.00  0.00    -0.329 N 
ATOM     27  N   UNL     1      33.024 -11.227 -23.338  0.00  0.00    -0.283 N 
ATOM     28  C   UNL     1      33.835 -17.329 -23.045  0.00  0.00    +0.133 C 
ATOM     29  C   UNL     1      33.740 -16.952 -24.347  0.00  0.00    +0.193 C 
ATOM     30  C   UNL     1      33.574 -15.166 -22.376  0.00  0.00    +0.248 C 
ATOM     31  C   UNL     1      33.473 -14.749 -23.705  0.00  0.00    +0.131 C 
ATOM     32  C   UNL     1      33.477 -14.173 -21.420  0.00  0.00    +0.231 C 
ATOM     33  C   UNL     1      33.213 -12.583 -22.994  0.00  0.00    +0.207 C 
ATOM     34  H   UNL     1      33.509 -13.868 -19.349  0.00  0.00    +0.145 HD
ATOM     35  H   UNL     1      33.707 -15.497 -19.815  0.00  0.00    +0.145 HD
ATOM     36  H   UNL     1      32.956 -10.965 -24.285  0.00  0.00    +0.156 HD
ATOM     37  H   UNL     1      32.957 -10.545 -22.632  0.00  0.00    +0.156 HD
ENDBRANCH  21  28
ENDBRANCH   1  21
TORSDOF 6
ENDMDL
MODEL 2
REMARK VINA RESULT:     -12.1      0.914      1.756
REMARK  Name = 23629645
REMARK  6 active torsions:
REMARK  status: ('A' for Active; 'I' for Inactive)
REMARK    1  A    between atoms: N_1  and  C_6
REMARK    2  A    between atoms: N_1  and  C_21
REMARK    3  A    between atoms: C_3  and  C_16
REMARK    4  A    between atoms: C_11  and  C_18
REMARK    5  A    between atoms: C_18  and  O_19
REMARK    6  A    between atoms: C_21  and  C_28
REMARK                            x       y       z     vdW  Elec       q    Type
REMARK                         _______ _______ _______ _____ _____    ______ ____
ROOT
ATOM      1  N   UNL     1      34.706 -18.610 -21.713  0.00  0.00    -0.300 N 
ATOM      2  C   UNL     1      36.120 -18.303 -21.779  0.00  0.00    +0.113 C 
ENDROOT
BRANCH   1   6
ATOM      3  C   UNL     1      33.208 -21.089 -18.677  0.00  0.00    +0.054 C 
ATOM      4  C   UNL     1      34.582 -21.005 -18.889  0.00  0.00    +0.006 C 
ATOM      5  C   UNL     1      32.329 -20.354 -19.468  0.00  0.00    +0.006 C 
ATOM      6  C   UNL     1      34.202 -19.443 -20.692  0.00  0.00    +0.048 C 
ATOM      7  C   UNL     1      35.080 -20.181 -19.898  0.00  0.00    +0.015 C 
ATOM      8  C   UNL     1      32.826 -19.530 -20.478  0.00  0.00    +0.015 C 
BRANCH   3  16
ATOM      9  O   UNL     1      31.468 -22.136 -17.612  0.00  0.00    -0.270 OA
ATOM     10  N   UNL     1      33.589 -22.496 -16.698  0.00  0.00    -0.276 N 
ATOM     11  C   UNL     1      34.996 -22.527 -14.161  0.00  0.00    +0.102 C 
ATOM     12  C   UNL     1      33.500 -22.845 -14.268  0.00  0.00    +0.033 C 
ATOM     13  C   UNL     1      35.504 -21.715 -15.359  0.00  0.00    +0.033 C 
ATOM     14  C   UNL     1      33.109 -23.385 -15.644  0.00  0.00    +0.094 C 
ATOM     15  C   UNL     1      35.041 -22.283 -16.700  0.00  0.00    +0.094 C 
ATOM     16  C   UNL     1      32.684 -21.957 -17.615  0.00  0.00    +0.249 C 
BRANCH  11  18
ATOM     17  O   UNL     1      35.444 -24.877 -14.447  0.00  0.00    -0.250 OA
ATOM     18  C   UNL     1      35.784 -23.793 -13.992  0.00  0.00    +0.317 C 
BRANCH  18  19
ATOM     19  O   UNL     1      36.909 -23.536 -13.267  0.00  0.00    -0.444 OA
ATOM     20  C   UNL     1      36.781 -23.709 -11.852  0.00  0.00    +0.256 C 
ENDBRANCH  18  19
ENDBRANCH  11  18
ENDBRANCH   3  16
ENDBRANCH   1   6
BRANCH   1  21
ATOM     21  C   UNL     1      33.816 -18.062 -22.718  0.00  0.00    +0.148 C 
BRANCH  21  28
ATOM     22  N   UNL     1      33.267 -15.917 -23.707  0.00  0.00    -0.392 NA
ATOM     23  N   UNL     1      34.056 -14.570 -21.422  0.00  0.00    -0.200 NA
ATOM     24  N   UNL     1      33.518 -12.547 -22.412  0.00  0.00    -0.271 NA
ATOM     25  N   UNL     1      32.641 -12.460 -24.642  0.00  0.00    -0.310 NA
ATOM     26  N   UNL     1      32.321 -14.464 -25.850  0.00  0.00    -0.329 N 
ATOM     27  N   UNL     1      32.972 -10.494 -23.411  0.00  0.00    -0.283 N 
ATOM     28  C   UNL     1      33.733 -16.560 -22.636  0.00  0.00    +0.133 C 
ATOM     29  C   UNL     1      34.125 -15.912 -21.508  0.00  0.00    +0.193 C 
ATOM     30  C   UNL     1      33.199 -14.574 -23.620  0.00  0.00    +0.248 C 
ATOM     31  C   UNL     1      33.594 -13.881 -22.473  0.00  0.00    +0.131 C 
ATOM     32  C   UNL     1      32.733 -13.801 -24.665  0.00  0.00    +0.231 C 
ATOM     33  C   UNL     1      33.046 -11.902 -23.495  0.00  0.00    +0.207 C 
ATOM     34  H   UNL     1      31.983 -13.942 -26.614  0.00  0.00    +0.145 HD
ATOM     35  H   UNL     1      32.372 -15.445 -25.908  0.00  0.00    +0.145 HD
ATOM     36  H   UNL     1      33.258 -10.035 -22.589  0.00  0.00    +0.156 HD
ATOM     37  H   UNL     1      32.635  -9.973 -24.175  0.00  0.00    +0.156 HD
ENDBRANCH  21  28
ENDBRANCH   1  21
TORSDOF 6
ENDMDL
MODEL 3
REMARK VINA RESULT:     -11.9      4.534      8.859
REMARK  Name = 23629645
REMARK  6 active torsions:
REMARK  status: ('A' for Active; 'I' for Inactive)
REMARK    1  A    between atoms: N_1  and  C_6
REMARK    2  A    between atoms: N_1  and  C_21
REMARK    3  A    between atoms: C_3  and  C_16
REMARK    4  A    between atoms: C_11  and  C_18
REMARK    5  A    between atoms: C_18  and  O_19
REMARK    6  A    between atoms: C_21  and  C_28
REMARK                            x       y       z     vdW  Elec       q    Type
REMARK                         _______ _______ _______ _____ _____    ______ ____
ROOT
ATOM      1  N   UNL     1      33.198 -10.139 -24.301  0.00  0.00    -0.300 N 
ATOM      2  C   UNL     1      34.493  -9.490 -24.258  0.00  0.00    +0.113 C 
ENDROOT
BRANCH   1   6
ATOM      3  C   UNL     1      32.921 -14.326 -24.293  0.00  0.00    +0.054 C 
ATOM      4  C   UNL     1      33.172 -13.646 -23.104  0.00  0.00    +0.006 C 
ATOM      5  C   UNL     1      32.763 -13.624 -25.485  0.00  0.00    +0.006 C 
ATOM      6  C   UNL     1      33.105 -11.548 -24.298  0.00  0.00    +0.048 C 
ATOM      7  C   UNL     1      33.263 -12.254 -23.106  0.00  0.00    +0.015 C 
ATOM      8  C   UNL     1      32.855 -12.232 -25.488  0.00  0.00    +0.015 C 
BRANCH   3  16
ATOM      9  O   UNL     1      32.007 -16.283 -25.065  0.00  0.00    -0.270 OA
ATOM     10  N   UNL     1      33.649 -16.504 -23.416  0.00  0.00    -0.276 N 
ATOM     11  C   UNL     1      34.199 -17.889 -20.928  0.00  0.00    +0.102 C 
ATOM     12  C   UNL     1      33.276 -18.477 -22.001  0.00  0.00    +0.033 C 
ATOM     13  C   UNL     1      34.346 -16.368 -21.058  0.00  0.00    +0.033 C 
ATOM     14  C   UNL     1      33.601 -17.964 -23.404  0.00  0.00    +0.094 C 
ATOM     15  C   UNL     1      34.626 -15.920 -22.491  0.00  0.00    +0.094 C 
ATOM     16  C   UNL     1      32.825 -15.792 -24.291  0.00  0.00    +0.249 C 
BRANCH  11  18
ATOM     17  O   UNL     1      36.286 -18.548 -21.935  0.00  0.00    -0.250 OA
ATOM     18  C   UNL     1      35.537 -18.568 -20.968  0.00  0.00    +0.317 C 
BRANCH  18  19
ATOM     19  O   UNL     1      35.768 -19.192 -19.778  0.00  0.00    -0.444 OA
ATOM     20  C   UNL     1      34.994 -20.373 -19.543  0.00  0.00    +0.256 C 
ENDBRANCH  18  19
ENDBRANCH  11  18
ENDBRANCH   3  16
ENDBRANCH   1   6
BRANCH   1  21
ATOM     21  C   UNL     1      32.000  -9.325 -24.361  0.00  0.00    +0.148 C 
BRANCH  21  28
ATOM     22  N   UNL     1      31.664  -8.759 -22.027  0.00  0.00    -0.392 NA
ATOM     23  N   UNL     1      32.166  -6.082 -22.521  0.00  0.00    -0.200 NA
ATOM     24  N   UNL     1      31.834  -5.592 -20.282  0.00  0.00    -0.271 NA
ATOM     25  N   UNL     1      31.283  -7.317 -18.711  0.00  0.00    -0.310 NA
ATOM     26  N   UNL     1      31.075  -9.551 -19.453  0.00  0.00    -0.329 N 
ATOM     27  N   UNL     1      31.500  -5.092 -18.013  0.00  0.00    -0.283 N 
ATOM     28  C   UNL     1      31.955  -8.310 -23.249  0.00  0.00    +0.133 C 
ATOM     29  C   UNL     1      32.203  -7.000 -23.506  0.00  0.00    +0.193 C 
ATOM     30  C   UNL     1      31.627  -7.839 -21.043  0.00  0.00    +0.248 C 
ATOM     31  C   UNL     1      31.878  -6.486 -21.277  0.00  0.00    +0.131 C 
ATOM     32  C   UNL     1      31.337  -8.185 -19.737  0.00  0.00    +0.231 C 
ATOM     33  C   UNL     1      31.540  -6.049 -19.051  0.00  0.00    +0.207 C 
ATOM     34  H   UNL     1      30.865  -9.830 -18.533  0.00  0.00    +0.145 HD
ATOM     35  H   UNL     1      31.104 -10.218 -20.176  0.00  0.00    +0.145 HD
ATOM     36  H   UNL     1      31.681  -4.145 -18.211  0.00  0.00    +0.156 HD
ATOM     37  H   UNL     1      31.288  -5.372 -17.094  0.00  0.00    +0.156 HD
ENDBRANCH  21  28
ENDBRANCH   1  21
TORSDOF 6
ENDMDL
MODEL 4
REMARK VINA RESULT:     -10.9      1.628      2.795
REMARK  Name = 23629645
REMARK  6 active torsions:
REMARK  status: ('A' for Active; 'I' for Inactive)
REMARK    1  A    between atoms: N_1  and  C_6
REMARK    2  A    between atoms: N_1  and  C_21
REMARK    3  A    between atoms: C_3  and  C_16
REMARK    4  A    between atoms: C_11  and  C_18
REMARK    5  A    between atoms: C_18  and  O_19
REMARK    6  A    between atoms: C_21  and  C_28
REMARK                            x       y       z     vdW  Elec       q    Type
REMARK                         _______ _______ _______ _____ _____    ______ ____
ROOT
ATOM      1  N   UNL     1      33.203 -20.409 -19.509  0.00  0.00    -0.300 N 
ATOM      2  C   UNL     1      31.955 -20.088 -20.172  0.00  0.00    +0.113 C 
ENDROOT
BRANCH   1   6
ATOM      3  C   UNL     1      33.223 -22.789 -16.054  0.00  0.00    +0.054 C 
ATOM      4  C   UNL     1      32.018 -22.500 -16.689  0.00  0.00    +0.006 C 
ATOM      5  C   UNL     1      34.421 -22.292 -16.559  0.00  0.00    +0.006 C 
ATOM      6  C   UNL     1      33.210 -21.210 -18.347  0.00  0.00    +0.048 C 
ATOM      7  C   UNL     1      32.011 -21.709 -17.838  0.00  0.00    +0.015 C 
ATOM      8  C   UNL     1      34.415 -21.500 -17.708  0.00  0.00    +0.015 C 
BRANCH   3  16
ATOM      9  O   UNL     1      32.130 -23.959 -14.412  0.00  0.00    -0.270 OA
ATOM     10  N   UNL     1      34.463 -23.952 -14.278  0.00  0.00    -0.276 N 
ATOM     11  C   UNL     1      36.631 -23.570 -12.389  0.00  0.00    +0.102 C 
ATOM     12  C   UNL     1      35.256 -24.092 -11.958  0.00  0.00    +0.033 C 
ATOM     13  C   UNL     1      36.572 -22.808 -13.719  0.00  0.00    +0.033 C 
ATOM     14  C   UNL     1      34.512 -24.800 -13.090  0.00  0.00    +0.094 C 
ATOM     15  C   UNL     1      35.777 -23.550 -14.793  0.00  0.00    +0.094 C 
ATOM     16  C   UNL     1      33.230 -23.622 -14.844  0.00  0.00    +0.249 C 
BRANCH  11  18
ATOM     17  O   UNL     1      37.448 -25.788 -11.922  0.00  0.00    -0.250 OA
ATOM     18  C   UNL     1      37.616 -24.701 -12.457  0.00  0.00    +0.317 C 
BRANCH  18  19
ATOM     19  O   UNL     1      38.698 -24.320 -13.194  0.00  0.00    -0.444 OA
ATOM     20  C   UNL     1      39.296 -25.351 -13.986  0.00  0.00    +0.256 C 
ENDBRANCH  18  19
ENDBRANCH  11  18
ENDBRANCH   3  16
ENDBRANCH   1   6
BRANCH   1  21
ATOM     21  C   UNL     1      34.444 -19.885 -20.046  0.00  0.00    +0.148 C 
BRANCH  21  28
ATOM     22  N   UNL     1      34.102 -17.662 -20.950  0.00  0.00    -0.392 NA
ATOM     23  N   UNL     1      33.892 -18.653 -23.526  0.00  0.00    -0.200 NA
ATOM     24  N   UNL     1      33.570 -16.509 -24.339  0.00  0.00    -0.271 NA
ATOM     25  N   UNL     1      33.552 -14.619 -22.863  0.00  0.00    -0.310 NA
ATOM     26  N   UNL     1      33.868 -14.945 -20.544  0.00  0.00    -0.329 N 
ATOM     27  N   UNL     1      33.243 -14.336 -25.167  0.00  0.00    -0.283 N 
ATOM     28  C   UNL     1      34.206 -18.965 -21.214  0.00  0.00    +0.133 C 
ATOM     29  C   UNL     1      34.105 -19.465 -22.472  0.00  0.00    +0.193 C 
ATOM     30  C   UNL     1      33.890 -16.850 -22.004  0.00  0.00    +0.248 C 
ATOM     31  C   UNL     1      33.781 -17.336 -23.308  0.00  0.00    +0.131 C 
ATOM     32  C   UNL     1      33.766 -15.482 -21.854  0.00  0.00    +0.231 C 
ATOM     33  C   UNL     1      33.466 -15.194 -24.068  0.00  0.00    +0.207 C 
ATOM     34  H   UNL     1      33.785 -13.974 -20.403  0.00  0.00    +0.145 HD
ATOM     35  H   UNL     1      34.025 -15.542 -19.778  0.00  0.00    +0.145 HD
ATOM     36  H   UNL     1      33.171 -14.710 -26.075  0.00  0.00    +0.156 HD
ATOM     37  H   UNL     1      33.158 -13.367 -25.025  0.00  0.00    +0.156 HD
ENDBRANCH  21  28
ENDBRANCH   1  21
TORSDOF 6
ENDMDL
MODEL 5
REMARK VINA RESULT:     -10.8      4.091     10.464
REMARK  Name = 23629645
REMARK  6 active torsions:
REMARK  status: ('A' for Active; 'I' for Inactive)
REMARK    1  A    between atoms: N_1  and  C_6
REMARK    2  A    between atoms: N_1  and  C_21
REMARK    3  A    between atoms: C_3  and  C_16
REMARK    4  A    between atoms: C_11  and  C_18
REMARK    5  A    between atoms: C_18  and  O_19
REMARK    6  A    between atoms: C_21  and  C_28
REMARK                            x       y       z     vdW  Elec       q    Type
REMARK                         _______ _______ _______ _____ _____    ______ ____
ROOT
ATOM      1  N   UNL     1      35.290 -20.453 -19.273  0.00  0.00    -0.300 N 
ATOM      2  C   UNL     1      36.198 -20.073 -18.210  0.00  0.00    +0.113 C 
ENDROOT
BRANCH   1   6
ATOM      3  C   UNL     1      34.170 -17.671 -22.207  0.00  0.00    +0.054 C 
ATOM      4  C   UNL     1      33.349 -18.764 -21.939  0.00  0.00    +0.006 C 
ATOM      5  C   UNL     1      35.360 -17.497 -21.506  0.00  0.00    +0.006 C 
ATOM      6  C   UNL     1      34.913 -19.517 -20.260  0.00  0.00    +0.048 C 
ATOM      7  C   UNL     1      33.721 -19.689 -20.964  0.00  0.00    +0.015 C 
ATOM      8  C   UNL     1      35.733 -18.422 -20.531  0.00  0.00    +0.015 C 
BRANCH   3  16
ATOM      9  O   UNL     1      33.953 -17.042 -24.402  0.00  0.00    -0.270 OA
ATOM     10  N   UNL     1      33.256 -15.472 -22.817  0.00  0.00    -0.276 N 
ATOM     11  C   UNL     1      33.473 -12.654 -22.161  0.00  0.00    +0.102 C 
ATOM     12  C   UNL     1      33.568 -13.165 -23.603  0.00  0.00    +0.033 C 
ATOM     13  C   UNL     1      33.782 -13.751 -21.135  0.00  0.00    +0.033 C 
ATOM     14  C   UNL     1      32.832 -14.489 -23.810  0.00  0.00    +0.094 C 
ATOM     15  C   UNL     1      33.048 -15.059 -21.424  0.00  0.00    +0.094 C 
ATOM     16  C   UNL     1      33.778 -16.698 -23.235  0.00  0.00    +0.249 C 
BRANCH  11  18
ATOM     17  O   UNL     1      31.212 -12.618 -21.328  0.00  0.00    -0.250 OA
ATOM     18  C   UNL     1      32.121 -12.048 -21.915  0.00  0.00    +0.317 C 
BRANCH  18  19
ATOM     19  O   UNL     1      32.082 -10.792 -22.444  0.00  0.00    -0.444 OA
ATOM     20  C   UNL     1      31.542  -9.781 -21.586  0.00  0.00    +0.256 C 
ENDBRANCH  18  19
ENDBRANCH  11  18
ENDBRANCH   3  16
ENDBRANCH   1   6
BRANCH   1  21
ATOM     21  C   UNL     1      34.762 -21.803 -19.303  0.00  0.00    +0.148 C 
BRANCH  21  28
ATOM     22  N   UNL     1      34.116 -22.524 -17.080  0.00  0.00    -0.392 NA
ATOM     23  N   UNL     1      31.464 -21.895 -17.559  0.00  0.00    -0.200 NA
ATOM     24  N   UNL     1      30.898 -22.596 -15.425  0.00  0.00    -0.271 NA
ATOM     25  N   UNL     1      32.565 -23.440 -13.922  0.00  0.00    -0.310 NA
ATOM     26  N   UNL     1      34.818 -23.560 -14.623  0.00  0.00    -0.329 N 
ATOM     27  N   UNL     1      30.321 -23.305 -13.263  0.00  0.00    -0.283 N 
ATOM     28  C   UNL     1      33.712 -22.019 -18.246  0.00  0.00    +0.133 C 
ATOM     29  C   UNL     1      32.413 -21.707 -18.495  0.00  0.00    +0.193 C 
ATOM     30  C   UNL     1      33.166 -22.712 -16.144  0.00  0.00    +0.248 C 
ATOM     31  C   UNL     1      31.824 -22.400 -16.372  0.00  0.00    +0.131 C 
ATOM     32  C   UNL     1      33.465 -23.228 -14.898  0.00  0.00    +0.231 C 
ATOM     33  C   UNL     1      31.311 -23.105 -14.250  0.00  0.00    +0.207 C 
ATOM     34  H   UNL     1      35.065 -23.930 -13.745  0.00  0.00    +0.145 HD
ATOM     35  H   UNL     1      35.508 -23.420 -15.310  0.00  0.00    +0.145 HD
ATOM     36  H   UNL     1      29.383 -23.075 -13.454  0.00  0.00    +0.156 HD
ATOM     37  H   UNL     1      30.569 -23.676 -12.386  0.00  0.00    +0.156 HD
ENDBRANCH  21  28
ENDBRANCH   1  21
TORSDOF 6
ENDMDL
MODEL 6
REMARK VINA RESULT:     -10.7      4.680      8.927
REMARK  Name = 23629645
REMARK  6 active torsions:
REMARK  status: ('A' for Active; 'I' for Inactive)
REMARK    1  A    between atoms: N_1  and  C_6
REMARK    2  A    between atoms: N_1  and  C_21
REMARK    3  A    between atoms: C_3  and  C_16
REMARK    4  A    between atoms: C_11  and  C_18
REMARK    5  A    between atoms: C_18  and  O_19
REMARK    6  A    between atoms: C_21  and  C_28
REMARK                            x       y       z     vdW  Elec       q    Type
REMARK                         _______ _______ _______ _____ _____    ______ ____
ROOT
ATOM      1  N   UNL     1      32.838 -10.524 -24.253  0.00  0.00    -0.300 N 
ATOM      2  C   UNL     1      32.175  -9.828 -25.337  0.00  0.00    +0.113 C 
ENDROOT
BRANCH   1   6
ATOM      3  C   UNL     1      32.925 -14.718 -24.156  0.00  0.00    +0.054 C 
ATOM      4  C   UNL     1      32.714 -14.056 -25.363  0.00  0.00    +0.006 C 
ATOM      5  C   UNL     1      33.105 -13.994 -22.980  0.00  0.00    +0.006 C 
ATOM      6  C   UNL     1      32.867 -11.934 -24.220  0.00  0.00    +0.048 C 
ATOM      7  C   UNL     1      32.686 -12.662 -25.396  0.00  0.00    +0.015 C 
ATOM      8  C   UNL     1      33.077 -12.600 -23.012  0.00  0.00    +0.015 C 
BRANCH   3  16
ATOM      9  O   UNL     1      32.216 -16.761 -24.920  0.00  0.00    -0.270 OA
ATOM     10  N   UNL     1      33.794 -16.807 -23.195  0.00  0.00    -0.276 N 
ATOM     11  C   UNL     1      34.345 -18.088 -20.652  0.00  0.00    +0.102 C 
ATOM     12  C   UNL     1      33.525 -18.775 -21.750  0.00  0.00    +0.033 C 
ATOM     13  C   UNL     1      34.368 -16.563 -20.812  0.00  0.00    +0.033 C 
ATOM     14  C   UNL     1      33.869 -18.264 -23.149  0.00  0.00    +0.094 C 
ATOM     15  C   UNL     1      34.674 -16.121 -22.243  0.00  0.00    +0.094 C 
ATOM     16  C   UNL     1      32.954 -16.186 -24.122  0.00  0.00    +0.249 C 
BRANCH  11  18
ATOM     17  O   UNL     1      36.550 -18.519 -21.521  0.00  0.00    -0.250 OA
ATOM     18  C   UNL     1      35.736 -18.649 -20.617  0.00  0.00    +0.317 C 
BRANCH  18  19
ATOM     19  O   UNL     1      35.932 -19.310 -19.440  0.00  0.00    -0.444 OA
ATOM     20  C   UNL     1      35.247 -20.560 -19.315  0.00  0.00    +0.256 C 
ENDBRANCH  18  19
ENDBRANCH  11  18
ENDBRANCH   3  16
ENDBRANCH   1   6
BRANCH   1  21
ATOM     21  C   UNL     1      33.459  -9.753 -23.194  0.00  0.00    +0.148 C 
BRANCH  21  28
ATOM     22  N   UNL     1      32.717  -7.449 -23.055  0.00  0.00    -0.392 NA
ATOM     23  N   UNL     1      30.714  -8.117 -21.265  0.00  0.00    -0.200 NA
ATOM     24  N   UNL     1      30.043  -5.903 -21.167  0.00  0.00    -0.271 NA
ATOM     25  N   UNL     1      31.170  -4.215 -22.445  0.00  0.00    -0.310 NA
ATOM     26  N   UNL     1      32.992  -4.816 -23.825  0.00  0.00    -0.329 N 
ATOM     27  N   UNL     1      29.360  -3.659 -21.066  0.00  0.00    -0.283 N 
ATOM     28  C   UNL     1      32.530  -8.704 -22.644  0.00  0.00    +0.133 C 
ATOM     29  C   UNL     1      31.552  -9.046 -21.765  0.00  0.00    +0.193 C 
ATOM     30  C   UNL     1      31.878  -6.521 -22.555  0.00  0.00    +0.248 C 
ATOM     31  C   UNL     1      30.864  -6.843 -21.651  0.00  0.00    +0.131 C 
ATOM     32  C   UNL     1      31.974  -5.189 -22.908  0.00  0.00    +0.231 C 
ATOM     33  C   UNL     1      30.235  -4.638 -21.586  0.00  0.00    +0.207 C 
ATOM     34  H   UNL     1      33.087  -3.875 -24.097  0.00  0.00    +0.145 HD
ATOM     35  H   UNL     1      33.601  -5.498 -24.188  0.00  0.00    +0.145 HD
ATOM     36  H   UNL     1      28.655  -3.919 -20.430  0.00  0.00    +0.156 HD
ATOM     37  H   UNL     1      29.457  -2.719 -21.338  0.00  0.00    +0.156 HD
ENDBRANCH  21  28
ENDBRANCH   1  21
TORSDOF 6
ENDMDL
MODEL 7
REMARK VINA RESULT:     -10.6      1.647      2.894
REMARK  Name = 23629645
REMARK  6 active torsions:
REMARK  status: ('A' for Active; 'I' for Inactive)
REMARK    1  A    between atoms: N_1  and  C_6
REMARK    2  A    between atoms: N_1  and  C_21
REMARK    3  A    between atoms: C_3  and  C_16
REMARK    4  A    between atoms: C_11  and  C_18
REMARK    5  A    between atoms: C_18  and  O_19
REMARK    6  A    between atoms: C_21  and  C_28
REMARK                            x       y       z     vdW  Elec       q    Type
REMARK                         _______ _______ _______ _____ _____    ______ ____
ROOT
ATOM      1  N   UNL     1      34.421 -19.353 -20.611  0.00  0.00    -0.300 N 
ATOM      2  C   UNL     1      33.070 -19.533 -21.104  0.00  0.00    +0.113 C 
ENDROOT
BRANCH   1   6
ATOM      3  C   UNL     1      35.713 -21.372 -17.167  0.00  0.00    +0.054 C 
ATOM      4  C   UNL     1      36.465 -20.316 -17.675  0.00  0.00    +0.006 C 
ATOM      5  C   UNL     1      34.534 -21.762 -17.797  0.00  0.00    +0.006 C 
ATOM      6  C   UNL     1      34.855 -20.032 -19.452  0.00  0.00    +0.048 C 
ATOM      7  C   UNL     1      36.036 -19.644 -18.819  0.00  0.00    +0.015 C 
ATOM      8  C   UNL     1      34.104 -21.091 -18.942  0.00  0.00    +0.015 C 
BRANCH   3  16
ATOM      9  O   UNL     1      37.378 -22.261 -15.864  0.00  0.00    -0.270 OA
ATOM     10  N   UNL     1      35.202 -22.494 -15.040  0.00  0.00    -0.276 N 
ATOM     11  C   UNL     1      33.411 -24.454 -13.871  0.00  0.00    +0.102 C 
ATOM     12  C   UNL     1      34.933 -24.540 -13.708  0.00  0.00    +0.033 C 
ATOM     13  C   UNL     1      33.005 -23.606 -15.083  0.00  0.00    +0.033 C 
ATOM     14  C   UNL     1      35.616 -23.177 -13.818  0.00  0.00    +0.094 C 
ATOM     15  C   UNL     1      33.756 -22.277 -15.156  0.00  0.00    +0.094 C 
ATOM     16  C   UNL     1      36.166 -22.079 -15.962  0.00  0.00    +0.249 C 
BRANCH  11  18
ATOM     17  O   UNL     1      33.380 -23.811 -11.550  0.00  0.00    -0.250 OA
ATOM     18  C   UNL     1      32.784 -23.933 -12.611  0.00  0.00    +0.317 C 
BRANCH  18  19
ATOM     19  O   UNL     1      31.476 -23.629 -12.845  0.00  0.00    -0.444 OA
ATOM     20  C   UNL     1      30.568 -24.734 -12.788  0.00  0.00    +0.256 C 
ENDBRANCH  18  19
ENDBRANCH  11  18
ENDBRANCH   3  16
ENDBRANCH   1   6
BRANCH   1  21
ATOM     21  C   UNL     1      35.316 -18.456 -21.315  0.00  0.00    +0.148 C 
BRANCH  21  28
ATOM     22  N   UNL     1      34.332 -16.360 -22.030  0.00  0.00    -0.392 NA
ATOM     23  N   UNL     1      33.573 -17.451 -24.458  0.00  0.00    -0.200 NA
ATOM     24  N   UNL     1      32.647 -15.427 -25.095  0.00  0.00    -0.271 NA
ATOM     25  N   UNL     1      32.712 -13.527 -23.634  0.00  0.00    -0.310 NA
ATOM     26  N   UNL     1      33.736 -13.718 -21.513  0.00  0.00    -0.329 N 
ATOM     27  N   UNL     1      31.707 -13.376 -25.744  0.00  0.00    -0.283 N 
ATOM     28  C   UNL     1      34.590 -17.630 -22.343  0.00  0.00    +0.133 C 
ATOM     29  C   UNL     1      34.223 -18.179 -23.530  0.00  0.00    +0.193 C 
ATOM     30  C   UNL     1      33.682 -15.633 -22.960  0.00  0.00    +0.248 C 
ATOM     31  C   UNL     1      33.292 -16.170 -24.188  0.00  0.00    +0.131 C 
ATOM     32  C   UNL     1      33.360 -14.306 -22.750  0.00  0.00    +0.231 C 
ATOM     33  C   UNL     1      32.389 -14.145 -24.776  0.00  0.00    +0.207 C 
ATOM     34  H   UNL     1      33.522 -12.774 -21.332  0.00  0.00    +0.145 HD
ATOM     35  H   UNL     1      34.211 -14.254 -20.839  0.00  0.00    +0.145 HD
ATOM     36  H   UNL     1      31.447 -13.784 -26.601  0.00  0.00    +0.156 HD
ATOM     37  H   UNL     1      31.493 -12.433 -25.562  0.00  0.00    +0.156 HD
ENDBRANCH  21  28
ENDBRANCH   1  21
TORSDOF 6
ENDMDL
MODEL 8
REMARK VINA RESULT:     -10.6      5.166      9.301
REMARK  Name = 23629645
REMARK  6 active torsions:
REMARK  status: ('A' for Active; 'I' for Inactive)
REMARK    1  A    between atoms: N_1  and  C_6
REMARK    2  A    between atoms: N_1  and  C_21
REMARK    3  A    between atoms: C_3  and  C_16
REMARK    4  A    between atoms: C_11  and  C_18
REMARK    5  A    between atoms: C_18  and  O_19
REMARK    6  A    between atoms: C_21  and  C_28
REMARK                            x       y       z     vdW  Elec       q    Type
REMARK                         _______ _______ _______ _____ _____    ______ ____
ROOT
ATOM      1  N   UNL     1      32.268 -10.015 -22.481  0.00  0.00    -0.300 N 
ATOM      2  C   UNL     1      31.343  -9.640 -21.431  0.00  0.00    +0.113 C 
ENDROOT
BRANCH   1   6
ATOM      3  C   UNL     1      32.800 -14.050 -23.502  0.00  0.00    +0.054 C 
ATOM      4  C   UNL     1      32.298 -13.713 -22.248  0.00  0.00    +0.006 C 
ATOM      5  C   UNL     1      33.127 -13.054 -24.419  0.00  0.00    +0.006 C 
ATOM      6  C   UNL     1      32.447 -11.372 -22.824  0.00  0.00    +0.048 C 
ATOM      7  C   UNL     1      32.120 -12.372 -21.908  0.00  0.00    +0.015 C 
ATOM      8  C   UNL     1      32.950 -11.713 -24.080  0.00  0.00    +0.015 C 
BRANCH   3  16
ATOM      9  O   UNL     1      32.397 -15.850 -24.866  0.00  0.00    -0.270 OA
ATOM     10  N   UNL     1      33.798 -16.248 -23.037  0.00  0.00    -0.276 N 
ATOM     11  C   UNL     1      34.242 -18.138 -20.882  0.00  0.00    +0.102 C 
ATOM     12  C   UNL     1      33.612 -18.555 -22.216  0.00  0.00    +0.033 C 
ATOM     13  C   UNL     1      34.112 -16.632 -20.624  0.00  0.00    +0.033 C 
ATOM     14  C   UNL     1      34.030 -17.649 -23.374  0.00  0.00    +0.094 C 
ATOM     15  C   UNL     1      34.503 -15.787 -21.836  0.00  0.00    +0.094 C 
ATOM     16  C   UNL     1      32.987 -15.462 -23.859  0.00  0.00    +0.249 C 
BRANCH  11  18
ATOM     17  O   UNL     1      36.484 -18.384 -21.728  0.00  0.00    -0.250 OA
ATOM     18  C   UNL     1      35.677 -18.574 -20.829  0.00  0.00    +0.317 C 
BRANCH  18  19
ATOM     19  O   UNL     1      35.919 -19.201 -19.643  0.00  0.00    -0.444 OA
ATOM     20  C   UNL     1      35.215 -20.431 -19.442  0.00  0.00    +0.256 C 
ENDBRANCH  18  19
ENDBRANCH  11  18
ENDBRANCH   3  16
ENDBRANCH   1   6
BRANCH   1  21
ATOM     21  C   UNL     1      33.018  -8.981 -23.166  0.00  0.00    +0.148 C 
BRANCH  21  28
ATOM     22  N   UNL     1      31.973  -6.879 -22.556  0.00  0.00    -0.392 NA
ATOM     23  N   UNL     1      30.822  -6.632 -25.061  0.00  0.00    -0.200 NA
ATOM     24  N   UNL     1      29.846  -4.629 -24.430  0.00  0.00    -0.271 NA
ATOM     25  N   UNL     1      30.177  -3.735 -22.230  0.00  0.00    -0.310 NA
ATOM     26  N   UNL     1      31.517  -4.911 -20.680  0.00  0.00    -0.329 N 
ATOM     27  N   UNL     1      28.856  -2.598 -23.794  0.00  0.00    -0.283 N 
ATOM     28  C   UNL     1      32.155  -7.795 -23.508  0.00  0.00    +0.133 C 
ATOM     29  C   UNL     1      31.596  -7.687 -24.741  0.00  0.00    +0.193 C 
ATOM     30  C   UNL     1      31.199  -5.824 -22.877  0.00  0.00    +0.248 C 
ATOM     31  C   UNL     1      30.611  -5.687 -24.136  0.00  0.00    +0.131 C 
ATOM     32  C   UNL     1      30.940  -4.812 -21.973  0.00  0.00    +0.231 C 
ATOM     33  C   UNL     1      29.666  -3.707 -23.466  0.00  0.00    +0.207 C 
ATOM     34  H   UNL     1      31.353  -4.206 -20.013  0.00  0.00    +0.145 HD
ATOM     35  H   UNL     1      32.083  -5.683 -20.452  0.00  0.00    +0.145 HD
ATOM     36  H   UNL     1      28.456  -2.530 -24.691  0.00  0.00    +0.156 HD
ATOM     37  H   UNL     1      28.690  -1.895 -23.126  0.00  0.00    +0.156 HD
ENDBRANCH  21  28
ENDBRANCH   1  21
TORSDOF 6
ENDMDL
MODEL 9
REMARK VINA RESULT:     -10.4      4.962      9.269
REMARK  Name = 23629645
REMARK  6 active torsions:
REMARK  status: ('A' for Active; 'I' for Inactive)
REMARK    1  A    between atoms: N_1  and  C_6
REMARK    2  A    between atoms: N_1  and  C_21
REMARK    3  A    between atoms: C_3  and  C_16
REMARK    4  A    between atoms: C_11  and  C_18
REMARK    5  A    between atoms: C_18  and  O_19
REMARK    6  A    between atoms: C_21  and  C_28
REMARK                            x       y       z     vdW  Elec       q    Type
REMARK                         _______ _______ _______ _____ _____    ______ ____
ROOT
ATOM      1  N   UNL     1      32.784 -10.065 -23.009  0.00  0.00    -0.300 N 
ATOM      2  C   UNL     1      31.722  -9.477 -22.217  0.00  0.00    +0.113 C 
ENDROOT
BRANCH   1   6
ATOM      3  C   UNL     1      32.880 -14.204 -23.691  0.00  0.00    +0.054 C 
ATOM      4  C   UNL     1      33.066 -13.322 -24.753  0.00  0.00    +0.006 C 
ATOM      5  C   UNL     1      32.661 -13.719 -22.405  0.00  0.00    +0.006 C 
ATOM      6  C   UNL     1      32.816 -11.457 -23.238  0.00  0.00    +0.048 C 
ATOM      7  C   UNL     1      33.035 -11.946 -24.526  0.00  0.00    +0.015 C 
ATOM      8  C   UNL     1      32.629 -12.343 -22.177  0.00  0.00    +0.015 C 
BRANCH   3  16
ATOM      9  O   UNL     1      32.204 -16.067 -24.846  0.00  0.00    -0.270 OA
ATOM     10  N   UNL     1      33.722 -16.439 -23.108  0.00  0.00    -0.276 N 
ATOM     11  C   UNL     1      34.191 -18.173 -20.831  0.00  0.00    +0.102 C 
ATOM     12  C   UNL     1      33.411 -18.640 -22.065  0.00  0.00    +0.033 C 
ATOM     13  C   UNL     1      34.215 -16.645 -20.703  0.00  0.00    +0.033 C 
ATOM     14  C   UNL     1      33.801 -17.879 -23.332  0.00  0.00    +0.094 C 
ATOM     15  C   UNL     1      34.568 -15.945 -22.015  0.00  0.00    +0.094 C 
ATOM     16  C   UNL     1      32.912 -15.653 -23.931  0.00  0.00    +0.249 C 
BRANCH  11  18
ATOM     17  O   UNL     1      36.358 -18.607 -21.791  0.00  0.00    -0.250 OA
ATOM     18  C   UNL     1      35.582 -18.736 -20.854  0.00  0.00    +0.317 C 
BRANCH  18  19
ATOM     19  O   UNL     1      35.827 -19.395 -19.686  0.00  0.00    -0.444 OA
ATOM     20  C   UNL     1      34.995 -20.534 -19.437  0.00  0.00    +0.256 C 
ENDBRANCH  18  19
ENDBRANCH  11  18
ENDBRANCH   3  16
ENDBRANCH   1   6
BRANCH   1  21
ATOM     21  C   UNL     1      33.819  -9.208 -23.551  0.00  0.00    +0.148 C 
BRANCH  21  28
ATOM     22  N   UNL     1      32.412  -7.668 -24.786  0.00  0.00    -0.392 NA
ATOM     23  N   UNL     1      33.331  -5.516 -23.307  0.00  0.00    -0.200 NA
ATOM     24  N   UNL     1      31.968  -4.086 -24.516  0.00  0.00    -0.271 NA
ATOM     25  N   UNL     1      30.552  -4.915 -26.264  0.00  0.00    -0.310 NA
ATOM     26  N   UNL     1      30.544  -7.225 -26.764  0.00  0.00    -0.329 N 
ATOM     27  N   UNL     1      30.587  -2.633 -25.739  0.00  0.00    -0.283 N 
ATOM     28  C   UNL     1      33.314  -7.814 -23.815  0.00  0.00    +0.133 C 
ATOM     29  C   UNL     1      33.774  -6.767 -23.082  0.00  0.00    +0.193 C 
ATOM     30  C   UNL     1      31.969  -6.416 -25.010  0.00  0.00    +0.248 C 
ATOM     31  C   UNL     1      32.424  -5.320 -24.273  0.00  0.00    +0.131 C 
ATOM     32  C   UNL     1      31.033  -6.141 -25.989  0.00  0.00    +0.231 C 
ATOM     33  C   UNL     1      31.057  -3.943 -25.497  0.00  0.00    +0.207 C 
ATOM     34  H   UNL     1      29.876  -7.063 -27.470  0.00  0.00    +0.145 HD
ATOM     35  H   UNL     1      30.870  -8.137 -26.595  0.00  0.00    +0.145 HD
ATOM     36  H   UNL     1      30.928  -1.882 -25.201  0.00  0.00    +0.156 HD
ATOM     37  H   UNL     1      29.921  -2.472 -26.445  0.00  0.00    +0.156 HD
ENDBRANCH  21  28
ENDBRANCH   1  21
TORSDOF 6
ENDMDL
