MODEL 1
REMARK VINA RESULT:     -11.6      0.000      0.000
REMARK  Name = 16045418
REMARK  6 active torsions:
REMARK  status: ('A' for Active; 'I' for Inactive)
REMARK    1  A    between atoms: C_2  and  O_8
REMARK    2  A    between atoms: C_4  and  O_23
REMARK    3  A    between atoms: O_8  and  C_9
REMARK    4  A    between atoms: C_9  and  C_14
REMARK    5  A    between atoms: O_23  and  C_25
REMARK    6  A    between atoms: C_28  and  C_32
REMARK                            x       y       z     vdW  Elec       q    Type
REMARK                         _______ _______ _______ _____ _____    ______ ____
ROOT
ATOM      1 CL   UNL     1      30.060 -23.568 -11.757  0.00  0.00    -0.079 Cl
ATOM      2  C   UNL     1      30.953 -22.605 -16.069  0.00  0.00    +0.142 C 
ATOM      3  C   UNL     1      32.002 -22.905 -15.205  0.00  0.00    +0.075 C 
ATOM      4  C   UNL     1      31.735 -23.205 -13.869  0.00  0.00    +0.159 C 
ATOM      5  C   UNL     1      29.640 -22.601 -15.610  0.00  0.00    +0.038 C 
ATOM      6  C   UNL     1      30.420 -23.203 -13.403  0.00  0.00    +0.092 C 
ATOM      7  C   UNL     1      29.373 -22.901 -14.274  0.00  0.00    +0.018 C 
ENDROOT
BRANCH   2   8
ATOM      8  O   UNL     1      31.216 -22.311 -17.379  0.00  0.00    -0.469 OA
BRANCH   8   9
ATOM      9  C   UNL     1      32.593 -22.252 -17.755  0.00  0.00    +0.249 C 
BRANCH   9  14
ATOM     10  N   UNL     1      31.752 -20.638 -19.444  0.00  0.00    -0.227 N 
ATOM     11  N   UNL     1      32.106 -19.689 -20.337  0.00  0.00    -0.115 NA
ATOM     12  N   UNL     1      34.304 -18.839 -20.913  0.00  0.00    -0.335 NA
ATOM     13  N   UNL     1      36.605 -18.283 -21.190  0.00  0.00    -0.332 N 
ATOM     14  C   UNL     1      32.798 -21.201 -18.765  0.00  0.00    +0.097 C 
ATOM     15  C   UNL     1      33.909 -20.571 -19.253  0.00  0.00    +0.090 C 
ATOM     16  C   UNL     1      33.439 -19.639 -20.227  0.00  0.00    +0.105 C 
ATOM     17  C   UNL     1      35.218 -20.810 -18.864  0.00  0.00    +0.016 C 
ATOM     18  C   UNL     1      36.089 -19.980 -19.577  0.00  0.00    +0.049 C 
ATOM     19  C   UNL     1      35.604 -19.061 -20.540  0.00  0.00    +0.189 C 
ATOM     20  H   UNL     1      30.815 -20.903 -19.294  0.00  0.00    +0.175 HD
ATOM     21  H   UNL     1      36.348 -17.621 -21.872  0.00  0.00    +0.145 HD
ATOM     22  H   UNL     1      37.554 -18.407 -20.957  0.00  0.00    +0.145 HD
ENDBRANCH   9  14
ENDBRANCH   8   9
ENDBRANCH   2   8
BRANCH   4  23
ATOM     23  O   UNL     1      32.777 -23.496 -13.041  0.00  0.00    -0.452 OA
BRANCH  23  25
ATOM     24 CL   UNL     1      36.427 -20.966 -15.526  0.00  0.00    -0.082 Cl
ATOM     25  C   UNL     1      34.048 -23.508 -13.589  0.00  0.00    +0.147 C 
ATOM     26  C   UNL     1      34.807 -24.663 -13.510  0.00  0.00    +0.048 C 
ATOM     27  C   UNL     1      34.529 -22.365 -14.204  0.00  0.00    +0.049 C 
ATOM     28  C   UNL     1      36.087 -24.674 -14.064  0.00  0.00    +0.072 C 
ATOM     29  C   UNL     1      35.809 -22.377 -14.758  0.00  0.00    +0.061 C 
ATOM     30  C   UNL     1      36.588 -23.532 -14.687  0.00  0.00    +0.022 C 
BRANCH  28  32
ATOM     31  N   UNL     1      37.537 -26.821 -13.930  0.00  0.00    -0.191 NA
ATOM     32  C   UNL     1      36.885 -25.857 -13.991  0.00  0.00    +0.101 C 
ENDBRANCH  28  32
ENDBRANCH  23  25
ENDBRANCH   4  23
TORSDOF 6
ENDMDL
MODEL 2
REMARK VINA RESULT:     -11.4      1.650      6.635
REMARK  Name = 16045418
REMARK  6 active torsions:
REMARK  status: ('A' for Active; 'I' for Inactive)
REMARK    1  A    between atoms: C_2  and  O_8
REMARK    2  A    between atoms: C_4  and  O_23
REMARK    3  A    between atoms: O_8  and  C_9
REMARK    4  A    between atoms: C_9  and  C_14
REMARK    5  A    between atoms: O_23  and  C_25
REMARK    6  A    between atoms: C_28  and  C_32
REMARK                            x       y       z     vdW  Elec       q    Type
REMARK                         _______ _______ _______ _____ _____    ______ ____
ROOT
ATOM      1 CL   UNL     1      28.285 -22.152 -16.042  0.00  0.00    -0.079 Cl
ATOM      2  C   UNL     1      31.604 -23.659 -13.388  0.00  0.00    +0.142 C 
ATOM      3  C   UNL     1      31.848 -23.466 -14.745  0.00  0.00    +0.075 C 
ATOM      4  C   UNL     1      30.827 -23.000 -15.574  0.00  0.00    +0.159 C 
ATOM      5  C   UNL     1      30.348 -23.390 -12.853  0.00  0.00    +0.038 C 
ATOM      6  C   UNL     1      29.566 -22.729 -15.042  0.00  0.00    +0.092 C 
ATOM      7  C   UNL     1      29.327 -22.924 -13.682  0.00  0.00    +0.018 C 
ENDROOT
BRANCH   2   8
ATOM      8  O   UNL     1      32.605 -24.117 -12.577  0.00  0.00    -0.469 OA
BRANCH   8   9
ATOM      9  C   UNL     1      33.906 -23.570 -12.799  0.00  0.00    +0.249 C 
BRANCH   9  14
ATOM     10  N   UNL     1      34.344 -25.554 -14.226  0.00  0.00    -0.227 N 
ATOM     11  N   UNL     1      35.287 -26.423 -14.650  0.00  0.00    -0.115 NA
ATOM     12  N   UNL     1      37.649 -26.540 -14.110  0.00  0.00    -0.335 NA
ATOM     13  N   UNL     1      39.892 -26.315 -13.335  0.00  0.00    -0.332 N 
ATOM     14  C   UNL     1      34.798 -24.597 -13.360  0.00  0.00    +0.097 C 
ATOM     15  C   UNL     1      36.131 -24.865 -13.213  0.00  0.00    +0.090 C 
ATOM     16  C   UNL     1      36.397 -26.006 -14.030  0.00  0.00    +0.105 C 
ATOM     17  C   UNL     1      37.023 -24.156 -12.423  0.00  0.00    +0.016 C 
ATOM     18  C   UNL     1      38.300 -24.718 -12.520  0.00  0.00    +0.049 C 
ATOM     19  C   UNL     1      38.545 -25.850 -13.335  0.00  0.00    +0.189 C 
ATOM     20  H   UNL     1      33.404 -25.606 -14.517  0.00  0.00    +0.175 HD
ATOM     21  H   UNL     1      40.142 -27.098 -13.877  0.00  0.00    +0.145 HD
ATOM     22  H   UNL     1      40.572 -25.854 -12.793  0.00  0.00    +0.145 HD
ENDBRANCH   9  14
ENDBRANCH   8   9
ENDBRANCH   2   8
BRANCH   4  23
ATOM     23  O   UNL     1      31.090 -22.818 -16.899  0.00  0.00    -0.452 OA
BRANCH  23  25
ATOM     24 CL   UNL     1      36.029 -22.330 -15.778  0.00  0.00    -0.082 Cl
ATOM     25  C   UNL     1      32.325 -22.296 -17.242  0.00  0.00    +0.147 C 
ATOM     26  C   UNL     1      32.440 -21.532 -18.391  0.00  0.00    +0.048 C 
ATOM     27  C   UNL     1      33.415 -22.551 -16.429  0.00  0.00    +0.049 C 
ATOM     28  C   UNL     1      33.684 -21.006 -18.736  0.00  0.00    +0.072 C 
ATOM     29  C   UNL     1      34.660 -22.025 -16.774  0.00  0.00    +0.061 C 
ATOM     30  C   UNL     1      34.794 -21.253 -17.929  0.00  0.00    +0.022 C 
BRANCH  28  32
ATOM     31  N   UNL     1      33.933 -19.571 -20.882  0.00  0.00    -0.191 NA
ATOM     32  C   UNL     1      33.822 -20.216 -19.919  0.00  0.00    +0.101 C 
ENDBRANCH  28  32
ENDBRANCH  23  25
ENDBRANCH   4  23
TORSDOF 6
ENDMDL
MODEL 3
REMARK VINA RESULT:     -11.2      3.142      6.332
REMARK  Name = 16045418
REMARK  6 active torsions:
REMARK  status: ('A' for Active; 'I' for Inactive)
REMARK    1  A    between atoms: C_2  and  O_8
REMARK    2  A    between atoms: C_4  and  O_23
REMARK    3  A    between atoms: O_8  and  C_9
REMARK    4  A    between atoms: C_9  and  C_14
REMARK    5  A    between atoms: O_23  and  C_25
REMARK    6  A    between atoms: C_28  and  C_32
REMARK                            x       y       z     vdW  Elec       q    Type
REMARK                         _______ _______ _______ _____ _____    ______ ____
ROOT
ATOM      1 CL   UNL     1      28.276 -22.037 -15.837  0.00  0.00    -0.079 Cl
ATOM      2  C   UNL     1      31.658 -23.684 -13.351  0.00  0.00    +0.142 C 
ATOM      3  C   UNL     1      31.841 -23.502 -14.719  0.00  0.00    +0.075 C 
ATOM      4  C   UNL     1      30.800 -22.993 -15.496  0.00  0.00    +0.159 C 
ATOM      5  C   UNL     1      30.443 -23.361 -12.753  0.00  0.00    +0.038 C 
ATOM      6  C   UNL     1      29.580 -22.668 -14.901  0.00  0.00    +0.092 C 
ATOM      7  C   UNL     1      29.402 -22.852 -13.530  0.00  0.00    +0.018 C 
ENDROOT
BRANCH   2   8
ATOM      8  O   UNL     1      32.679 -24.183 -12.590  0.00  0.00    -0.469 OA
BRANCH   8   9
ATOM      9  C   UNL     1      33.975 -23.626 -12.817  0.00  0.00    +0.249 C 
BRANCH   9  14
ATOM     10  N   UNL     1      34.438 -25.612 -14.235  0.00  0.00    -0.227 N 
ATOM     11  N   UNL     1      35.390 -26.478 -14.644  0.00  0.00    -0.115 NA
ATOM     12  N   UNL     1      37.744 -26.586 -14.072  0.00  0.00    -0.335 NA
ATOM     13  N   UNL     1      39.976 -26.353 -13.267  0.00  0.00    -0.332 N 
ATOM     14  C   UNL     1      34.878 -24.652 -13.364  0.00  0.00    +0.097 C 
ATOM     15  C   UNL     1      36.210 -24.915 -13.199  0.00  0.00    +0.090 C 
ATOM     16  C   UNL     1      36.490 -26.057 -14.010  0.00  0.00    +0.105 C 
ATOM     17  C   UNL     1      37.088 -24.202 -12.398  0.00  0.00    +0.016 C 
ATOM     18  C   UNL     1      38.368 -24.760 -12.477  0.00  0.00    +0.049 C 
ATOM     19  C   UNL     1      38.628 -25.892 -13.287  0.00  0.00    +0.189 C 
ATOM     20  H   UNL     1      33.503 -25.668 -14.538  0.00  0.00    +0.175 HD
ATOM     21  H   UNL     1      40.236 -27.136 -13.804  0.00  0.00    +0.145 HD
ATOM     22  H   UNL     1      40.647 -25.888 -12.717  0.00  0.00    +0.145 HD
ENDBRANCH   9  14
ENDBRANCH   8   9
ENDBRANCH   2   8
BRANCH   4  23
ATOM     23  O   UNL     1      31.002 -22.822 -16.833  0.00  0.00    -0.452 OA
BRANCH  23  25
ATOM     24 CL   UNL     1      33.606 -20.176 -20.313  0.00  0.00    -0.082 Cl
ATOM     25  C   UNL     1      32.214 -22.287 -17.235  0.00  0.00    +0.147 C 
ATOM     26  C   UNL     1      33.329 -22.464 -16.435  0.00  0.00    +0.048 C 
ATOM     27  C   UNL     1      32.280 -21.588 -18.428  0.00  0.00    +0.049 C 
ATOM     28  C   UNL     1      34.549 -21.926 -16.841  0.00  0.00    +0.072 C 
ATOM     29  C   UNL     1      33.501 -21.050 -18.834  0.00  0.00    +0.061 C 
ATOM     30  C   UNL     1      34.636 -21.218 -18.040  0.00  0.00    +0.022 C 
BRANCH  28  32
ATOM     31  N   UNL     1      36.659 -22.240 -15.365  0.00  0.00    -0.191 NA
ATOM     32  C   UNL     1      35.712 -22.098 -16.027  0.00  0.00    +0.101 C 
ENDBRANCH  28  32
ENDBRANCH  23  25
ENDBRANCH   4  23
TORSDOF 6
ENDMDL
MODEL 4
REMARK VINA RESULT:     -11.1      1.682      2.088
REMARK  Name = 16045418
REMARK  6 active torsions:
REMARK  status: ('A' for Active; 'I' for Inactive)
REMARK    1  A    between atoms: C_2  and  O_8
REMARK    2  A    between atoms: C_4  and  O_23
REMARK    3  A    between atoms: O_8  and  C_9
REMARK    4  A    between atoms: C_9  and  C_14
REMARK    5  A    between atoms: O_23  and  C_25
REMARK    6  A    between atoms: C_28  and  C_32
REMARK                            x       y       z     vdW  Elec       q    Type
REMARK                         _______ _______ _______ _____ _____    ______ ____
ROOT
ATOM      1 CL   UNL     1      30.155 -23.415 -11.852  0.00  0.00    -0.079 Cl
ATOM      2  C   UNL     1      31.179 -22.702 -16.184  0.00  0.00    +0.142 C 
ATOM      3  C   UNL     1      32.185 -23.073 -15.296  0.00  0.00    +0.075 C 
ATOM      4  C   UNL     1      31.877 -23.297 -13.954  0.00  0.00    +0.159 C 
ATOM      5  C   UNL     1      29.868 -22.551 -15.741  0.00  0.00    +0.038 C 
ATOM      6  C   UNL     1      30.564 -23.147 -13.505  0.00  0.00    +0.092 C 
ATOM      7  C   UNL     1      29.561 -22.774 -14.399  0.00  0.00    +0.018 C 
ENDROOT
BRANCH   2   8
ATOM      8  O   UNL     1      31.482 -22.483 -17.499  0.00  0.00    -0.469 OA
BRANCH   8   9
ATOM      9  C   UNL     1      32.818 -22.065 -17.785  0.00  0.00    +0.249 C 
BRANCH   9  14
ATOM     10  N   UNL     1      31.658 -20.650 -19.463  0.00  0.00    -0.227 N 
ATOM     11  N   UNL     1      31.826 -19.731 -20.439  0.00  0.00    -0.115 NA
ATOM     12  N   UNL     1      33.860 -18.718 -21.286  0.00  0.00    -0.335 NA
ATOM     13  N   UNL     1      36.056 -17.966 -21.831  0.00  0.00    -0.332 N 
ATOM     14  C   UNL     1      32.816 -21.067 -18.867  0.00  0.00    +0.097 C 
ATOM     15  C   UNL     1      33.806 -20.368 -19.501  0.00  0.00    +0.090 C 
ATOM     16  C   UNL     1      33.151 -19.549 -20.471  0.00  0.00    +0.105 C 
ATOM     17  C   UNL     1      35.164 -20.457 -19.238  0.00  0.00    +0.016 C 
ATOM     18  C   UNL     1      35.873 -19.597 -20.082  0.00  0.00    +0.049 C 
ATOM     19  C   UNL     1      35.207 -18.791 -21.038  0.00  0.00    +0.189 C 
ATOM     20  H   UNL     1      30.771 -20.991 -19.203  0.00  0.00    +0.175 HD
ATOM     21  H   UNL     1      35.669 -17.377 -22.518  0.00  0.00    +0.145 HD
ATOM     22  H   UNL     1      37.031 -17.985 -21.691  0.00  0.00    +0.145 HD
ENDBRANCH   9  14
ENDBRANCH   8   9
ENDBRANCH   2   8
BRANCH   4  23
ATOM     23  O   UNL     1      32.877 -23.661 -13.103  0.00  0.00    -0.452 OA
BRANCH  23  25
ATOM     24 CL   UNL     1      37.430 -25.905 -13.460  0.00  0.00    -0.082 Cl
ATOM     25  C   UNL     1      34.175 -23.612 -13.582  0.00  0.00    +0.147 C 
ATOM     26  C   UNL     1      34.581 -22.516 -14.323  0.00  0.00    +0.048 C 
ATOM     27  C   UNL     1      35.036 -24.661 -13.307  0.00  0.00    +0.049 C 
ATOM     28  C   UNL     1      35.889 -22.467 -14.804  0.00  0.00    +0.072 C 
ATOM     29  C   UNL     1      36.344 -24.612 -13.788  0.00  0.00    +0.061 C 
ATOM     30  C   UNL     1      36.770 -23.515 -14.537  0.00  0.00    +0.022 C 
BRANCH  28  32
ATOM     31  N   UNL     1      36.680 -20.428 -16.198  0.00  0.00    -0.191 NA
ATOM     32  C   UNL     1      36.326 -21.343 -15.572  0.00  0.00    +0.101 C 
ENDBRANCH  28  32
ENDBRANCH  23  25
ENDBRANCH   4  23
TORSDOF 6
ENDMDL
MODEL 5
REMARK VINA RESULT:     -11.1      1.960      2.272
REMARK  Name = 16045418
REMARK  6 active torsions:
REMARK  status: ('A' for Active; 'I' for Inactive)
REMARK    1  A    between atoms: C_2  and  O_8
REMARK    2  A    between atoms: C_4  and  O_23
REMARK    3  A    between atoms: O_8  and  C_9
REMARK    4  A    between atoms: C_9  and  C_14
REMARK    5  A    between atoms: O_23  and  C_25
REMARK    6  A    between atoms: C_28  and  C_32
REMARK                            x       y       z     vdW  Elec       q    Type
REMARK                         _______ _______ _______ _____ _____    ______ ____
ROOT
ATOM      1 CL   UNL     1      29.939 -24.466 -12.514  0.00  0.00    -0.079 Cl
ATOM      2  C   UNL     1      31.176 -22.356 -16.301  0.00  0.00    +0.142 C 
ATOM      3  C   UNL     1      32.086 -23.188 -15.654  0.00  0.00    +0.075 C 
ATOM      4  C   UNL     1      31.711 -23.845 -14.482  0.00  0.00    +0.159 C 
ATOM      5  C   UNL     1      29.896 -22.175 -15.787  0.00  0.00    +0.038 C 
ATOM      6  C   UNL     1      30.429 -23.667 -13.962  0.00  0.00    +0.092 C 
ATOM      7  C   UNL     1      29.522 -22.832 -14.614  0.00  0.00    +0.018 C 
ENDROOT
BRANCH   2   8
ATOM      8  O   UNL     1      31.544 -21.712 -17.450  0.00  0.00    -0.469 OA
BRANCH   8   9
ATOM      9  C   UNL     1      32.471 -22.396 -18.296  0.00  0.00    +0.249 C 
BRANCH   9  14
ATOM     10  N   UNL     1      34.793 -21.698 -17.762  0.00  0.00    -0.227 N 
ATOM     11  N   UNL     1      35.798 -20.859 -18.094  0.00  0.00    -0.115 NA
ATOM     12  N   UNL     1      35.898 -19.159 -19.821  0.00  0.00    -0.335 NA
ATOM     13  N   UNL     1      35.597 -17.609 -21.608  0.00  0.00    -0.332 N 
ATOM     14  C   UNL     1      33.663 -21.562 -18.521  0.00  0.00    +0.097 C 
ATOM     15  C   UNL     1      33.956 -20.563 -19.408  0.00  0.00    +0.090 C 
ATOM     16  C   UNL     1      35.291 -20.152 -19.111  0.00  0.00    +0.105 C 
ATOM     17  C   UNL     1      33.110 -20.068 -20.388  0.00  0.00    +0.016 C 
ATOM     18  C   UNL     1      33.750 -19.052 -21.105  0.00  0.00    +0.049 C 
ATOM     19  C   UNL     1      35.075 -18.657 -20.796  0.00  0.00    +0.189 C 
ATOM     20  H   UNL     1      34.869 -22.355 -17.032  0.00  0.00    +0.175 HD
ATOM     21  H   UNL     1      36.512 -17.279 -21.456  0.00  0.00    +0.145 HD
ATOM     22  H   UNL     1      35.043 -17.215 -22.320  0.00  0.00    +0.145 HD
ENDBRANCH   9  14
ENDBRANCH   8   9
ENDBRANCH   2   8
BRANCH   4  23
ATOM     23  O   UNL     1      32.618 -24.655 -13.866  0.00  0.00    -0.452 OA
BRANCH  23  25
ATOM     24 CL   UNL     1      37.049 -22.537 -15.197  0.00  0.00    -0.082 Cl
ATOM     25  C   UNL     1      33.815 -24.089 -13.465  0.00  0.00    +0.147 C 
ATOM     26  C   UNL     1      34.087 -23.973 -12.112  0.00  0.00    +0.048 C 
ATOM     27  C   UNL     1      34.712 -23.655 -14.424  0.00  0.00    +0.049 C 
ATOM     28  C   UNL     1      35.294 -23.403 -11.708  0.00  0.00    +0.072 C 
ATOM     29  C   UNL     1      35.919 -23.086 -14.020  0.00  0.00    +0.061 C 
ATOM     30  C   UNL     1      36.210 -22.959 -12.661  0.00  0.00    +0.022 C 
BRANCH  28  32
ATOM     31  N   UNL     1      35.832 -23.169  -9.182  0.00  0.00    -0.191 NA
ATOM     32  C   UNL     1      35.591 -23.274 -10.316  0.00  0.00    +0.101 C 
ENDBRANCH  28  32
ENDBRANCH  23  25
ENDBRANCH   4  23
TORSDOF 6
ENDMDL
MODEL 6
REMARK VINA RESULT:     -11.0     10.377     14.567
REMARK  Name = 16045418
REMARK  6 active torsions:
REMARK  status: ('A' for Active; 'I' for Inactive)
REMARK    1  A    between atoms: C_2  and  O_8
REMARK    2  A    between atoms: C_4  and  O_23
REMARK    3  A    between atoms: O_8  and  C_9
REMARK    4  A    between atoms: C_9  and  C_14
REMARK    5  A    between atoms: O_23  and  C_25
REMARK    6  A    between atoms: C_28  and  C_32
REMARK                            x       y       z     vdW  Elec       q    Type
REMARK                         _______ _______ _______ _____ _____    ______ ____
ROOT
ATOM      1 CL   UNL     1      33.563  -5.932 -23.634  0.00  0.00    -0.079 Cl
ATOM      2  C   UNL     1      33.573 -10.392 -24.295  0.00  0.00    +0.142 C 
ATOM      3  C   UNL     1      32.476  -9.795 -23.678  0.00  0.00    +0.075 C 
ATOM      4  C   UNL     1      32.465  -8.415 -23.470  0.00  0.00    +0.159 C 
ATOM      5  C   UNL     1      34.657  -9.622 -24.704  0.00  0.00    +0.038 C 
ATOM      6  C   UNL     1      33.549  -7.639 -23.879  0.00  0.00    +0.092 C 
ATOM      7  C   UNL     1      34.645  -8.243 -24.495  0.00  0.00    +0.018 C 
ENDROOT
BRANCH   2   8
ATOM      8  O   UNL     1      33.584 -11.745 -24.498  0.00  0.00    -0.469 OA
BRANCH   8   9
ATOM      9  C   UNL     1      32.912 -12.542 -23.520  0.00  0.00    +0.249 C 
BRANCH   9  14
ATOM     10  N   UNL     1      32.152 -14.271 -25.132  0.00  0.00    -0.227 N 
ATOM     11  N   UNL     1      32.154 -15.591 -25.417  0.00  0.00    -0.115 NA
ATOM     12  N   UNL     1      33.151 -17.442 -24.208  0.00  0.00    -0.335 NA
ATOM     13  N   UNL     1      34.259 -18.963 -22.744  0.00  0.00    -0.332 N 
ATOM     14  C   UNL     1      32.815 -13.935 -23.983  0.00  0.00    +0.097 C 
ATOM     15  C   UNL     1      33.281 -15.123 -23.490  0.00  0.00    +0.090 C 
ATOM     16  C   UNL     1      32.850 -16.128 -24.408  0.00  0.00    +0.105 C 
ATOM     17  C   UNL     1      34.020 -15.290 -22.328  0.00  0.00    +0.016 C 
ATOM     18  C   UNL     1      34.319 -16.643 -22.142  0.00  0.00    +0.049 C 
ATOM     19  C   UNL     1      33.883 -17.627 -23.064  0.00  0.00    +0.189 C 
ATOM     20  H   UNL     1      31.707 -13.604 -25.705  0.00  0.00    +0.175 HD
ATOM     21  H   UNL     1      33.994 -19.703 -23.336  0.00  0.00    +0.145 HD
ATOM     22  H   UNL     1      34.784 -19.146 -21.932  0.00  0.00    +0.145 HD
ENDBRANCH   9  14
ENDBRANCH   8   9
ENDBRANCH   2   8
BRANCH   4  23
ATOM     23  O   UNL     1      31.380  -7.853 -22.866  0.00  0.00    -0.452 OA
BRANCH  23  25
ATOM     24 CL   UNL     1      30.568 -10.865 -18.846  0.00  0.00    -0.082 Cl
ATOM     25  C   UNL     1      31.278  -7.973 -21.491  0.00  0.00    +0.147 C 
ATOM     26  C   UNL     1      31.448  -6.849 -20.701  0.00  0.00    +0.048 C 
ATOM     27  C   UNL     1      31.007  -9.212 -20.939  0.00  0.00    +0.049 C 
ATOM     28  C   UNL     1      31.344  -6.969 -19.316  0.00  0.00    +0.072 C 
ATOM     29  C   UNL     1      30.903  -9.333 -19.554  0.00  0.00    +0.061 C 
ATOM     30  C   UNL     1      31.072  -8.211 -18.742  0.00  0.00    +0.022 C 
BRANCH  28  32
ATOM     31  N   UNL     1      31.660  -4.884 -17.805  0.00  0.00    -0.191 NA
ATOM     32  C   UNL     1      31.518  -5.820 -18.484  0.00  0.00    +0.101 C 
ENDBRANCH  28  32
ENDBRANCH  23  25
ENDBRANCH   4  23
TORSDOF 6
ENDMDL
MODEL 7
REMARK VINA RESULT:     -10.9      2.018      2.553
REMARK  Name = 16045418
REMARK  6 active torsions:
REMARK  status: ('A' for Active; 'I' for Inactive)
REMARK    1  A    between atoms: C_2  and  O_8
REMARK    2  A    between atoms: C_4  and  O_23
REMARK    3  A    between atoms: O_8  and  C_9
REMARK    4  A    between atoms: C_9  and  C_14
REMARK    5  A    between atoms: O_23  and  C_25
REMARK    6  A    between atoms: C_28  and  C_32
REMARK                            x       y       z     vdW  Elec       q    Type
REMARK                         _______ _______ _______ _____ _____    ______ ____
ROOT
ATOM      1 CL   UNL     1      29.860 -23.905 -13.854  0.00  0.00    -0.079 Cl
ATOM      2  C   UNL     1      33.186 -22.508 -16.560  0.00  0.00    +0.142 C 
ATOM      3  C   UNL     1      33.496 -23.243 -15.419  0.00  0.00    +0.075 C 
ATOM      4  C   UNL     1      32.473 -23.680 -14.576  0.00  0.00    +0.159 C 
ATOM      5  C   UNL     1      31.862 -22.205 -16.865  0.00  0.00    +0.038 C 
ATOM      6  C   UNL     1      31.145 -23.379 -14.878  0.00  0.00    +0.092 C 
ATOM      7  C   UNL     1      30.840 -22.641 -16.022  0.00  0.00    +0.018 C 
ENDROOT
BRANCH   2   8
ATOM      8  O   UNL     1      34.189 -22.080 -17.385  0.00  0.00    -0.469 OA
BRANCH   8   9
ATOM      9  C   UNL     1      33.819 -21.767 -18.729  0.00  0.00    +0.249 C 
BRANCH   9  14
ATOM     10  N   UNL     1      35.813 -20.290 -18.650  0.00  0.00    -0.227 N 
ATOM     11  N   UNL     1      36.428 -19.234 -19.223  0.00  0.00    -0.115 NA
ATOM     12  N   UNL     1      35.742 -17.871 -21.109  0.00  0.00    -0.335 NA
ATOM     13  N   UNL     1      34.727 -16.786 -22.974  0.00  0.00    -0.332 N 
ATOM     14  C   UNL     1      34.622 -20.639 -19.227  0.00  0.00    +0.097 C 
ATOM     15  C   UNL     1      34.454 -19.745 -20.247  0.00  0.00    +0.090 C 
ATOM     16  C   UNL     1      35.596 -18.888 -20.213  0.00  0.00    +0.105 C 
ATOM     17  C   UNL     1      33.381 -19.700 -21.124  0.00  0.00    +0.016 C 
ATOM     18  C   UNL     1      33.550 -18.652 -22.035  0.00  0.00    +0.049 C 
ATOM     19  C   UNL     1      34.689 -17.812 -21.986  0.00  0.00    +0.189 C 
ATOM     20  H   UNL     1      36.192 -20.771 -17.878  0.00  0.00    +0.175 HD
ATOM     21  H   UNL     1      35.487 -16.161 -23.005  0.00  0.00    +0.145 HD
ATOM     22  H   UNL     1      33.993 -16.703 -23.625  0.00  0.00    +0.145 HD
ENDBRANCH   9  14
ENDBRANCH   8   9
ENDBRANCH   2   8
BRANCH   4  23
ATOM     23  O   UNL     1      32.801 -24.399 -13.466  0.00  0.00    -0.452 OA
BRANCH  23  25
ATOM     24 CL   UNL     1      36.045 -22.287 -10.164  0.00  0.00    -0.082 Cl
ATOM     25  C   UNL     1      34.099 -24.300 -12.997  0.00  0.00    +0.147 C 
ATOM     26  C   UNL     1      35.092 -25.058 -13.594  0.00  0.00    +0.048 C 
ATOM     27  C   UNL     1      34.374 -23.445 -11.945  0.00  0.00    +0.049 C 
ATOM     28  C   UNL     1      36.400 -24.956 -13.122  0.00  0.00    +0.072 C 
ATOM     29  C   UNL     1      35.682 -23.343 -11.473  0.00  0.00    +0.061 C 
ATOM     30  C   UNL     1      36.696 -24.100 -12.061  0.00  0.00    +0.022 C 
BRANCH  28  32
ATOM     31  N   UNL     1      38.283 -26.365 -14.217  0.00  0.00    -0.191 NA
ATOM     32  C   UNL     1      37.438 -25.732 -13.725  0.00  0.00    +0.101 C 
ENDBRANCH  28  32
ENDBRANCH  23  25
ENDBRANCH   4  23
TORSDOF 6
ENDMDL
MODEL 8
REMARK VINA RESULT:     -10.6     10.854     14.984
REMARK  Name = 16045418
REMARK  6 active torsions:
REMARK  status: ('A' for Active; 'I' for Inactive)
REMARK    1  A    between atoms: C_2  and  O_8
REMARK    2  A    between atoms: C_4  and  O_23
REMARK    3  A    between atoms: O_8  and  C_9
REMARK    4  A    between atoms: C_9  and  C_14
REMARK    5  A    between atoms: O_23  and  C_25
REMARK    6  A    between atoms: C_28  and  C_32
REMARK                            x       y       z     vdW  Elec       q    Type
REMARK                         _______ _______ _______ _____ _____    ______ ____
ROOT
ATOM      1 CL   UNL     1      33.981  -6.046 -23.615  0.00  0.00    -0.079 Cl
ATOM      2  C   UNL     1      33.277 -10.419 -24.457  0.00  0.00    +0.142 C 
ATOM      3  C   UNL     1      32.186  -9.577 -24.256  0.00  0.00    +0.075 C 
ATOM      4  C   UNL     1      32.395  -8.223 -23.995  0.00  0.00    +0.159 C 
ATOM      5  C   UNL     1      34.574  -9.918 -24.398  0.00  0.00    +0.038 C 
ATOM      6  C   UNL     1      33.693  -7.716 -23.936  0.00  0.00    +0.092 C 
ATOM      7  C   UNL     1      34.782  -8.564 -24.137  0.00  0.00    +0.018 C 
ENDROOT
BRANCH   2   8
ATOM      8  O   UNL     1      33.072 -11.747 -24.712  0.00  0.00    -0.469 OA
BRANCH   8   9
ATOM      9  C   UNL     1      32.996 -12.610 -23.575  0.00  0.00    +0.249 C 
BRANCH   9  14
ATOM     10  N   UNL     1      32.137 -14.345 -25.130  0.00  0.00    -0.227 N 
ATOM     11  N   UNL     1      32.095 -15.668 -25.393  0.00  0.00    -0.115 NA
ATOM     12  N   UNL     1      33.084 -17.526 -24.186  0.00  0.00    -0.335 NA
ATOM     13  N   UNL     1      34.201 -19.051 -22.734  0.00  0.00    -0.332 N 
ATOM     14  C   UNL     1      32.847 -14.008 -24.010  0.00  0.00    +0.097 C 
ATOM     15  C   UNL     1      33.299 -15.199 -23.513  0.00  0.00    +0.090 C 
ATOM     16  C   UNL     1      32.811 -16.207 -24.399  0.00  0.00    +0.105 C 
ATOM     17  C   UNL     1      34.072 -15.367 -22.374  0.00  0.00    +0.016 C 
ATOM     18  C   UNL     1      34.342 -16.724 -22.174  0.00  0.00    +0.049 C 
ATOM     19  C   UNL     1      33.850 -17.711 -23.064  0.00  0.00    +0.189 C 
ATOM     20  H   UNL     1      31.691 -13.676 -25.699  0.00  0.00    +0.175 HD
ATOM     21  H   UNL     1      33.897 -19.794 -23.304  0.00  0.00    +0.145 HD
ATOM     22  H   UNL     1      34.749 -19.235 -21.937  0.00  0.00    +0.145 HD
ENDBRANCH   9  14
ENDBRANCH   8   9
ENDBRANCH   2   8
BRANCH   4  23
ATOM     23  O   UNL     1      31.312  -7.418 -23.803  0.00  0.00    -0.452 OA
BRANCH  23  25
ATOM     24 CL   UNL     1      29.377  -3.922 -20.652  0.00  0.00    -0.082 Cl
ATOM     25  C   UNL     1      31.010  -7.048 -22.504  0.00  0.00    +0.147 C 
ATOM     26  C   UNL     1      31.308  -7.916 -21.469  0.00  0.00    +0.048 C 
ATOM     27  C   UNL     1      30.418  -5.819 -22.272  0.00  0.00    +0.049 C 
ATOM     28  C   UNL     1      31.004  -7.543 -20.160  0.00  0.00    +0.072 C 
ATOM     29  C   UNL     1      30.114  -5.446 -20.963  0.00  0.00    +0.061 C 
ATOM     30  C   UNL     1      30.407  -6.309 -19.907  0.00  0.00    +0.022 C 
BRANCH  28  32
ATOM     31  N   UNL     1      31.546  -9.149 -18.196  0.00  0.00    -0.191 NA
ATOM     32  C   UNL     1      31.304  -8.428 -19.078  0.00  0.00    +0.101 C 
ENDBRANCH  28  32
ENDBRANCH  23  25
ENDBRANCH   4  23
TORSDOF 6
ENDMDL
MODEL 9
REMARK VINA RESULT:     -10.5      2.654      3.622
REMARK  Name = 16045418
REMARK  6 active torsions:
REMARK  status: ('A' for Active; 'I' for Inactive)
REMARK    1  A    between atoms: C_2  and  O_8
REMARK    2  A    between atoms: C_4  and  O_23
REMARK    3  A    between atoms: O_8  and  C_9
REMARK    4  A    between atoms: C_9  and  C_14
REMARK    5  A    between atoms: O_23  and  C_25
REMARK    6  A    between atoms: C_28  and  C_32
REMARK                            x       y       z     vdW  Elec       q    Type
REMARK                         _______ _______ _______ _____ _____    ______ ____
ROOT
ATOM      1 CL   UNL     1      32.376 -23.209 -13.725  0.00  0.00    -0.079 Cl
ATOM      2  C   UNL     1      34.172 -22.079 -17.702  0.00  0.00    +0.142 C 
ATOM      3  C   UNL     1      34.879 -21.812 -16.533  0.00  0.00    +0.075 C 
ATOM      4  C   UNL     1      34.331 -22.159 -15.298  0.00  0.00    +0.159 C 
ATOM      5  C   UNL     1      32.923 -22.688 -17.647  0.00  0.00    +0.038 C 
ATOM      6  C   UNL     1      33.079 -22.771 -15.237  0.00  0.00    +0.092 C 
ATOM      7  C   UNL     1      32.375 -23.034 -16.412  0.00  0.00    +0.018 C 
ENDROOT
BRANCH   2   8
ATOM      8  O   UNL     1      34.710 -21.738 -18.913  0.00  0.00    -0.469 OA
BRANCH   8   9
ATOM      9  C   UNL     1      33.844 -21.064 -19.828  0.00  0.00    +0.249 C 
BRANCH   9  14
ATOM     10  N   UNL     1      35.516 -19.240 -19.619  0.00  0.00    -0.227 N 
ATOM     11  N   UNL     1      35.973 -18.094 -20.167  0.00  0.00    -0.115 NA
ATOM     12  N   UNL     1      35.221 -16.906 -22.144  0.00  0.00    -0.335 NA
ATOM     13  N   UNL     1      34.196 -16.053 -24.120  0.00  0.00    -0.332 N 
ATOM     14  C   UNL     1      34.467 -19.812 -20.286  0.00  0.00    +0.097 C 
ATOM     15  C   UNL     1      34.230 -18.977 -21.343  0.00  0.00    +0.090 C 
ATOM     16  C   UNL     1      35.185 -17.921 -21.234  0.00  0.00    +0.105 C 
ATOM     17  C   UNL     1      33.250 -19.144 -22.310  0.00  0.00    +0.016 C 
ATOM     18  C   UNL     1      33.305 -18.095 -23.233  0.00  0.00    +0.049 C 
ATOM     19  C   UNL     1      34.260 -17.056 -23.110  0.00  0.00    +0.189 C 
ATOM     20  H   UNL     1      35.905 -19.631 -18.803  0.00  0.00    +0.175 HD
ATOM     21  H   UNL     1      34.827 -15.298 -24.103  0.00  0.00    +0.145 HD
ATOM     22  H   UNL     1      33.521 -16.116 -24.834  0.00  0.00    +0.145 HD
ENDBRANCH   9  14
ENDBRANCH   8   9
ENDBRANCH   2   8
BRANCH   4  23
ATOM     23  O   UNL     1      35.042 -21.890 -14.166  0.00  0.00    -0.452 OA
BRANCH  23  25
ATOM     24 CL   UNL     1      38.049 -25.983 -13.856  0.00  0.00    -0.082 Cl
ATOM     25  C   UNL     1      35.486 -22.966 -13.417  0.00  0.00    +0.147 C 
ATOM     26  C   UNL     1      34.976 -23.159 -12.144  0.00  0.00    +0.048 C 
ATOM     27  C   UNL     1      36.429 -23.822 -13.957  0.00  0.00    +0.049 C 
ATOM     28  C   UNL     1      35.424 -24.243 -11.390  0.00  0.00    +0.072 C 
ATOM     29  C   UNL     1      36.876 -24.906 -13.203  0.00  0.00    +0.061 C 
ATOM     30  C   UNL     1      36.374 -25.116 -11.919  0.00  0.00    +0.022 C 
BRANCH  28  32
ATOM     31  N   UNL     1      34.491 -24.633  -9.001  0.00  0.00    -0.191 NA
ATOM     32  C   UNL     1      34.909 -24.457 -10.074  0.00  0.00    +0.101 C 
ENDBRANCH  28  32
ENDBRANCH  23  25
ENDBRANCH   4  23
TORSDOF 6
ENDMDL
