MODEL 1
REMARK VINA RESULT:     -11.4      0.000      0.000
REMARK  Name = 10274777
REMARK  10 active torsions:
REMARK  status: ('A' for Active; 'I' for Inactive)
REMARK    1  A    between atoms: C_2  and  C_25
REMARK    2  A    between atoms: C_5  and  O_10
REMARK    3  A    between atoms: O_10  and  C_11
REMARK    4  A    between atoms: C_11  and  C_12
REMARK    5  A    between atoms: C_12  and  C_15
REMARK    6  A    between atoms: C_17  and  C_19
REMARK    7  A    between atoms: C_25  and  C_26
REMARK    8  A    between atoms: C_26  and  O_27
REMARK    9  A    between atoms: C_26  and  C_30
REMARK   10  A    between atoms: C_30  and  O_31
REMARK                            x       y       z     vdW  Elec       q    Type
REMARK                         _______ _______ _______ _____ _____    ______ ____
ROOT
ATOM      1  S   UNL     1      31.229 -23.807 -13.359  0.00  0.00    -0.087 S 
ATOM      2  C   UNL     1      34.018 -23.543 -13.165  0.00  0.00    -0.013 C 
ATOM      3  C   UNL     1      32.824 -23.443 -13.904  0.00  0.00    +0.029 C 
ATOM      4  C   UNL     1      32.821 -23.013 -15.234  0.00  0.00    +0.040 C 
ATOM      5  C   UNL     1      34.059 -22.674 -15.831  0.00  0.00    +0.139 C 
ATOM      6  C   UNL     1      35.224 -23.201 -13.782  0.00  0.00    -0.001 C 
ATOM      7  C   UNL     1      35.246 -22.771 -15.101  0.00  0.00    +0.037 C 
ATOM      8  C   UNL     1      31.489 -22.995 -15.771  0.00  0.00    +0.010 C 
ATOM      9  C   UNL     1      30.540 -23.401 -14.864  0.00  0.00    +0.036 C 
ENDROOT
BRANCH   5  10
ATOM     10  O   UNL     1      34.122 -22.245 -17.133  0.00  0.00    -0.475 OA
BRANCH  10  11
ATOM     11  C   UNL     1      35.121 -21.280 -17.439  0.00  0.00    +0.213 C 
BRANCH  11  12
ATOM     12  C   UNL     1      35.416 -21.301 -18.936  0.00  0.00    +0.105 C 
BRANCH  12  15
ATOM     13  O   UNL     1      32.882 -19.242 -20.569  0.00  0.00    -0.449 OA
ATOM     14  N   UNL     1      35.136 -19.429 -20.527  0.00  0.00    -0.373 NA
ATOM     15  C   UNL     1      34.557 -20.344 -19.712  0.00  0.00    +0.134 C 
ATOM     16  C   UNL     1      33.207 -20.254 -19.717  0.00  0.00    +0.216 C 
ATOM     17  C   UNL     1      34.091 -18.798 -21.013  0.00  0.00    +0.277 C 
ATOM     18  C   UNL     1      32.100 -20.955 -19.059  0.00  0.00    +0.055 C 
BRANCH  17  19
ATOM     19  C   UNL     1      34.036 -17.707 -21.946  0.00  0.00    +0.066 C 
ATOM     20  C   UNL     1      33.743 -17.947 -23.292  0.00  0.00    +0.006 C 
ATOM     21  C   UNL     1      34.277 -16.400 -21.514  0.00  0.00    +0.006 C 
ATOM     22  C   UNL     1      33.690 -16.889 -24.198  0.00  0.00    +0.000 C 
ATOM     23  C   UNL     1      34.224 -15.341 -22.422  0.00  0.00    +0.000 C 
ATOM     24  C   UNL     1      33.931 -15.585 -23.763  0.00  0.00    +0.000 C 
ENDBRANCH  17  19
ENDBRANCH  12  15
ENDBRANCH  11  12
ENDBRANCH  10  11
ENDBRANCH   5  10
BRANCH   2  25
ATOM     25  C   UNL     1      34.053 -23.998 -11.741  0.00  0.00    +0.068 C 
BRANCH  25  26
ATOM     26  C   UNL     1      35.484 -24.170 -11.213  0.00  0.00    +0.218 C 
BRANCH  26  27
ATOM     27  O   UNL     1      35.704 -25.549 -10.939  0.00  0.00    -0.342 OA
ATOM     28  C   UNL     1      36.452 -26.172 -11.974  0.00  0.00    +0.175 C 
ENDBRANCH  26  27
BRANCH  26  30
ATOM     29  O   UNL     1      35.284 -23.777  -8.821  0.00  0.00    -0.248 OA
ATOM     30  C   UNL     1      35.686 -23.410  -9.917  0.00  0.00    +0.342 C 
BRANCH  30  31
ATOM     31  O   UNL     1      36.390 -22.263 -10.100  0.00  0.00    -0.479 OA
ATOM     32  H   UNL     1      37.256 -22.185  -9.750  0.00  0.00    +0.295 HD
ENDBRANCH  30  31
ENDBRANCH  26  30
ENDBRANCH  25  26
ENDBRANCH   2  25
TORSDOF 10
ENDMDL
MODEL 2
REMARK VINA RESULT:     -11.1      6.299     12.592
REMARK  Name = 10274777
REMARK  10 active torsions:
REMARK  status: ('A' for Active; 'I' for Inactive)
REMARK    1  A    between atoms: C_2  and  C_25
REMARK    2  A    between atoms: C_5  and  O_10
REMARK    3  A    between atoms: O_10  and  C_11
REMARK    4  A    between atoms: C_11  and  C_12
REMARK    5  A    between atoms: C_12  and  C_15
REMARK    6  A    between atoms: C_17  and  C_19
REMARK    7  A    between atoms: C_25  and  C_26
REMARK    8  A    between atoms: C_26  and  O_27
REMARK    9  A    between atoms: C_26  and  C_30
REMARK   10  A    between atoms: C_30  and  O_31
REMARK                            x       y       z     vdW  Elec       q    Type
REMARK                         _______ _______ _______ _____ _____    ______ ____
ROOT
ATOM      1  S   UNL     1      32.638  -9.330 -23.326  0.00  0.00    -0.087 S 
ATOM      2  C   UNL     1      31.280 -10.511 -21.171  0.00  0.00    -0.013 C 
ATOM      3  C   UNL     1      32.114 -10.613 -22.301  0.00  0.00    +0.029 C 
ATOM      4  C   UNL     1      32.627 -11.843 -22.723  0.00  0.00    +0.040 C 
ATOM      5  C   UNL     1      32.287 -13.000 -21.981  0.00  0.00    +0.139 C 
ATOM      6  C   UNL     1      30.963 -11.671 -20.460  0.00  0.00    -0.001 C 
ATOM      7  C   UNL     1      31.460 -12.903 -20.859  0.00  0.00    +0.037 C 
ATOM      8  C   UNL     1      33.446 -11.691 -23.892  0.00  0.00    +0.010 C 
ATOM      9  C   UNL     1      33.533 -10.387 -24.319  0.00  0.00    +0.036 C 
ENDROOT
BRANCH   5  10
ATOM     10  O   UNL     1      32.759 -14.237 -22.344  0.00  0.00    -0.475 OA
BRANCH  10  11
ATOM     11  C   UNL     1      33.738 -14.820 -21.494  0.00  0.00    +0.213 C 
BRANCH  11  12
ATOM     12  C   UNL     1      34.530 -15.871 -22.267  0.00  0.00    +0.105 C 
BRANCH  12  15
ATOM     13  O   UNL     1      33.351 -19.314 -21.979  0.00  0.00    -0.449 OA
ATOM     14  N   UNL     1      34.361 -17.761 -20.682  0.00  0.00    -0.373 NA
ATOM     15  C   UNL     1      34.124 -17.276 -21.925  0.00  0.00    +0.134 C 
ATOM     16  C   UNL     1      33.520 -18.185 -22.723  0.00  0.00    +0.216 C 
ATOM     17  C   UNL     1      33.880 -18.981 -20.769  0.00  0.00    +0.277 C 
ATOM     18  C   UNL     1      33.041 -18.222 -24.109  0.00  0.00    +0.055 C 
BRANCH  17  19
ATOM     19  C   UNL     1      33.830 -20.015 -19.774  0.00  0.00    +0.066 C 
ATOM     20  C   UNL     1      32.598 -20.527 -19.354  0.00  0.00    +0.006 C 
ATOM     21  C   UNL     1      35.010 -20.516 -19.219  0.00  0.00    +0.006 C 
ATOM     22  C   UNL     1      32.548 -21.531 -18.387  0.00  0.00    +0.000 C 
ATOM     23  C   UNL     1      34.960 -21.520 -18.252  0.00  0.00    +0.000 C 
ATOM     24  C   UNL     1      33.730 -22.028 -17.836  0.00  0.00    +0.000 C 
ENDBRANCH  17  19
ENDBRANCH  12  15
ENDBRANCH  11  12
ENDBRANCH  10  11
ENDBRANCH   5  10
BRANCH   2  25
ATOM     25  C   UNL     1      30.718  -9.209 -20.695  0.00  0.00    +0.068 C 
BRANCH  25  26
ATOM     26  C   UNL     1      31.503  -8.628 -19.510  0.00  0.00    +0.218 C 
BRANCH  26  27
ATOM     27  O   UNL     1      30.638  -8.558 -18.383  0.00  0.00    -0.342 OA
ATOM     28  C   UNL     1      30.645  -9.771 -17.644  0.00  0.00    +0.175 C 
ENDBRANCH  26  27
BRANCH  26  30
ATOM     29  O   UNL     1      31.850  -6.649 -20.881  0.00  0.00    -0.248 OA
ATOM     30  C   UNL     1      31.982  -7.221 -19.807  0.00  0.00    +0.342 C 
BRANCH  30  31
ATOM     31  O   UNL     1      32.568  -6.641 -18.727  0.00  0.00    -0.479 OA
ATOM     32  H   UNL     1      32.073  -6.064 -18.179  0.00  0.00    +0.295 HD
ENDBRANCH  30  31
ENDBRANCH  26  30
ENDBRANCH  25  26
ENDBRANCH   2  25
TORSDOF 10
ENDMDL
MODEL 3
REMARK VINA RESULT:     -11.0      2.995      4.756
REMARK  Name = 10274777
REMARK  10 active torsions:
REMARK  status: ('A' for Active; 'I' for Inactive)
REMARK    1  A    between atoms: C_2  and  C_25
REMARK    2  A    between atoms: C_5  and  O_10
REMARK    3  A    between atoms: O_10  and  C_11
REMARK    4  A    between atoms: C_11  and  C_12
REMARK    5  A    between atoms: C_12  and  C_15
REMARK    6  A    between atoms: C_17  and  C_19
REMARK    7  A    between atoms: C_25  and  C_26
REMARK    8  A    between atoms: C_26  and  O_27
REMARK    9  A    between atoms: C_26  and  C_30
REMARK   10  A    between atoms: C_30  and  O_31
REMARK                            x       y       z     vdW  Elec       q    Type
REMARK                         _______ _______ _______ _____ _____    ______ ____
ROOT
ATOM      1  S   UNL     1      35.011 -22.767 -14.666  0.00  0.00    -0.087 S 
ATOM      2  C   UNL     1      32.803 -22.685 -16.399  0.00  0.00    -0.013 C 
ATOM      3  C   UNL     1      34.143 -22.371 -16.103  0.00  0.00    +0.029 C 
ATOM      4  C   UNL     1      34.945 -21.663 -17.003  0.00  0.00    +0.040 C 
ATOM      5  C   UNL     1      34.374 -21.264 -18.235  0.00  0.00    +0.139 C 
ATOM      6  C   UNL     1      32.270 -22.278 -17.624  0.00  0.00    -0.001 C 
ATOM      7  C   UNL     1      33.045 -21.574 -18.534  0.00  0.00    +0.037 C 
ATOM      8  C   UNL     1      36.266 -21.465 -16.477  0.00  0.00    +0.010 C 
ATOM      9  C   UNL     1      36.432 -22.010 -15.226  0.00  0.00    +0.036 C 
ENDROOT
BRANCH   5  10
ATOM     10  O   UNL     1      35.110 -20.566 -19.162  0.00  0.00    -0.475 OA
BRANCH  10  11
ATOM     11  C   UNL     1      34.383 -19.733 -20.056  0.00  0.00    +0.213 C 
BRANCH  11  12
ATOM     12  C   UNL     1      35.331 -18.735 -20.714  0.00  0.00    +0.105 C 
BRANCH  12  15
ATOM     13  O   UNL     1      33.652 -17.280 -23.610  0.00  0.00    -0.449 OA
ATOM     14  N   UNL     1      34.556 -16.585 -21.657  0.00  0.00    -0.373 NA
ATOM     15  C   UNL     1      34.669 -17.928 -21.794  0.00  0.00    +0.134 C 
ATOM     16  C   UNL     1      34.135 -18.372 -22.955  0.00  0.00    +0.216 C 
ATOM     17  C   UNL     1      33.941 -16.249 -22.769  0.00  0.00    +0.277 C 
ATOM     18  C   UNL     1      33.976 -19.672 -23.615  0.00  0.00    +0.055 C 
BRANCH  17  19
ATOM     19  C   UNL     1      33.530 -14.951 -23.228  0.00  0.00    +0.066 C 
ATOM     20  C   UNL     1      32.974 -14.800 -24.502  0.00  0.00    +0.006 C 
ATOM     21  C   UNL     1      33.684 -13.832 -22.405  0.00  0.00    +0.006 C 
ATOM     22  C   UNL     1      32.574 -13.541 -24.949  0.00  0.00    +0.000 C 
ATOM     23  C   UNL     1      33.284 -12.573 -22.852  0.00  0.00    +0.000 C 
ATOM     24  C   UNL     1      32.729 -12.427 -24.123  0.00  0.00    +0.000 C 
ENDBRANCH  17  19
ENDBRANCH  12  15
ENDBRANCH  11  12
ENDBRANCH  10  11
ENDBRANCH   5  10
BRANCH   2  25
ATOM     25  C   UNL     1      31.922 -23.443 -15.457  0.00  0.00    +0.068 C 
BRANCH  25  26
ATOM     26  C   UNL     1      30.796 -22.573 -14.878  0.00  0.00    +0.218 C 
BRANCH  26  27
ATOM     27  O   UNL     1      30.799 -22.713 -13.462  0.00  0.00    -0.342 OA
ATOM     28  C   UNL     1      31.680 -23.745 -13.042  0.00  0.00    +0.175 C 
ENDBRANCH  26  27
BRANCH  26  30
ATOM     29  O   UNL     1      28.872 -24.054 -15.028  0.00  0.00    -0.248 OA
ATOM     30  C   UNL     1      29.440 -23.027 -15.378  0.00  0.00    +0.342 C 
BRANCH  30  31
ATOM     31  O   UNL     1      28.899 -22.149 -16.261  0.00  0.00    -0.479 OA
ATOM     32  H   UNL     1      27.974 -21.995 -16.262  0.00  0.00    +0.295 HD
ENDBRANCH  30  31
ENDBRANCH  26  30
ENDBRANCH  25  26
ENDBRANCH   2  25
TORSDOF 10
ENDMDL
MODEL 4
REMARK VINA RESULT:     -10.6      2.358      4.016
REMARK  Name = 10274777
REMARK  10 active torsions:
REMARK  status: ('A' for Active; 'I' for Inactive)
REMARK    1  A    between atoms: C_2  and  C_25
REMARK    2  A    between atoms: C_5  and  O_10
REMARK    3  A    between atoms: O_10  and  C_11
REMARK    4  A    between atoms: C_11  and  C_12
REMARK    5  A    between atoms: C_12  and  C_15
REMARK    6  A    between atoms: C_17  and  C_19
REMARK    7  A    between atoms: C_25  and  C_26
REMARK    8  A    between atoms: C_26  and  O_27
REMARK    9  A    between atoms: C_26  and  C_30
REMARK   10  A    between atoms: C_30  and  O_31
REMARK                            x       y       z     vdW  Elec       q    Type
REMARK                         _______ _______ _______ _____ _____    ______ ____
ROOT
ATOM      1  S   UNL     1      34.785 -24.064 -11.941  0.00  0.00    -0.087 S 
ATOM      2  C   UNL     1      32.941 -23.336 -13.930  0.00  0.00    -0.013 C 
ATOM      3  C   UNL     1      34.267 -23.458 -13.470  0.00  0.00    +0.029 C 
ATOM      4  C   UNL     1      35.354 -23.075 -14.260  0.00  0.00    +0.040 C 
ATOM      5  C   UNL     1      35.093 -22.554 -15.550  0.00  0.00    +0.139 C 
ATOM      6  C   UNL     1      32.717 -22.818 -15.207  0.00  0.00    -0.001 C 
ATOM      7  C   UNL     1      33.780 -22.431 -16.011  0.00  0.00    +0.037 C 
ATOM      8  C   UNL     1      36.597 -23.293 -13.575  0.00  0.00    +0.010 C 
ATOM      9  C   UNL     1      36.429 -23.823 -12.317  0.00  0.00    +0.036 C 
ENDROOT
BRANCH   5  10
ATOM     10  O   UNL     1      36.117 -22.160 -16.374  0.00  0.00    -0.475 OA
BRANCH  10  11
ATOM     11  C   UNL     1      35.887 -21.004 -17.170  0.00  0.00    +0.213 C 
BRANCH  11  12
ATOM     12  C   UNL     1      35.690 -21.414 -18.627  0.00  0.00    +0.105 C 
BRANCH  12  15
ATOM     13  O   UNL     1      33.055 -19.453 -20.221  0.00  0.00    -0.449 OA
ATOM     14  N   UNL     1      35.315 -19.489 -20.132  0.00  0.00    -0.373 NA
ATOM     15  C   UNL     1      34.783 -20.480 -19.377  0.00  0.00    +0.134 C 
ATOM     16  C   UNL     1      33.431 -20.482 -19.411  0.00  0.00    +0.216 C 
ATOM     17  C   UNL     1      34.239 -18.906 -20.613  0.00  0.00    +0.277 C 
ATOM     18  C   UNL     1      32.361 -21.289 -18.816  0.00  0.00    +0.055 C 
BRANCH  17  19
ATOM     19  C   UNL     1      34.129 -17.777 -21.493  0.00  0.00    +0.066 C 
ATOM     20  C   UNL     1      34.144 -16.478 -20.974  0.00  0.00    +0.006 C 
ATOM     21  C   UNL     1      34.006 -17.967 -22.872  0.00  0.00    +0.006 C 
ATOM     22  C   UNL     1      34.037 -15.380 -21.827  0.00  0.00    +0.000 C 
ATOM     23  C   UNL     1      33.899 -16.869 -23.725  0.00  0.00    +0.000 C 
ATOM     24  C   UNL     1      33.915 -15.576 -23.204  0.00  0.00    +0.000 C 
ENDBRANCH  17  19
ENDBRANCH  12  15
ENDBRANCH  11  12
ENDBRANCH  10  11
ENDBRANCH   5  10
BRANCH   2  25
ATOM     25  C   UNL     1      31.759 -23.739 -13.108  0.00  0.00    +0.068 C 
BRANCH  25  26
ATOM     26  C   UNL     1      30.463 -23.794 -13.930  0.00  0.00    +0.218 C 
BRANCH  26  27
ATOM     27  O   UNL     1      29.772 -22.560 -13.771  0.00  0.00    -0.342 OA
ATOM     28  C   UNL     1      28.654 -22.474 -14.643  0.00  0.00    +0.175 C 
ENDBRANCH  26  27
BRANCH  26  30
ATOM     29  O   UNL     1      29.044 -25.758 -14.145  0.00  0.00    -0.248 OA
ATOM     30  C   UNL     1      29.547 -24.896 -13.436  0.00  0.00    +0.342 C 
BRANCH  30  31
ATOM     31  O   UNL     1      29.352 -24.837 -12.093  0.00  0.00    -0.479 OA
ATOM     32  H   UNL     1      28.575 -24.442 -11.750  0.00  0.00    +0.295 HD
ENDBRANCH  30  31
ENDBRANCH  26  30
ENDBRANCH  25  26
ENDBRANCH   2  25
TORSDOF 10
ENDMDL
MODEL 5
REMARK VINA RESULT:     -10.5      6.257     13.411
REMARK  Name = 10274777
REMARK  10 active torsions:
REMARK  status: ('A' for Active; 'I' for Inactive)
REMARK    1  A    between atoms: C_2  and  C_25
REMARK    2  A    between atoms: C_5  and  O_10
REMARK    3  A    between atoms: O_10  and  C_11
REMARK    4  A    between atoms: C_11  and  C_12
REMARK    5  A    between atoms: C_12  and  C_15
REMARK    6  A    between atoms: C_17  and  C_19
REMARK    7  A    between atoms: C_25  and  C_26
REMARK    8  A    between atoms: C_26  and  O_27
REMARK    9  A    between atoms: C_26  and  C_30
REMARK   10  A    between atoms: C_30  and  O_31
REMARK                            x       y       z     vdW  Elec       q    Type
REMARK                         _______ _______ _______ _____ _____    ______ ____
ROOT
ATOM      1  S   UNL     1      30.810  -9.849 -20.546  0.00  0.00    -0.087 S 
ATOM      2  C   UNL     1      32.364 -10.176 -22.862  0.00  0.00    -0.013 C 
ATOM      3  C   UNL     1      31.730 -10.709 -21.723  0.00  0.00    +0.029 C 
ATOM      4  C   UNL     1      31.793 -12.073 -21.422  0.00  0.00    +0.040 C 
ATOM      5  C   UNL     1      32.516 -12.918 -22.298  0.00  0.00    +0.139 C 
ATOM      6  C   UNL     1      33.070 -11.036 -23.706  0.00  0.00    -0.001 C 
ATOM      7  C   UNL     1      33.147 -12.393 -23.428  0.00  0.00    +0.037 C 
ATOM      8  C   UNL     1      31.073 -12.372 -20.217  0.00  0.00    +0.010 C 
ATOM      9  C   UNL     1      30.497 -11.262 -19.647  0.00  0.00    +0.036 C 
ENDROOT
BRANCH   5  10
ATOM     10  O   UNL     1      32.615 -14.266 -22.057  0.00  0.00    -0.475 OA
BRANCH  10  11
ATOM     11  C   UNL     1      33.741 -14.698 -21.304  0.00  0.00    +0.213 C 
BRANCH  11  12
ATOM     12  C   UNL     1      34.553 -15.700 -22.120  0.00  0.00    +0.105 C 
BRANCH  12  15
ATOM     13  O   UNL     1      33.439 -19.175 -22.038  0.00  0.00    -0.449 OA
ATOM     14  N   UNL     1      34.313 -17.648 -20.617  0.00  0.00    -0.373 NA
ATOM     15  C   UNL     1      34.157 -17.124 -21.857  0.00  0.00    +0.134 C 
ATOM     16  C   UNL     1      33.635 -18.017 -22.728  0.00  0.00    +0.216 C 
ATOM     17  C   UNL     1      33.869 -18.874 -20.781  0.00  0.00    +0.277 C 
ATOM     18  C   UNL     1      33.260 -18.014 -24.146  0.00  0.00    +0.055 C 
BRANCH  17  19
ATOM     19  C   UNL     1      33.771 -19.944 -19.829  0.00  0.00    +0.066 C 
ATOM     20  C   UNL     1      34.929 -20.549 -19.330  0.00  0.00    +0.006 C 
ATOM     21  C   UNL     1      32.519 -20.388 -19.395  0.00  0.00    +0.006 C 
ATOM     22  C   UNL     1      34.835 -21.589 -18.405  0.00  0.00    +0.000 C 
ATOM     23  C   UNL     1      32.425 -21.428 -18.469  0.00  0.00    +0.000 C 
ATOM     24  C   UNL     1      33.583 -22.029 -17.975  0.00  0.00    +0.000 C 
ENDBRANCH  17  19
ENDBRANCH  12  15
ENDBRANCH  11  12
ENDBRANCH  10  11
ENDBRANCH   5  10
BRANCH   2  25
ATOM     25  C   UNL     1      32.313  -8.722 -23.211  0.00  0.00    +0.068 C 
BRANCH  25  26
ATOM     26  C   UNL     1      33.611  -8.228 -23.863  0.00  0.00    +0.218 C 
BRANCH  26  27
ATOM     27  O   UNL     1      34.361  -7.506 -22.892  0.00  0.00    -0.342 OA
ATOM     28  C   UNL     1      33.511  -6.829 -21.977  0.00  0.00    +0.175 C 
ENDBRANCH  26  27
BRANCH  26  30
ATOM     29  O   UNL     1      34.173  -6.774 -25.730  0.00  0.00    -0.248 OA
ATOM     30  C   UNL     1      33.323  -7.281 -25.011  0.00  0.00    +0.342 C 
BRANCH  30  31
ATOM     31  O   UNL     1      31.992  -7.064 -25.174  0.00  0.00    -0.479 OA
ATOM     32  H   UNL     1      31.402  -7.216 -24.461  0.00  0.00    +0.295 HD
ENDBRANCH  30  31
ENDBRANCH  26  30
ENDBRANCH  25  26
ENDBRANCH   2  25
TORSDOF 10
ENDMDL
MODEL 6
REMARK VINA RESULT:     -10.4      7.356     11.541
REMARK  Name = 10274777
REMARK  10 active torsions:
REMARK  status: ('A' for Active; 'I' for Inactive)
REMARK    1  A    between atoms: C_2  and  C_25
REMARK    2  A    between atoms: C_5  and  O_10
REMARK    3  A    between atoms: O_10  and  C_11
REMARK    4  A    between atoms: C_11  and  C_12
REMARK    5  A    between atoms: C_12  and  C_15
REMARK    6  A    between atoms: C_17  and  C_19
REMARK    7  A    between atoms: C_25  and  C_26
REMARK    8  A    between atoms: C_26  and  O_27
REMARK    9  A    between atoms: C_26  and  C_30
REMARK   10  A    between atoms: C_30  and  O_31
REMARK                            x       y       z     vdW  Elec       q    Type
REMARK                         _______ _______ _______ _____ _____    ______ ____
ROOT
ATOM      1  S   UNL     1      33.553 -15.747 -24.432  0.00  0.00    -0.087 S 
ATOM      2  C   UNL     1      33.973 -15.830 -21.656  0.00  0.00    -0.013 C 
ATOM      3  C   UNL     1      33.454 -15.195 -22.801  0.00  0.00    +0.029 C 
ATOM      4  C   UNL     1      32.767 -13.980 -22.717  0.00  0.00    +0.040 C 
ATOM      5  C   UNL     1      32.601 -13.394 -21.439  0.00  0.00    +0.139 C 
ATOM      6  C   UNL     1      33.792 -15.225 -20.410  0.00  0.00    -0.001 C 
ATOM      7  C   UNL     1      33.114 -14.020 -20.300  0.00  0.00    +0.037 C 
ATOM      8  C   UNL     1      32.338 -13.535 -24.012  0.00  0.00    +0.010 C 
ATOM      9  C   UNL     1      32.698 -14.396 -25.021  0.00  0.00    +0.036 C 
ENDROOT
BRANCH   5  10
ATOM     10  O   UNL     1      31.935 -12.202 -21.289  0.00  0.00    -0.475 OA
BRANCH  10  11
ATOM     11  C   UNL     1      30.941 -12.151 -20.275  0.00  0.00    +0.213 C 
BRANCH  11  12
ATOM     12  C   UNL     1      30.015 -10.963 -20.522  0.00  0.00    +0.105 C 
BRANCH  12  15
ATOM     13  O   UNL     1      31.771  -7.787 -20.120  0.00  0.00    -0.449 OA
ATOM     14  N   UNL     1      31.106  -9.149 -21.799  0.00  0.00    -0.373 NA
ATOM     15  C   UNL     1      30.751  -9.656 -20.594  0.00  0.00    +0.134 C 
ATOM     16  C   UNL     1      31.137  -8.861 -19.570  0.00  0.00    +0.216 C 
ATOM     17  C   UNL     1      31.712  -8.033 -21.458  0.00  0.00    +0.277 C 
ATOM     18  C   UNL     1      31.030  -8.895 -18.107  0.00  0.00    +0.055 C 
BRANCH  17  19
ATOM     19  C   UNL     1      32.321  -7.034 -22.291  0.00  0.00    +0.066 C 
ATOM     20  C   UNL     1      33.658  -7.163 -22.679  0.00  0.00    +0.006 C 
ATOM     21  C   UNL     1      31.582  -5.927 -22.717  0.00  0.00    +0.006 C 
ATOM     22  C   UNL     1      34.251  -6.194 -23.488  0.00  0.00    +0.000 C 
ATOM     23  C   UNL     1      32.176  -4.957 -23.526  0.00  0.00    +0.000 C 
ATOM     24  C   UNL     1      33.509  -5.090 -23.911  0.00  0.00    +0.000 C 
ENDBRANCH  17  19
ENDBRANCH  12  15
ENDBRANCH  11  12
ENDBRANCH  10  11
ENDBRANCH   5  10
BRANCH   2  25
ATOM     25  C   UNL     1      34.711 -17.130 -21.716  0.00  0.00    +0.068 C 
BRANCH  25  26
ATOM     26  C   UNL     1      34.543 -17.959 -20.435  0.00  0.00    +0.218 C 
BRANCH  26  27
ATOM     27  O   UNL     1      35.827 -18.402 -20.010  0.00  0.00    -0.342 OA
ATOM     28  C   UNL     1      36.761 -18.392 -21.080  0.00  0.00    +0.175 C 
ENDBRANCH  26  27
BRANCH  26  30
ATOM     29  O   UNL     1      33.394 -20.018 -19.836  0.00  0.00    -0.248 OA
ATOM     30  C   UNL     1      33.697 -19.192 -20.687  0.00  0.00    +0.342 C 
BRANCH  30  31
ATOM     31  O   UNL     1      33.286 -19.276 -21.979  0.00  0.00    -0.479 OA
ATOM     32  H   UNL     1      33.914 -19.224 -22.674  0.00  0.00    +0.295 HD
ENDBRANCH  30  31
ENDBRANCH  26  30
ENDBRANCH  25  26
ENDBRANCH   2  25
TORSDOF 10
ENDMDL
MODEL 7
REMARK VINA RESULT:     -10.1      2.982      4.482
REMARK  Name = 10274777
REMARK  10 active torsions:
REMARK  status: ('A' for Active; 'I' for Inactive)
REMARK    1  A    between atoms: C_2  and  C_25
REMARK    2  A    between atoms: C_5  and  O_10
REMARK    3  A    between atoms: O_10  and  C_11
REMARK    4  A    between atoms: C_11  and  C_12
REMARK    5  A    between atoms: C_12  and  C_15
REMARK    6  A    between atoms: C_17  and  C_19
REMARK    7  A    between atoms: C_25  and  C_26
REMARK    8  A    between atoms: C_26  and  O_27
REMARK    9  A    between atoms: C_26  and  C_30
REMARK   10  A    between atoms: C_30  and  O_31
REMARK                            x       y       z     vdW  Elec       q    Type
REMARK                         _______ _______ _______ _____ _____    ______ ____
ROOT
ATOM      1  S   UNL     1      35.265 -22.668 -14.313  0.00  0.00    -0.087 S 
ATOM      2  C   UNL     1      32.713 -22.929 -15.456  0.00  0.00    -0.013 C 
ATOM      3  C   UNL     1      34.068 -22.555 -15.549  0.00  0.00    +0.029 C 
ATOM      4  C   UNL     1      34.601 -22.024 -16.727  0.00  0.00    +0.040 C 
ATOM      5  C   UNL     1      33.740 -21.867 -17.840  0.00  0.00    +0.139 C 
ATOM      6  C   UNL     1      31.890 -22.762 -16.572  0.00  0.00    -0.001 C 
ATOM      7  C   UNL     1      32.396 -22.236 -17.752  0.00  0.00    +0.037 C 
ATOM      8  C   UNL     1      35.996 -21.721 -16.575  0.00  0.00    +0.010 C 
ATOM      9  C   UNL     1      36.476 -22.021 -15.322  0.00  0.00    +0.036 C 
ENDROOT
BRANCH   5  10
ATOM     10  O   UNL     1      34.204 -21.351 -19.025  0.00  0.00    -0.475 OA
BRANCH  10  11
ATOM     11  C   UNL     1      33.475 -20.260 -19.572  0.00  0.00    +0.213 C 
BRANCH  11  12
ATOM     12  C   UNL     1      33.802 -20.116 -21.057  0.00  0.00    +0.105 C 
BRANCH  12  15
ATOM     13  O   UNL     1      35.184 -16.798 -21.695  0.00  0.00    -0.449 OA
ATOM     14  N   UNL     1      33.314 -17.972 -22.186  0.00  0.00    -0.373 NA
ATOM     15  C   UNL     1      34.169 -18.711 -21.439  0.00  0.00    +0.134 C 
ATOM     16  C   UNL     1      35.298 -18.033 -21.131  0.00  0.00    +0.216 C 
ATOM     17  C   UNL     1      33.969 -16.839 -22.309  0.00  0.00    +0.277 C 
ATOM     18  C   UNL     1      36.526 -18.313 -20.378  0.00  0.00    +0.055 C 
BRANCH  17  19
ATOM     19  C   UNL     1      33.591 -15.637 -22.997  0.00  0.00    +0.066 C 
ATOM     20  C   UNL     1      33.754 -14.393 -22.379  0.00  0.00    +0.006 C 
ATOM     21  C   UNL     1      33.057 -15.701 -24.287  0.00  0.00    +0.006 C 
ATOM     22  C   UNL     1      33.387 -13.224 -23.045  0.00  0.00    +0.000 C 
ATOM     23  C   UNL     1      32.690 -14.532 -24.954  0.00  0.00    +0.000 C 
ATOM     24  C   UNL     1      32.854 -13.294 -24.334  0.00  0.00    +0.000 C 
ENDBRANCH  17  19
ENDBRANCH  12  15
ENDBRANCH  11  12
ENDBRANCH  10  11
ENDBRANCH   5  10
BRANCH   2  25
ATOM     25  C   UNL     1      32.115 -23.501 -14.210  0.00  0.00    +0.068 C 
BRANCH  25  26
ATOM     26  C   UNL     1      30.590 -23.645 -14.304  0.00  0.00    +0.218 C 
BRANCH  26  27
ATOM     27  O   UNL     1      29.997 -22.382 -14.027  0.00  0.00    -0.342 OA
ATOM     28  C   UNL     1      28.646 -22.333 -14.464  0.00  0.00    +0.175 C 
ENDBRANCH  26  27
BRANCH  26  30
ATOM     29  O   UNL     1      30.253 -24.544 -12.068  0.00  0.00    -0.248 OA
ATOM     30  C   UNL     1      30.068 -24.629 -13.275  0.00  0.00    +0.342 C 
BRANCH  30  31
ATOM     31  O   UNL     1      29.341 -25.626 -13.843  0.00  0.00    -0.479 OA
ATOM     32  H   UNL     1      29.569 -26.522 -13.681  0.00  0.00    +0.295 HD
ENDBRANCH  30  31
ENDBRANCH  26  30
ENDBRANCH  25  26
ENDBRANCH   2  25
TORSDOF 10
ENDMDL
MODEL 8
REMARK VINA RESULT:     -10.1      2.761      9.898
REMARK  Name = 10274777
REMARK  10 active torsions:
REMARK  status: ('A' for Active; 'I' for Inactive)
REMARK    1  A    between atoms: C_2  and  C_25
REMARK    2  A    between atoms: C_5  and  O_10
REMARK    3  A    between atoms: O_10  and  C_11
REMARK    4  A    between atoms: C_11  and  C_12
REMARK    5  A    between atoms: C_12  and  C_15
REMARK    6  A    between atoms: C_17  and  C_19
REMARK    7  A    between atoms: C_25  and  C_26
REMARK    8  A    between atoms: C_26  and  O_27
REMARK    9  A    between atoms: C_26  and  C_30
REMARK   10  A    between atoms: C_30  and  O_31
REMARK                            x       y       z     vdW  Elec       q    Type
REMARK                         _______ _______ _______ _____ _____    ______ ____
ROOT
ATOM      1  S   UNL     1      31.704 -20.198 -19.863  0.00  0.00    -0.087 S 
ATOM      2  C   UNL     1      34.140 -19.055 -20.670  0.00  0.00    -0.013 C 
ATOM      3  C   UNL     1      33.411 -19.949 -19.861  0.00  0.00    +0.029 C 
ATOM      4  C   UNL     1      34.043 -20.768 -18.922  0.00  0.00    +0.040 C 
ATOM      5  C   UNL     1      35.451 -20.681 -18.799  0.00  0.00    +0.139 C 
ATOM      6  C   UNL     1      35.527 -18.993 -20.525  0.00  0.00    -0.001 C 
ATOM      7  C   UNL     1      36.178 -19.796 -19.599  0.00  0.00    +0.037 C 
ATOM      8  C   UNL     1      33.094 -21.586 -18.223  0.00  0.00    +0.010 C 
ATOM      9  C   UNL     1      31.799 -21.376 -18.635  0.00  0.00    +0.036 C 
ENDROOT
BRANCH   5  10
ATOM     10  O   UNL     1      36.131 -21.459 -17.895  0.00  0.00    -0.475 OA
BRANCH  10  11
ATOM     11  C   UNL     1      36.188 -20.981 -16.558  0.00  0.00    +0.213 C 
BRANCH  11  12
ATOM     12  C   UNL     1      36.692 -22.088 -15.636  0.00  0.00    +0.105 C 
BRANCH  12  15
ATOM     13  O   UNL     1      34.399 -24.349 -13.917  0.00  0.00    -0.449 OA
ATOM     14  N   UNL     1      34.300 -22.433 -15.115  0.00  0.00    -0.373 NA
ATOM     15  C   UNL     1      35.577 -22.870 -15.002  0.00  0.00    +0.134 C 
ATOM     16  C   UNL     1      35.666 -24.016 -14.289  0.00  0.00    +0.216 C 
ATOM     17  C   UNL     1      33.638 -23.353 -14.449  0.00  0.00    +0.277 C 
ATOM     18  C   UNL     1      36.745 -24.912 -13.861  0.00  0.00    +0.055 C 
BRANCH  17  19
ATOM     19  C   UNL     1      32.227 -23.462 -14.201  0.00  0.00    +0.066 C 
ATOM     20  C   UNL     1      31.762 -24.166 -13.086  0.00  0.00    +0.006 C 
ATOM     21  C   UNL     1      31.311 -22.867 -15.073  0.00  0.00    +0.006 C 
ATOM     22  C   UNL     1      30.393 -24.273 -12.845  0.00  0.00    +0.000 C 
ATOM     23  C   UNL     1      29.941 -22.974 -14.831  0.00  0.00    +0.000 C 
ATOM     24  C   UNL     1      29.482 -23.677 -13.717  0.00  0.00    +0.000 C 
ENDBRANCH  17  19
ENDBRANCH  12  15
ENDBRANCH  11  12
ENDBRANCH  10  11
ENDBRANCH   5  10
BRANCH   2  25
ATOM     25  C   UNL     1      33.490 -18.168 -21.684  0.00  0.00    +0.068 C 
BRANCH  25  26
ATOM     26  C   UNL     1      34.511 -17.471 -22.594  0.00  0.00    +0.218 C 
BRANCH  26  27
ATOM     27  O   UNL     1      34.927 -16.263 -21.968  0.00  0.00    -0.342 OA
ATOM     28  C   UNL     1      33.816 -15.509 -21.503  0.00  0.00    +0.175 C 
ENDBRANCH  26  27
BRANCH  26  30
ATOM     29  O   UNL     1      34.273 -16.186 -24.646  0.00  0.00    -0.248 OA
ATOM     30  C   UNL     1      33.895 -17.104 -23.929  0.00  0.00    +0.342 C 
BRANCH  30  31
ATOM     31  O   UNL     1      32.869 -17.928 -24.264  0.00  0.00    -0.479 OA
ATOM     32  H   UNL     1      32.066 -17.896 -23.780  0.00  0.00    +0.295 HD
ENDBRANCH  30  31
ENDBRANCH  26  30
ENDBRANCH  25  26
ENDBRANCH   2  25
TORSDOF 10
ENDMDL
MODEL 9
REMARK VINA RESULT:      -9.8      9.594     15.174
REMARK  Name = 10274777
REMARK  10 active torsions:
REMARK  status: ('A' for Active; 'I' for Inactive)
REMARK    1  A    between atoms: C_2  and  C_25
REMARK    2  A    between atoms: C_5  and  O_10
REMARK    3  A    between atoms: O_10  and  C_11
REMARK    4  A    between atoms: C_11  and  C_12
REMARK    5  A    between atoms: C_12  and  C_15
REMARK    6  A    between atoms: C_17  and  C_19
REMARK    7  A    between atoms: C_25  and  C_26
REMARK    8  A    between atoms: C_26  and  O_27
REMARK    9  A    between atoms: C_26  and  C_30
REMARK   10  A    between atoms: C_30  and  O_31
REMARK                            x       y       z     vdW  Elec       q    Type
REMARK                         _______ _______ _______ _____ _____    ______ ____
ROOT
ATOM      1  S   UNL     1      33.261  -5.086 -23.996  0.00  0.00    -0.087 S 
ATOM      2  C   UNL     1      31.985  -6.675 -22.063  0.00  0.00    -0.013 C 
ATOM      3  C   UNL     1      32.659  -6.541 -23.293  0.00  0.00    +0.029 C 
ATOM      4  C   UNL     1      32.917  -7.646 -24.110  0.00  0.00    +0.040 C 
ATOM      5  C   UNL     1      32.483  -8.919 -23.670  0.00  0.00    +0.139 C 
ATOM      6  C   UNL     1      31.570  -7.945 -21.657  0.00  0.00    -0.001 C 
ATOM      7  C   UNL     1      31.815  -9.057 -22.450  0.00  0.00    +0.037 C 
ATOM      8  C   UNL     1      33.611  -7.257 -25.305  0.00  0.00    +0.010 C 
ATOM      9  C   UNL     1      33.856  -5.906 -25.367  0.00  0.00    +0.036 C 
ENDROOT
BRANCH   5  10
ATOM     10  O   UNL     1      32.706 -10.043 -24.426  0.00  0.00    -0.475 OA
BRANCH  10  11
ATOM     11  C   UNL     1      33.642 -10.981 -23.912  0.00  0.00    +0.213 C 
BRANCH  11  12
ATOM     12  C   UNL     1      32.936 -11.947 -22.965  0.00  0.00    +0.105 C 
BRANCH  12  15
ATOM     13  O   UNL     1      32.849 -15.217 -24.586  0.00  0.00    -0.449 OA
ATOM     14  N   UNL     1      33.527 -14.323 -22.622  0.00  0.00    -0.373 NA
ATOM     15  C   UNL     1      33.001 -13.373 -23.432  0.00  0.00    +0.134 C 
ATOM     16  C   UNL     1      32.586 -13.880 -24.616  0.00  0.00    +0.216 C 
ATOM     17  C   UNL     1      33.412 -15.404 -23.361  0.00  0.00    +0.277 C 
ATOM     18  C   UNL     1      31.962 -13.350 -25.832  0.00  0.00    +0.055 C 
BRANCH  17  19
ATOM     19  C   UNL     1      33.793 -16.757 -23.063  0.00  0.00    +0.066 C 
ATOM     20  C   UNL     1      34.661 -17.025 -22.000  0.00  0.00    +0.006 C 
ATOM     21  C   UNL     1      33.300 -17.813 -23.834  0.00  0.00    +0.006 C 
ATOM     22  C   UNL     1      35.032 -18.337 -21.711  0.00  0.00    +0.000 C 
ATOM     23  C   UNL     1      33.671 -19.126 -23.544  0.00  0.00    +0.000 C 
ATOM     24  C   UNL     1      34.537 -19.389 -22.483  0.00  0.00    +0.000 C 
ENDBRANCH  17  19
ENDBRANCH  12  15
ENDBRANCH  11  12
ENDBRANCH  10  11
ENDBRANCH   5  10
BRANCH   2  25
ATOM     25  C   UNL     1      31.697  -5.512 -21.168  0.00  0.00    +0.068 C 
BRANCH  25  26
ATOM     26  C   UNL     1      30.815  -5.896 -19.972  0.00  0.00    +0.218 C 
BRANCH  26  27
ATOM     27  O   UNL     1      29.767  -4.940 -19.855  0.00  0.00    -0.342 OA
ATOM     28  C   UNL     1      29.598  -4.204 -21.058  0.00  0.00    +0.175 C 
ENDBRANCH  26  27
BRANCH  26  30
ATOM     29  O   UNL     1      31.296  -5.224 -17.684  0.00  0.00    -0.248 OA
ATOM     30  C   UNL     1      31.603  -5.869 -18.678  0.00  0.00    +0.342 C 
BRANCH  30  31
ATOM     31  O   UNL     1      32.701  -6.667 -18.730  0.00  0.00    -0.479 OA
ATOM     32  H   UNL     1      32.818  -7.256 -19.451  0.00  0.00    +0.295 HD
ENDBRANCH  30  31
ENDBRANCH  26  30
ENDBRANCH  25  26
ENDBRANCH   2  25
TORSDOF 10
ENDMDL
