MODEL 1
REMARK VINA RESULT:     -10.9      0.000      0.000
REMARK  Name = 42611257
REMARK  7 active torsions:
REMARK  status: ('A' for Active; 'I' for Inactive)
REMARK    1  A    between atoms: C_2  and  C_6
REMARK    2  A    between atoms: C_2  and  C_22
REMARK    3  A    between atoms: C_10  and  C_14
REMARK    4  A    between atoms: C_23  and  N_28
REMARK    5  A    between atoms: N_28  and  S_30
REMARK    6  A    between atoms: S_30  and  C_33
REMARK    7  A    between atoms: C_33  and  C_34
REMARK                            x       y       z     vdW  Elec       q    Type
REMARK                         _______ _______ _______ _____ _____    ______ ____
ROOT
ATOM      1  O   UNL     1      34.287 -12.590 -21.418  0.00  0.00    -0.286 OA
ATOM      2  C   UNL     1      33.189 -12.712 -22.003  0.00  0.00    +0.201 C 
ENDROOT
BRANCH   2   6
ATOM      3  N   UNL     1      32.482 -14.601 -24.994  0.00  0.00    -0.297 N 
ATOM      4  N   UNL     1      32.993 -16.917 -24.577  0.00  0.00    -0.229 NA
ATOM      5  C   UNL     1      33.249 -15.096 -22.956  0.00  0.00    +0.036 C 
ATOM      6  C   UNL     1      33.002 -13.700 -23.027  0.00  0.00    +0.056 C 
ATOM      7  C   UNL     1      32.915 -15.628 -24.198  0.00  0.00    +0.132 C 
ATOM      8  C   UNL     1      33.721 -15.986 -21.977  0.00  0.00    +0.004 C 
ATOM      9  C   UNL     1      32.530 -13.424 -24.292  0.00  0.00    +0.066 C 
ATOM     10  C   UNL     1      33.821 -17.334 -22.318  0.00  0.00    +0.019 C 
ATOM     11  C   UNL     1      33.453 -17.729 -23.598  0.00  0.00    +0.100 C 
ATOM     12  H   UNL     1      32.183 -14.694 -25.927  0.00  0.00    +0.154 HD
BRANCH  10  14
ATOM     13 CL   UNL     1      35.793 -21.314 -18.350  0.00  0.00    -0.082 Cl
ATOM     14  C   UNL     1      34.301 -18.300 -21.356  0.00  0.00    +0.002 C 
ATOM     15  C   UNL     1      35.639 -18.289 -20.963  0.00  0.00    +0.001 C 
ATOM     16  C   UNL     1      33.424 -19.244 -20.821  0.00  0.00    +0.001 C 
ATOM     17  C   UNL     1      36.100 -19.221 -20.033  0.00  0.00    +0.011 C 
ATOM     18  C   UNL     1      33.885 -20.176 -19.892  0.00  0.00    +0.011 C 
ATOM     19  C   UNL     1      35.224 -20.165 -19.497  0.00  0.00    +0.058 C 
ENDBRANCH  10  14
ENDBRANCH   2   6
BRANCH   2  22
ATOM     20  F   UNL     1      32.987 -10.063 -22.956  0.00  0.00    -0.203 F 
ATOM     21  F   UNL     1      31.167 -13.433 -20.154  0.00  0.00    -0.204 F 
ATOM     22  C   UNL     1      32.102 -11.767 -21.566  0.00  0.00    +0.095 C 
ATOM     23  C   UNL     1      31.054  -9.593 -21.671  0.00  0.00    +0.092 C 
ATOM     24  C   UNL     1      32.060 -10.470 -22.076  0.00  0.00    +0.160 C 
ATOM     25  C   UNL     1      31.137 -12.188 -20.651  0.00  0.00    +0.145 C 
ATOM     26  C   UNL     1      30.088 -10.015 -20.755  0.00  0.00    +0.020 C 
ATOM     27  C   UNL     1      30.130 -11.312 -20.246  0.00  0.00    +0.031 C 
BRANCH  23  28
ATOM     28  N   UNL     1      31.008  -8.264 -22.191  0.00  0.00    -0.217 N 
ATOM     29  H   UNL     1      30.789  -8.099 -23.137  0.00  0.00    +0.173 HD
BRANCH  28  30
ATOM     30  S   UNL     1      31.346  -6.959 -21.119  0.00  0.00    +0.054 S 
ATOM     31  O   UNL     1      30.098  -6.282 -20.815  0.00  0.00    -0.154 OA
ATOM     32  O   UNL     1      32.235  -7.379 -20.055  0.00  0.00    -0.154 OA
BRANCH  30  33
ATOM     33  C   UNL     1      32.261  -5.890 -22.206  0.00  0.00    +0.172 C 
BRANCH  33  34
ATOM     34  C   UNL     1      33.079  -6.687 -23.208  0.00  0.00    +0.027 C 
ATOM     35  C   UNL     1      34.479  -6.966 -22.688  0.00  0.00    +0.002 C 
ENDBRANCH  33  34
ENDBRANCH  30  33
ENDBRANCH  28  30
ENDBRANCH  23  28
ENDBRANCH   2  22
TORSDOF 7
ENDMDL
MODEL 2
REMARK VINA RESULT:     -10.9      4.329      7.345
REMARK  Name = 42611257
REMARK  7 active torsions:
REMARK  status: ('A' for Active; 'I' for Inactive)
REMARK    1  A    between atoms: C_2  and  C_6
REMARK    2  A    between atoms: C_2  and  C_22
REMARK    3  A    between atoms: C_10  and  C_14
REMARK    4  A    between atoms: C_23  and  N_28
REMARK    5  A    between atoms: N_28  and  S_30
REMARK    6  A    between atoms: S_30  and  C_33
REMARK    7  A    between atoms: C_33  and  C_34
REMARK                            x       y       z     vdW  Elec       q    Type
REMARK                         _______ _______ _______ _____ _____    ______ ____
ROOT
ATOM      1  O   UNL     1      35.662 -19.306 -20.005  0.00  0.00    -0.286 OA
ATOM      2  C   UNL     1      34.499 -19.159 -20.439  0.00  0.00    +0.201 C 
ENDROOT
BRANCH   2   6
ATOM      3  N   UNL     1      31.336 -20.663 -19.575  0.00  0.00    -0.297 N 
ATOM      4  N   UNL     1      31.665 -22.104 -17.674  0.00  0.00    -0.229 NA
ATOM      5  C   UNL     1      33.414 -20.779 -18.767  0.00  0.00    +0.036 C 
ATOM      6  C   UNL     1      33.401 -19.893 -19.876  0.00  0.00    +0.056 C 
ATOM      7  C   UNL     1      32.111 -21.242 -18.606  0.00  0.00    +0.132 C 
ATOM      8  C   UNL     1      34.384 -21.252 -17.867  0.00  0.00    +0.004 C 
ATOM      9  C   UNL     1      32.109 -19.841 -20.353  0.00  0.00    +0.066 C 
ATOM     10  C   UNL     1      33.974 -22.147 -16.881  0.00  0.00    +0.019 C 
ATOM     11  C   UNL     1      32.639 -22.527 -16.836  0.00  0.00    +0.100 C 
ATOM     12  H   UNL     1      30.370 -20.815 -19.695  0.00  0.00    +0.154 HD
BRANCH  10  14
ATOM     13 CL   UNL     1      37.882 -24.305 -12.938  0.00  0.00    -0.082 Cl
ATOM     14  C   UNL     1      34.924 -22.671 -15.926  0.00  0.00    +0.002 C 
ATOM     15  C   UNL     1      36.230 -22.182 -15.898  0.00  0.00    +0.001 C 
ATOM     16  C   UNL     1      34.533 -23.666 -15.030  0.00  0.00    +0.001 C 
ATOM     17  C   UNL     1      37.145 -22.687 -14.974  0.00  0.00    +0.011 C 
ATOM     18  C   UNL     1      35.447 -24.172 -14.106  0.00  0.00    +0.011 C 
ATOM     19  C   UNL     1      36.753 -23.682 -14.078  0.00  0.00    +0.058 C 
ENDBRANCH  10  14
ENDBRANCH   2   6
BRANCH   2  22
ATOM     20  F   UNL     1      34.334 -16.370 -20.037  0.00  0.00    -0.203 F 
ATOM     21  F   UNL     1      34.333 -19.948 -23.154  0.00  0.00    -0.204 F 
ATOM     22  C   UNL     1      34.337 -18.180 -21.569  0.00  0.00    +0.095 C 
ATOM     23  C   UNL     1      34.111 -15.904 -22.348  0.00  0.00    +0.092 C 
ATOM     24  C   UNL     1      34.262 -16.813 -21.301  0.00  0.00    +0.160 C 
ATOM     25  C   UNL     1      34.262 -18.637 -22.885  0.00  0.00    +0.145 C 
ATOM     26  C   UNL     1      34.036 -16.362 -23.665  0.00  0.00    +0.020 C 
ATOM     27  C   UNL     1      34.112 -17.729 -23.932  0.00  0.00    +0.031 C 
BRANCH  23  28
ATOM     28  N   UNL     1      34.034 -14.504 -22.078  0.00  0.00    -0.217 N 
ATOM     29  H   UNL     1      34.603 -14.090 -21.388  0.00  0.00    +0.173 HD
BRANCH  28  30
ATOM     30  S   UNL     1      32.920 -13.559 -22.990  0.00  0.00    +0.054 S 
ATOM     31  O   UNL     1      33.599 -12.358 -23.441  0.00  0.00    -0.154 OA
ATOM     32  O   UNL     1      32.186 -14.385 -23.927  0.00  0.00    -0.154 OA
BRANCH  30  33
ATOM     33  C   UNL     1      31.799 -13.065 -21.702  0.00  0.00    +0.172 C 
BRANCH  33  34
ATOM     34  C   UNL     1      32.326 -13.452 -20.330  0.00  0.00    +0.027 C 
ATOM     35  C   UNL     1      31.202 -13.567 -19.314  0.00  0.00    +0.002 C 
ENDBRANCH  33  34
ENDBRANCH  30  33
ENDBRANCH  28  30
ENDBRANCH  23  28
ENDBRANCH   2  22
TORSDOF 7
ENDMDL
MODEL 3
REMARK VINA RESULT:     -10.6      1.382      2.370
REMARK  Name = 42611257
REMARK  7 active torsions:
REMARK  status: ('A' for Active; 'I' for Inactive)
REMARK    1  A    between atoms: C_2  and  C_6
REMARK    2  A    between atoms: C_2  and  C_22
REMARK    3  A    between atoms: C_10  and  C_14
REMARK    4  A    between atoms: C_23  and  N_28
REMARK    5  A    between atoms: N_28  and  S_30
REMARK    6  A    between atoms: S_30  and  C_33
REMARK    7  A    between atoms: C_33  and  C_34
REMARK                            x       y       z     vdW  Elec       q    Type
REMARK                         _______ _______ _______ _____ _____    ______ ____
ROOT
ATOM      1  O   UNL     1      34.018 -12.729 -21.715  0.00  0.00    -0.286 OA
ATOM      2  C   UNL     1      33.343 -12.502 -22.743  0.00  0.00    +0.201 C 
ENDROOT
BRANCH   2   6
ATOM      3  N   UNL     1      32.142 -14.606 -25.416  0.00  0.00    -0.297 N 
ATOM      4  N   UNL     1      32.566 -16.904 -24.834  0.00  0.00    -0.229 NA
ATOM      5  C   UNL     1      33.138 -14.963 -23.450  0.00  0.00    +0.036 C 
ATOM      6  C   UNL     1      32.967 -13.565 -23.631  0.00  0.00    +0.056 C 
ATOM      7  C   UNL     1      32.614 -15.582 -24.581  0.00  0.00    +0.132 C 
ATOM      8  C   UNL     1      33.681 -15.789 -22.452  0.00  0.00    +0.004 C 
ATOM      9  C   UNL     1      32.351 -13.375 -24.849  0.00  0.00    +0.066 C 
ATOM     10  C   UNL     1      33.656 -17.166 -22.665  0.00  0.00    +0.019 C 
ATOM     11  C   UNL     1      33.102 -17.651 -23.842  0.00  0.00    +0.100 C 
ATOM     12  H   UNL     1      31.719 -14.763 -26.291  0.00  0.00    +0.154 HD
BRANCH  10  14
ATOM     13 CL   UNL     1      35.900 -20.897 -18.600  0.00  0.00    -0.082 Cl
ATOM     14  C   UNL     1      34.199 -18.071 -21.677  0.00  0.00    +0.002 C 
ATOM     15  C   UNL     1      33.391 -19.060 -21.116  0.00  0.00    +0.001 C 
ATOM     16  C   UNL     1      35.534 -17.956 -21.287  0.00  0.00    +0.001 C 
ATOM     17  C   UNL     1      33.917 -19.934 -20.164  0.00  0.00    +0.011 C 
ATOM     18  C   UNL     1      36.059 -18.829 -20.335  0.00  0.00    +0.011 C 
ATOM     19  C   UNL     1      35.251 -19.819 -19.774  0.00  0.00    +0.058 C 
ENDBRANCH  10  14
ENDBRANCH   2   6
BRANCH   2  22
ATOM     20  F   UNL     1      31.442 -11.142 -21.161  0.00  0.00    -0.203 F 
ATOM     21  F   UNL     1      34.473 -10.924 -24.806  0.00  0.00    -0.204 F 
ATOM     22  C   UNL     1      32.965 -11.065 -22.977  0.00  0.00    +0.095 C 
ATOM     23  C   UNL     1      31.665  -9.120 -22.374  0.00  0.00    +0.092 C 
ATOM     24  C   UNL     1      32.017 -10.452 -22.158  0.00  0.00    +0.160 C 
ATOM     25  C   UNL     1      33.561 -10.345 -24.013  0.00  0.00    +0.145 C 
ATOM     26  C   UNL     1      32.262  -8.400 -23.411  0.00  0.00    +0.020 C 
ATOM     27  C   UNL     1      33.210  -9.013 -24.229  0.00  0.00    +0.031 C 
BRANCH  23  28
ATOM     28  N   UNL     1      30.695  -8.489 -21.537  0.00  0.00    -0.217 N 
ATOM     29  H   UNL     1      29.733  -8.554 -21.740  0.00  0.00    +0.173 HD
BRANCH  28  30
ATOM     30  S   UNL     1      31.254  -7.612 -20.164  0.00  0.00    +0.054 S 
ATOM     31  O   UNL     1      30.702  -8.229 -18.971  0.00  0.00    -0.154 OA
ATOM     32  O   UNL     1      32.673  -7.342 -20.265  0.00  0.00    -0.154 OA
BRANCH  30  33
ATOM     33  C   UNL     1      30.387  -6.078 -20.398  0.00  0.00    +0.172 C 
BRANCH  33  34
ATOM     34  C   UNL     1      31.319  -4.985 -20.896  0.00  0.00    +0.027 C 
ATOM     35  C   UNL     1      31.337  -4.919 -22.414  0.00  0.00    +0.002 C 
ENDBRANCH  33  34
ENDBRANCH  30  33
ENDBRANCH  28  30
ENDBRANCH  23  28
ENDBRANCH   2  22
TORSDOF 7
ENDMDL
MODEL 4
REMARK VINA RESULT:     -10.3      4.746     10.198
REMARK  Name = 42611257
REMARK  7 active torsions:
REMARK  status: ('A' for Active; 'I' for Inactive)
REMARK    1  A    between atoms: C_2  and  C_6
REMARK    2  A    between atoms: C_2  and  C_22
REMARK    3  A    between atoms: C_10  and  C_14
REMARK    4  A    between atoms: C_23  and  N_28
REMARK    5  A    between atoms: N_28  and  S_30
REMARK    6  A    between atoms: S_30  and  C_33
REMARK    7  A    between atoms: C_33  and  C_34
REMARK                            x       y       z     vdW  Elec       q    Type
REMARK                         _______ _______ _______ _____ _____    ______ ____
ROOT
ATOM      1  O   UNL     1      33.740 -12.440 -23.663  0.00  0.00    -0.286 OA
ATOM      2  C   UNL     1      33.105 -13.087 -22.804  0.00  0.00    +0.201 C 
ENDROOT
BRANCH   2   6
ATOM      3  N   UNL     1      30.684 -12.150 -20.299  0.00  0.00    -0.297 N 
ATOM      4  N   UNL     1      30.301  -9.777 -20.451  0.00  0.00    -0.229 NA
ATOM      5  C   UNL     1      31.836 -11.059 -21.869  0.00  0.00    +0.036 C 
ATOM      6  C   UNL     1      32.181 -12.435 -21.920  0.00  0.00    +0.056 C 
ATOM      7  C   UNL     1      30.901 -10.915 -20.849  0.00  0.00    +0.132 C 
ATOM      8  C   UNL     1      32.207  -9.902 -22.575  0.00  0.00    +0.004 C 
ATOM      9  C   UNL     1      31.457 -13.082 -20.942  0.00  0.00    +0.066 C 
ATOM     10  C   UNL     1      31.614  -8.697 -22.203  0.00  0.00    +0.019 C 
ATOM     11  C   UNL     1      30.695  -8.697 -21.162  0.00  0.00    +0.100 C 
ATOM     12  H   UNL     1      30.068 -12.340 -19.554  0.00  0.00    +0.154 HD
BRANCH  10  14
ATOM     13 CL   UNL     1      33.016  -3.639 -25.020  0.00  0.00    -0.082 Cl
ATOM     14  C   UNL     1      31.954  -7.470 -22.888  0.00  0.00    +0.002 C 
ATOM     15  C   UNL     1      30.999  -6.818 -23.668  0.00  0.00    +0.001 C 
ATOM     16  C   UNL     1      33.238  -6.938 -22.768  0.00  0.00    +0.001 C 
ATOM     17  C   UNL     1      31.327  -5.634 -24.327  0.00  0.00    +0.011 C 
ATOM     18  C   UNL     1      33.566  -5.754 -23.427  0.00  0.00    +0.011 C 
ATOM     19  C   UNL     1      32.611  -5.101 -24.207  0.00  0.00    +0.058 C 
ENDBRANCH  10  14
ENDBRANCH   2   6
BRANCH   2  22
ATOM     20  F   UNL     1      34.069 -14.405 -20.502  0.00  0.00    -0.203 F 
ATOM     21  F   UNL     1      32.691 -14.794 -25.026  0.00  0.00    -0.204 F 
ATOM     22  C   UNL     1      33.374 -14.567 -22.763  0.00  0.00    +0.095 C 
ATOM     23  C   UNL     1      34.102 -16.528 -21.553  0.00  0.00    +0.092 C 
ATOM     24  C   UNL     1      33.851 -15.156 -21.592  0.00  0.00    +0.160 C 
ATOM     25  C   UNL     1      33.148 -15.350 -23.895  0.00  0.00    +0.145 C 
ATOM     26  C   UNL     1      33.875 -17.311 -22.686  0.00  0.00    +0.020 C 
ATOM     27  C   UNL     1      33.399 -16.721 -23.856  0.00  0.00    +0.031 C 
BRANCH  23  28
ATOM     28  N   UNL     1      34.589 -17.134 -20.356  0.00  0.00    -0.217 N 
ATOM     29  H   UNL     1      34.291 -16.819 -19.472  0.00  0.00    +0.173 HD
BRANCH  28  30
ATOM     30  S   UNL     1      35.713 -18.431 -20.501  0.00  0.00    +0.054 S 
ATOM     31  O   UNL     1      36.149 -18.508 -21.884  0.00  0.00    -0.154 OA
ATOM     32  O   UNL     1      36.681 -18.401 -19.424  0.00  0.00    -0.154 OA
BRANCH  30  33
ATOM     33  C   UNL     1      34.631 -19.815 -20.224  0.00  0.00    +0.172 C 
BRANCH  33  34
ATOM     34  C   UNL     1      35.149 -20.708 -19.109  0.00  0.00    +0.027 C 
ATOM     35  C   UNL     1      34.063 -21.634 -18.588  0.00  0.00    +0.002 C 
ENDBRANCH  33  34
ENDBRANCH  30  33
ENDBRANCH  28  30
ENDBRANCH  23  28
ENDBRANCH   2  22
TORSDOF 7
ENDMDL
MODEL 5
REMARK VINA RESULT:      -9.9      3.238      5.114
REMARK  Name = 42611257
REMARK  7 active torsions:
REMARK  status: ('A' for Active; 'I' for Inactive)
REMARK    1  A    between atoms: C_2  and  C_6
REMARK    2  A    between atoms: C_2  and  C_22
REMARK    3  A    between atoms: C_10  and  C_14
REMARK    4  A    between atoms: C_23  and  N_28
REMARK    5  A    between atoms: N_28  and  S_30
REMARK    6  A    between atoms: S_30  and  C_33
REMARK    7  A    between atoms: C_33  and  C_34
REMARK                            x       y       z     vdW  Elec       q    Type
REMARK                         _______ _______ _______ _____ _____    ______ ____
ROOT
ATOM      1  O   UNL     1      32.724  -9.948 -24.461  0.00  0.00    -0.286 OA
ATOM      2  C   UNL     1      32.385  -9.186 -23.530  0.00  0.00    +0.201 C 
ENDROOT
BRANCH   2   6
ATOM      3  N   UNL     1      30.456  -9.777 -20.539  0.00  0.00    -0.297 N 
ATOM      4  N   UNL     1      30.883 -12.023 -19.782  0.00  0.00    -0.229 NA
ATOM      5  C   UNL     1      31.880 -10.983 -21.766  0.00  0.00    +0.036 C 
ATOM      6  C   UNL     1      31.745  -9.696 -22.351  0.00  0.00    +0.056 C 
ATOM      7  C   UNL     1      31.063 -11.001 -20.639  0.00  0.00    +0.132 C 
ATOM      8  C   UNL     1      32.604 -12.151 -22.059  0.00  0.00    +0.004 C 
ATOM      9  C   UNL     1      30.863  -8.976 -21.575  0.00  0.00    +0.066 C 
ATOM     10  C   UNL     1      32.454 -13.240 -21.202  0.00  0.00    +0.019 C 
ATOM     11  C   UNL     1      31.603 -13.121 -20.111  0.00  0.00    +0.100 C 
ATOM     12  H   UNL     1      29.823  -9.514 -19.833  0.00  0.00    +0.154 HD
BRANCH  10  14
ATOM     13 CL   UNL     1      35.400 -18.316 -22.220  0.00  0.00    -0.082 Cl
ATOM     14  C   UNL     1      33.170 -14.471 -21.448  0.00  0.00    +0.002 C 
ATOM     15  C   UNL     1      33.575 -15.269 -20.378  0.00  0.00    +0.001 C 
ATOM     16  C   UNL     1      33.456 -14.861 -22.757  0.00  0.00    +0.001 C 
ATOM     17  C   UNL     1      34.264 -16.458 -20.617  0.00  0.00    +0.011 C 
ATOM     18  C   UNL     1      34.145 -16.049 -22.995  0.00  0.00    +0.011 C 
ATOM     19  C   UNL     1      34.550 -16.848 -21.925  0.00  0.00    +0.058 C 
ENDBRANCH  10  14
ENDBRANCH   2   6
BRANCH   2  22
ATOM     20  F   UNL     1      30.494  -7.353 -24.546  0.00  0.00    -0.203 F 
ATOM     21  F   UNL     1      34.902  -8.035 -22.924  0.00  0.00    -0.204 F 
ATOM     22  C   UNL     1      32.689  -7.726 -23.731  0.00  0.00    +0.095 C 
ATOM     23  C   UNL     1      31.990  -5.520 -24.426  0.00  0.00    +0.092 C 
ATOM     24  C   UNL     1      31.708  -6.874 -24.238  0.00  0.00    +0.160 C 
ATOM     25  C   UNL     1      33.951  -7.225 -23.412  0.00  0.00    +0.145 C 
ATOM     26  C   UNL     1      33.252  -5.019 -24.106  0.00  0.00    +0.020 C 
ATOM     27  C   UNL     1      34.232  -5.872 -23.599  0.00  0.00    +0.031 C 
BRANCH  23  28
ATOM     28  N   UNL     1      30.988  -4.645 -24.945  0.00  0.00    -0.217 N 
ATOM     29  H   UNL     1      30.775  -4.633 -25.906  0.00  0.00    +0.173 HD
BRANCH  28  30
ATOM     30  S   UNL     1      30.162  -3.612 -23.842  0.00  0.00    +0.054 S 
ATOM     31  O   UNL     1      31.081  -2.576 -23.407  0.00  0.00    -0.154 OA
ATOM     32  O   UNL     1      28.846  -3.267 -24.341  0.00  0.00    -0.154 OA
BRANCH  30  33
ATOM     33  C   UNL     1      29.951  -4.723 -22.469  0.00  0.00    +0.172 C 
BRANCH  33  34
ATOM     34  C   UNL     1      30.799  -4.302 -21.281  0.00  0.00    +0.027 C 
ATOM     35  C   UNL     1      31.565  -5.479 -20.700  0.00  0.00    +0.002 C 
ENDBRANCH  33  34
ENDBRANCH  30  33
ENDBRANCH  28  30
ENDBRANCH  23  28
ENDBRANCH   2  22
TORSDOF 7
ENDMDL
MODEL 6
REMARK VINA RESULT:      -9.8      4.352      9.671
REMARK  Name = 42611257
REMARK  7 active torsions:
REMARK  status: ('A' for Active; 'I' for Inactive)
REMARK    1  A    between atoms: C_2  and  C_6
REMARK    2  A    between atoms: C_2  and  C_22
REMARK    3  A    between atoms: C_10  and  C_14
REMARK    4  A    between atoms: C_23  and  N_28
REMARK    5  A    between atoms: N_28  and  S_30
REMARK    6  A    between atoms: S_30  and  C_33
REMARK    7  A    between atoms: C_33  and  C_34
REMARK                            x       y       z     vdW  Elec       q    Type
REMARK                         _______ _______ _______ _____ _____    ______ ____
ROOT
ATOM      1  O   UNL     1      29.350 -11.252 -21.072  0.00  0.00    -0.286 OA
ATOM      2  C   UNL     1      30.449 -11.146 -20.486  0.00  0.00    +0.201 C 
ENDROOT
BRANCH   2   6
ATOM      3  N   UNL     1      30.890  -8.773 -17.805  0.00  0.00    -0.297 N 
ATOM      4  N   UNL     1      31.821  -6.748 -18.719  0.00  0.00    -0.229 NA
ATOM      5  C   UNL     1      31.275  -8.762 -20.005  0.00  0.00    +0.036 C 
ATOM      6  C   UNL     1      30.732 -10.022 -19.640  0.00  0.00    +0.056 C 
ATOM      7  C   UNL     1      31.361  -8.008 -18.839  0.00  0.00    +0.132 C 
ATOM      8  C   UNL     1      31.710  -8.162 -21.198  0.00  0.00    +0.004 C 
ATOM      9  C   UNL     1      30.505 -10.000 -18.281  0.00  0.00    +0.066 C 
ATOM     10  C   UNL     1      32.195  -6.857 -21.129  0.00  0.00    +0.019 C 
ATOM     11  C   UNL     1      32.226  -6.219 -19.896  0.00  0.00    +0.100 C 
ATOM     12  H   UNL     1      30.838  -8.486 -16.865  0.00  0.00    +0.154 HD
BRANCH  10  14
ATOM     13 CL   UNL     1      34.101  -4.081 -26.043  0.00  0.00    -0.082 Cl
ATOM     14  C   UNL     1      32.659  -6.183 -22.320  0.00  0.00    +0.002 C 
ATOM     15  C   UNL     1      33.884  -6.532 -22.889  0.00  0.00    +0.001 C 
ATOM     16  C   UNL     1      31.880  -5.183 -22.903  0.00  0.00    +0.001 C 
ATOM     17  C   UNL     1      34.330  -5.883 -24.040  0.00  0.00    +0.011 C 
ATOM     18  C   UNL     1      32.326  -4.533 -24.053  0.00  0.00    +0.011 C 
ATOM     19  C   UNL     1      33.551  -4.883 -24.622  0.00  0.00    +0.058 C 
ENDBRANCH  10  14
ENDBRANCH   2   6
BRANCH   2  22
ATOM     20  F   UNL     1      31.916 -11.396 -22.885  0.00  0.00    -0.203 F 
ATOM     21  F   UNL     1      30.993 -13.171 -18.582  0.00  0.00    -0.204 F 
ATOM     22  C   UNL     1      31.433 -12.258 -20.729  0.00  0.00    +0.095 C 
ATOM     23  C   UNL     1      33.038 -13.355 -22.166  0.00  0.00    +0.092 C 
ATOM     24  C   UNL     1      32.126 -12.323 -21.939  0.00  0.00    +0.160 C 
ATOM     25  C   UNL     1      31.653 -13.224 -19.747  0.00  0.00    +0.145 C 
ATOM     26  C   UNL     1      33.258 -14.320 -21.182  0.00  0.00    +0.020 C 
ATOM     27  C   UNL     1      32.565 -14.254 -19.973  0.00  0.00    +0.031 C 
BRANCH  23  28
ATOM     28  N   UNL     1      33.748 -13.424 -23.402  0.00  0.00    -0.217 N 
ATOM     29  H   UNL     1      34.554 -12.878 -23.553  0.00  0.00    +0.173 HD
BRANCH  28  30
ATOM     30  S   UNL     1      33.158 -14.489 -24.620  0.00  0.00    +0.054 S 
ATOM     31  O   UNL     1      31.816 -14.905 -24.254  0.00  0.00    -0.154 OA
ATOM     32  O   UNL     1      33.432 -13.966 -25.943  0.00  0.00    -0.154 OA
BRANCH  30  33
ATOM     33  C   UNL     1      34.222 -15.889 -24.355  0.00  0.00    +0.172 C 
BRANCH  33  34
ATOM     34  C   UNL     1      33.435 -17.104 -23.892  0.00  0.00    +0.027 C 
ATOM     35  C   UNL     1      34.124 -17.807 -22.735  0.00  0.00    +0.002 C 
ENDBRANCH  33  34
ENDBRANCH  30  33
ENDBRANCH  28  30
ENDBRANCH  23  28
ENDBRANCH   2  22
TORSDOF 7
ENDMDL
MODEL 7
REMARK VINA RESULT:      -9.7      6.824     10.739
REMARK  Name = 42611257
REMARK  7 active torsions:
REMARK  status: ('A' for Active; 'I' for Inactive)
REMARK    1  A    between atoms: C_2  and  C_6
REMARK    2  A    between atoms: C_2  and  C_22
REMARK    3  A    between atoms: C_10  and  C_14
REMARK    4  A    between atoms: C_23  and  N_28
REMARK    5  A    between atoms: N_28  and  S_30
REMARK    6  A    between atoms: S_30  and  C_33
REMARK    7  A    between atoms: C_33  and  C_34
REMARK                            x       y       z     vdW  Elec       q    Type
REMARK                         _______ _______ _______ _____ _____    ______ ____
ROOT
ATOM      1  O   UNL     1      32.793 -23.549 -19.008  0.00  0.00    -0.286 OA
ATOM      2  C   UNL     1      32.993 -22.583 -18.241  0.00  0.00    +0.201 C 
ENDROOT
BRANCH   2   6
ATOM      3  N   UNL     1      31.187 -22.360 -15.126  0.00  0.00    -0.297 N 
ATOM      4  N   UNL     1      32.611 -23.156 -13.355  0.00  0.00    -0.229 NA
ATOM      5  C   UNL     1      33.228 -23.041 -15.725  0.00  0.00    +0.036 C 
ATOM      6  C   UNL     1      32.530 -22.608 -16.883  0.00  0.00    +0.056 C 
ATOM      7  C   UNL     1      32.363 -22.873 -14.647  0.00  0.00    +0.132 C 
ATOM      8  C   UNL     1      34.504 -23.561 -15.455  0.00  0.00    +0.004 C 
ATOM      9  C   UNL     1      31.277 -22.194 -16.484  0.00  0.00    +0.066 C 
ATOM     10  C   UNL     1      34.813 -23.871 -14.132  0.00  0.00    +0.019 C 
ATOM     11  C   UNL     1      33.853 -23.654 -13.152  0.00  0.00    +0.100 C 
ATOM     12  H   UNL     1      30.398 -22.143 -14.579  0.00  0.00    +0.154 HD
BRANCH  10  14
ATOM     13 CL   UNL     1      40.155 -26.097 -12.721  0.00  0.00    -0.082 Cl
ATOM     14  C   UNL     1      36.109 -24.410 -13.788  0.00  0.00    +0.002 C 
ATOM     15  C   UNL     1      36.240 -25.274 -12.700  0.00  0.00    +0.001 C 
ATOM     16  C   UNL     1      37.229 -24.068 -14.545  0.00  0.00    +0.001 C 
ATOM     17  C   UNL     1      37.491 -25.795 -12.370  0.00  0.00    +0.011 C 
ATOM     18  C   UNL     1      38.480 -24.589 -14.215  0.00  0.00    +0.011 C 
ATOM     19  C   UNL     1      38.611 -25.453 -13.128  0.00  0.00    +0.058 C 
ENDBRANCH  10  14
ENDBRANCH   2   6
BRANCH   2  22
ATOM     20  F   UNL     1      31.796 -20.745 -20.017  0.00  0.00    -0.203 F 
ATOM     21  F   UNL     1      35.714 -22.037 -17.672  0.00  0.00    -0.204 F 
ATOM     22  C   UNL     1      33.737 -21.416 -18.832  0.00  0.00    +0.095 C 
ATOM     23  C   UNL     1      33.774 -19.463 -20.255  0.00  0.00    +0.092 C 
ATOM     24  C   UNL     1      33.085 -20.544 -19.705  0.00  0.00    +0.160 C 
ATOM     25  C   UNL     1      35.078 -21.206 -18.510  0.00  0.00    +0.145 C 
ATOM     26  C   UNL     1      35.115 -19.253 -19.931  0.00  0.00    +0.020 C 
ATOM     27  C   UNL     1      35.766 -20.124 -19.058  0.00  0.00    +0.031 C 
BRANCH  23  28
ATOM     28  N   UNL     1      33.109 -18.569 -21.148  0.00  0.00    -0.217 N 
ATOM     29  H   UNL     1      32.407 -17.959 -20.823  0.00  0.00    +0.173 HD
BRANCH  28  30
ATOM     30  S   UNL     1      33.571 -18.585 -22.807  0.00  0.00    +0.054 S 
ATOM     31  O   UNL     1      34.446 -19.722 -23.028  0.00  0.00    -0.154 OA
ATOM     32  O   UNL     1      32.426 -18.360 -23.665  0.00  0.00    -0.154 OA
BRANCH  30  33
ATOM     33  C   UNL     1      34.591 -17.130 -22.863  0.00  0.00    +0.172 C 
BRANCH  33  34
ATOM     34  C   UNL     1      34.151 -16.105 -21.831  0.00  0.00    +0.027 C 
ATOM     35  C   UNL     1      33.560 -14.870 -22.490  0.00  0.00    +0.002 C 
ENDBRANCH  33  34
ENDBRANCH  30  33
ENDBRANCH  28  30
ENDBRANCH  23  28
ENDBRANCH   2  22
TORSDOF 7
ENDMDL
MODEL 8
REMARK VINA RESULT:      -9.5      8.193     12.571
REMARK  Name = 42611257
REMARK  7 active torsions:
REMARK  status: ('A' for Active; 'I' for Inactive)
REMARK    1  A    between atoms: C_2  and  C_6
REMARK    2  A    between atoms: C_2  and  C_22
REMARK    3  A    between atoms: C_10  and  C_14
REMARK    4  A    between atoms: C_23  and  N_28
REMARK    5  A    between atoms: N_28  and  S_30
REMARK    6  A    between atoms: S_30  and  C_33
REMARK    7  A    between atoms: C_33  and  C_34
REMARK                            x       y       z     vdW  Elec       q    Type
REMARK                         _______ _______ _______ _____ _____    ______ ____
ROOT
ATOM      1  O   UNL     1      32.702 -22.921 -18.807  0.00  0.00    -0.286 OA
ATOM      2  C   UNL     1      33.218 -22.445 -17.772  0.00  0.00    +0.201 C 
ENDROOT
BRANCH   2   6
ATOM      3  N   UNL     1      36.420 -20.842 -17.338  0.00  0.00    -0.297 N 
ATOM      4  N   UNL     1      36.667 -19.148 -19.032  0.00  0.00    -0.229 NA
ATOM      5  C   UNL     1      34.717 -20.610 -18.763  0.00  0.00    +0.036 C 
ATOM      6  C   UNL     1      34.406 -21.643 -17.840  0.00  0.00    +0.056 C 
ATOM      7  C   UNL     1      35.979 -20.132 -18.422  0.00  0.00    +0.132 C 
ATOM      8  C   UNL     1      34.073 -20.013 -19.859  0.00  0.00    +0.004 C 
ATOM      9  C   UNL     1      35.472 -21.764 -16.975  0.00  0.00    +0.066 C 
ATOM     10  C   UNL     1      34.742 -18.988 -20.526  0.00  0.00    +0.019 C 
ATOM     11  C   UNL     1      36.002 -18.610 -20.079  0.00  0.00    +0.100 C 
ATOM     12  H   UNL     1      37.287 -20.712 -16.888  0.00  0.00    +0.154 HD
BRANCH  10  14
ATOM     13 CL   UNL     1      32.237 -16.288 -25.207  0.00  0.00    -0.082 Cl
ATOM     14  C   UNL     1      34.135 -18.334 -21.663  0.00  0.00    +0.002 C 
ATOM     15  C   UNL     1      33.456 -19.086 -22.621  0.00  0.00    +0.001 C 
ATOM     16  C   UNL     1      34.228 -16.949 -21.801  0.00  0.00    +0.001 C 
ATOM     17  C   UNL     1      32.868 -18.454 -23.717  0.00  0.00    +0.011 C 
ATOM     18  C   UNL     1      33.642 -16.316 -22.897  0.00  0.00    +0.011 C 
ATOM     19  C   UNL     1      32.961 -17.068 -23.855  0.00  0.00    +0.058 C 
ENDBRANCH  10  14
ENDBRANCH   2   6
BRANCH   2  22
ATOM     20  F   UNL     1      34.412 -23.981 -15.728  0.00  0.00    -0.203 F 
ATOM     21  F   UNL     1      30.591 -21.569 -17.176  0.00  0.00    -0.204 F 
ATOM     22  C   UNL     1      32.519 -22.768 -16.480  0.00  0.00    +0.095 C 
ATOM     23  C   UNL     1      32.519 -23.835 -14.312  0.00  0.00    +0.092 C 
ATOM     24  C   UNL     1      33.167 -23.534 -15.510  0.00  0.00    +0.160 C 
ATOM     25  C   UNL     1      31.223 -22.305 -16.251  0.00  0.00    +0.145 C 
ATOM     26  C   UNL     1      31.223 -23.370 -14.083  0.00  0.00    +0.020 C 
ATOM     27  C   UNL     1      30.576 -22.605 -15.053  0.00  0.00    +0.031 C 
BRANCH  23  28
ATOM     28  N   UNL     1      33.179 -24.617 -13.317  0.00  0.00    -0.217 N 
ATOM     29  H   UNL     1      33.001 -25.582 -13.231  0.00  0.00    +0.173 HD
BRANCH  28  30
ATOM     30  S   UNL     1      34.298 -23.828 -12.272  0.00  0.00    +0.054 S 
ATOM     31  O   UNL     1      34.937 -22.755 -13.012  0.00  0.00    -0.154 OA
ATOM     32  O   UNL     1      33.705 -23.576 -10.974  0.00  0.00    -0.154 OA
BRANCH  30  33
ATOM     33  C   UNL     1      35.509 -25.115 -12.079  0.00  0.00    +0.172 C 
BRANCH  33  34
ATOM     34  C   UNL     1      36.457 -25.165 -13.266  0.00  0.00    +0.027 C 
ATOM     35  C   UNL     1      36.185 -26.374 -14.145  0.00  0.00    +0.002 C 
ENDBRANCH  33  34
ENDBRANCH  30  33
ENDBRANCH  28  30
ENDBRANCH  23  28
ENDBRANCH   2  22
TORSDOF 7
ENDMDL
MODEL 9
REMARK VINA RESULT:      -9.4      1.758      2.359
REMARK  Name = 42611257
REMARK  7 active torsions:
REMARK  status: ('A' for Active; 'I' for Inactive)
REMARK    1  A    between atoms: C_2  and  C_6
REMARK    2  A    between atoms: C_2  and  C_22
REMARK    3  A    between atoms: C_10  and  C_14
REMARK    4  A    between atoms: C_23  and  N_28
REMARK    5  A    between atoms: N_28  and  S_30
REMARK    6  A    between atoms: S_30  and  C_33
REMARK    7  A    between atoms: C_33  and  C_34
REMARK                            x       y       z     vdW  Elec       q    Type
REMARK                         _______ _______ _______ _____ _____    ______ ____
ROOT
ATOM      1  O   UNL     1      34.486 -10.527 -23.660  0.00  0.00    -0.286 OA
ATOM      2  C   UNL     1      33.281 -10.859 -23.622  0.00  0.00    +0.201 C 
ENDROOT
BRANCH   2   6
ATOM      3  N   UNL     1      31.734 -12.737 -26.285  0.00  0.00    -0.297 N 
ATOM      4  N   UNL     1      31.992 -15.085 -25.819  0.00  0.00    -0.229 NA
ATOM      5  C   UNL     1      32.818 -13.261 -24.405  0.00  0.00    +0.036 C 
ATOM      6  C   UNL     1      32.758 -11.847 -24.521  0.00  0.00    +0.056 C 
ATOM      7  C   UNL     1      32.171 -13.785 -25.520  0.00  0.00    +0.132 C 
ATOM      8  C   UNL     1      33.349 -14.173 -23.477  0.00  0.00    +0.004 C 
ATOM      9  C   UNL     1      32.085 -11.554 -25.688  0.00  0.00    +0.066 C 
ATOM     10  C   UNL     1      33.190 -15.532 -23.739  0.00  0.00    +0.019 C 
ATOM     11  C   UNL     1      32.522 -15.918 -24.893  0.00  0.00    +0.100 C 
ATOM     12  H   UNL     1      31.243 -12.820 -27.135  0.00  0.00    +0.154 HD
BRANCH  10  14
ATOM     13 CL   UNL     1      35.344 -19.611 -19.970  0.00  0.00    -0.082 Cl
ATOM     14  C   UNL     1      33.714 -16.521 -22.824  0.00  0.00    +0.002 C 
ATOM     15  C   UNL     1      34.179 -16.134 -21.567  0.00  0.00    +0.001 C 
ATOM     16  C   UNL     1      33.755 -17.864 -23.199  0.00  0.00    +0.001 C 
ATOM     17  C   UNL     1      34.683 -17.089 -20.685  0.00  0.00    +0.011 C 
ATOM     18  C   UNL     1      34.259 -18.819 -22.317  0.00  0.00    +0.011 C 
ATOM     19  C   UNL     1      34.723 -18.433 -21.060  0.00  0.00    +0.058 C 
ENDBRANCH  10  14
ENDBRANCH   2   6
BRANCH   2  22
ATOM     20  F   UNL     1      33.195  -8.050 -23.359  0.00  0.00    -0.203 F 
ATOM     21  F   UNL     1      31.645 -12.245 -21.771  0.00  0.00    -0.204 F 
ATOM     22  C   UNL     1      32.439 -10.162 -22.589  0.00  0.00    +0.095 C 
ATOM     23  C   UNL     1      31.662  -8.121 -21.554  0.00  0.00    +0.092 C 
ATOM     24  C   UNL     1      32.442  -8.769 -22.512  0.00  0.00    +0.160 C 
ATOM     25  C   UNL     1      31.656 -10.906 -21.707  0.00  0.00    +0.145 C 
ATOM     26  C   UNL     1      30.878  -8.867 -20.673  0.00  0.00    +0.020 C 
ATOM     27  C   UNL     1      30.875 -10.259 -20.749  0.00  0.00    +0.031 C 
BRANCH  23  28
ATOM     28  N   UNL     1      31.663  -6.695 -21.474  0.00  0.00    -0.217 N 
ATOM     29  H   UNL     1      32.350  -6.218 -20.953  0.00  0.00    +0.173 HD
BRANCH  28  30
ATOM     30  S   UNL     1      30.430  -5.833 -22.312  0.00  0.00    +0.054 S 
ATOM     31  O   UNL     1      30.037  -6.610 -23.475  0.00  0.00    -0.154 OA
ATOM     32  O   UNL     1      29.432  -5.330 -21.391  0.00  0.00    -0.154 OA
BRANCH  30  33
ATOM     33  C   UNL     1      31.369  -4.447 -22.911  0.00  0.00    +0.172 C 
BRANCH  33  34
ATOM     34  C   UNL     1      31.934  -4.717 -24.296  0.00  0.00    +0.027 C 
ATOM     35  C   UNL     1      33.430  -4.979 -24.245  0.00  0.00    +0.002 C 
ENDBRANCH  33  34
ENDBRANCH  30  33
ENDBRANCH  28  30
ENDBRANCH  23  28
ENDBRANCH   2  22
TORSDOF 7
ENDMDL
