MODEL 1
REMARK VINA RESULT:     -12.2      0.000      0.000
REMARK  Name = 447731
REMARK  4 active torsions:
REMARK  status: ('A' for Active; 'I' for Inactive)
REMARK    1  A    between atoms: N_2  and  C_13
REMARK    2  A    between atoms: C_3  and  C_19
REMARK    3  A    between atoms: C_6  and  C_17
REMARK    4  A    between atoms: C_27  and  C_31
REMARK                            x       y       z     vdW  Elec       q    Type
REMARK                         _______ _______ _______ _____ _____    ______ ____
ROOT
ATOM      1  O   UNL     1      32.889 -23.543 -17.328  0.00  0.00    -0.270 OA
ATOM      2  N   UNL     1      34.238 -22.069 -16.088  0.00  0.00    -0.280 N 
ATOM      3  C   UNL     1      33.474 -22.474 -17.190  0.00  0.00    +0.249 C 
ATOM      4  H   UNL     1      34.639 -21.171 -16.146  0.00  0.00    +0.155 HD
ENDROOT
BRANCH   2  13
ATOM      5  N   UNL     1      36.229 -26.109 -11.477  0.00  0.00    +0.387 N 
ATOM      6  C   UNL     1      37.169 -25.189 -13.568  0.00  0.00    +0.001 C 
ATOM      7  C   UNL     1      35.942 -24.294 -13.661  0.00  0.00    -0.029 C 
ATOM      8  C   UNL     1      37.453 -25.632 -12.119  0.00  0.00    -0.077 C 
ATOM      9  C   UNL     1      35.030 -24.237 -12.587  0.00  0.00    -0.048 C 
ATOM     10  C   UNL     1      35.288 -24.998 -11.311  0.00  0.00    -0.055 C 
ATOM     11  C   UNL     1      35.649 -23.577 -14.832  0.00  0.00    +0.010 C 
ATOM     12  C   UNL     1      33.889 -23.426 -12.680  0.00  0.00    -0.005 C 
ATOM     13  C   UNL     1      34.503 -22.783 -14.918  0.00  0.00    +0.050 C 
ATOM     14  C   UNL     1      33.628 -22.703 -13.841  0.00  0.00    +0.014 C 
ATOM     15  H   UNL     1      36.457 -26.499 -10.562  0.00  0.00    -0.084 HD
ATOM     16  H   UNL     1      35.800 -26.827 -12.062  0.00  0.00    -0.084 HD
BRANCH   6  17
ATOM     17  C   UNL     1      38.440 -24.551 -14.141  0.00  0.00    +0.002 C 
ATOM     18  C   UNL     1      39.670 -25.344 -13.757  0.00  0.00    +0.000 C 
ENDBRANCH   6  17
ENDBRANCH   2  13
BRANCH   3  19
ATOM     19  C   UNL     1      33.399 -21.496 -18.307  0.00  0.00    +0.054 C 
ATOM     20  C   UNL     1      34.512 -20.006 -19.832  0.00  0.00    +0.000 C 
ATOM     21  C   UNL     1      33.256 -19.670 -20.394  0.00  0.00    +0.000 C 
ATOM     22  C   UNL     1      34.566 -20.932 -18.777  0.00  0.00    +0.005 C 
ATOM     23  C   UNL     1      32.166 -21.186 -18.836  0.00  0.00    +0.005 C 
ATOM     24  C   UNL     1      32.093 -20.269 -19.883  0.00  0.00    +0.000 C 
ATOM     25  C   UNL     1      33.201 -18.744 -21.449  0.00  0.00    +0.003 C 
ATOM     26  C   UNL     1      35.674 -19.406 -20.342  0.00  0.00    +0.000 C 
ATOM     27  C   UNL     1      34.367 -18.158 -21.943  0.00  0.00    +0.031 C 
ATOM     28  C   UNL     1      35.601 -18.489 -21.390  0.00  0.00    +0.003 C 
BRANCH  27  31
ATOM     29  N   UNL     1      34.811 -15.914 -22.907  0.00  0.00    -0.343 N 
ATOM     30  N   UNL     1      33.722 -17.546 -24.174  0.00  0.00    -0.285 NA
ATOM     31  C   UNL     1      34.293 -17.201 -23.035  0.00  0.00    +0.117 C 
ATOM     32  H   UNL     1      34.751 -15.282 -23.659  0.00  0.00    +0.144 HD
ATOM     33  H   UNL     1      35.239 -15.636 -22.064  0.00  0.00    +0.144 HD
ATOM     34  H   UNL     1      33.671 -16.899 -24.915  0.00  0.00    +0.188 HD
ENDBRANCH  27  31
ENDBRANCH   3  19
TORSDOF 4
ENDMDL
MODEL 2
REMARK VINA RESULT:     -11.7      1.089      2.513
REMARK  Name = 447731
REMARK  4 active torsions:
REMARK  status: ('A' for Active; 'I' for Inactive)
REMARK    1  A    between atoms: N_2  and  C_13
REMARK    2  A    between atoms: C_3  and  C_19
REMARK    3  A    between atoms: C_6  and  C_17
REMARK    4  A    between atoms: C_27  and  C_31
REMARK                            x       y       z     vdW  Elec       q    Type
REMARK                         _______ _______ _______ _____ _____    ______ ____
ROOT
ATOM      1  O   UNL     1      33.380 -23.090 -17.244  0.00  0.00    -0.270 OA
ATOM      2  N   UNL     1      35.102 -21.705 -16.439  0.00  0.00    -0.280 N 
ATOM      3  C   UNL     1      34.083 -22.087 -17.321  0.00  0.00    +0.249 C 
ATOM      4  H   UNL     1      35.567 -20.864 -16.654  0.00  0.00    +0.155 HD
ENDROOT
BRANCH   2  13
ATOM      5  N   UNL     1      36.022 -24.265 -10.595  0.00  0.00    +0.387 N 
ATOM      6  C   UNL     1      34.074 -23.653 -11.986  0.00  0.00    +0.001 C 
ATOM      7  C   UNL     1      35.047 -23.349 -13.116  0.00  0.00    -0.029 C 
ATOM      8  C   UNL     1      34.663 -24.651 -10.970  0.00  0.00    -0.077 C 
ATOM      9  C   UNL     1      36.411 -23.679 -12.978  0.00  0.00    -0.048 C 
ATOM     10  C   UNL     1      36.914 -24.396 -11.750  0.00  0.00    -0.055 C 
ATOM     11  C   UNL     1      34.632 -22.671 -14.274  0.00  0.00    +0.010 C 
ATOM     12  C   UNL     1      37.311 -23.383 -14.013  0.00  0.00    -0.005 C 
ATOM     13  C   UNL     1      35.540 -22.370 -15.292  0.00  0.00    +0.050 C 
ATOM     14  C   UNL     1      36.876 -22.731 -15.164  0.00  0.00    +0.014 C 
ATOM     15  H   UNL     1      36.351 -24.871  -9.844  0.00  0.00    -0.084 HD
ATOM     16  H   UNL     1      36.021 -23.294 -10.281  0.00  0.00    -0.084 HD
BRANCH   6  17
ATOM     17  C   UNL     1      32.720 -24.187 -12.467  0.00  0.00    +0.002 C 
ATOM     18  C   UNL     1      31.684 -23.085 -12.515  0.00  0.00    +0.000 C 
ENDBRANCH   6  17
ENDBRANCH   2  13
BRANCH   3  19
ATOM     19  C   UNL     1      33.867 -21.179 -18.477  0.00  0.00    +0.054 C 
ATOM     20  C   UNL     1      34.767 -19.672 -20.122  0.00  0.00    +0.000 C 
ATOM     21  C   UNL     1      33.462 -19.482 -20.637  0.00  0.00    +0.000 C 
ATOM     22  C   UNL     1      34.955 -20.534 -19.029  0.00  0.00    +0.005 C 
ATOM     23  C   UNL     1      32.589 -21.011 -18.959  0.00  0.00    +0.005 C 
ATOM     24  C   UNL     1      32.384 -20.159 -20.043  0.00  0.00    +0.000 C 
ATOM     25  C   UNL     1      33.273 -18.619 -21.730  0.00  0.00    +0.003 C 
ATOM     26  C   UNL     1      35.844 -18.995 -20.715  0.00  0.00    +0.000 C 
ATOM     27  C   UNL     1      34.356 -17.955 -22.307  0.00  0.00    +0.031 C 
ATOM     28  C   UNL     1      35.639 -18.143 -21.800  0.00  0.00    +0.003 C 
BRANCH  27  31
ATOM     29  N   UNL     1      34.650 -15.767 -23.443  0.00  0.00    -0.343 N 
ATOM     30  N   UNL     1      33.457 -17.484 -24.484  0.00  0.00    -0.285 NA
ATOM     31  C   UNL     1      34.144 -17.066 -23.437  0.00  0.00    +0.117 C 
ATOM     32  H   UNL     1      34.496 -15.182 -24.219  0.00  0.00    +0.144 HD
ATOM     33  H   UNL     1      35.164 -15.435 -22.671  0.00  0.00    +0.144 HD
ATOM     34  H   UNL     1      33.312 -16.884 -25.251  0.00  0.00    +0.188 HD
ENDBRANCH  27  31
ENDBRANCH   3  19
TORSDOF 4
ENDMDL
MODEL 3
REMARK VINA RESULT:     -11.4      7.650     14.821
REMARK  Name = 447731
REMARK  4 active torsions:
REMARK  status: ('A' for Active; 'I' for Inactive)
REMARK    1  A    between atoms: N_2  and  C_13
REMARK    2  A    between atoms: C_3  and  C_19
REMARK    3  A    between atoms: C_6  and  C_17
REMARK    4  A    between atoms: C_27  and  C_31
REMARK                            x       y       z     vdW  Elec       q    Type
REMARK                         _______ _______ _______ _____ _____    ______ ____
ROOT
ATOM      1  O   UNL     1      32.694 -12.367 -24.716  0.00  0.00    -0.270 OA
ATOM      2  N   UNL     1      33.444 -10.976 -22.974  0.00  0.00    -0.280 N 
ATOM      3  C   UNL     1      33.157 -12.200 -23.592  0.00  0.00    +0.249 C 
ATOM      4  H   UNL     1      33.815 -11.028 -22.064  0.00  0.00    +0.155 HD
ENDROOT
BRANCH   2  13
ATOM      5  N   UNL     1      31.356  -5.234 -25.028  0.00  0.00    +0.387 N 
ATOM      6  C   UNL     1      30.730  -6.824 -23.244  0.00  0.00    +0.001 C 
ATOM      7  C   UNL     1      31.960  -7.640 -23.616  0.00  0.00    -0.029 C 
ATOM      8  C   UNL     1      30.873  -5.345 -23.653  0.00  0.00    -0.077 C 
ATOM      9  C   UNL     1      32.891  -7.125 -24.541  0.00  0.00    -0.048 C 
ATOM     10  C   UNL     1      32.727  -5.741 -25.117  0.00  0.00    -0.055 C 
ATOM     11  C   UNL     1      32.152  -8.939 -23.118  0.00  0.00    +0.010 C 
ATOM     12  C   UNL     1      34.015  -7.885 -24.898  0.00  0.00    -0.005 C 
ATOM     13  C   UNL     1      33.268  -9.691 -23.491  0.00  0.00    +0.050 C 
ATOM     14  C   UNL     1      34.201  -9.162 -24.375  0.00  0.00    +0.014 C 
ATOM     15  H   UNL     1      31.338  -4.256 -25.316  0.00  0.00    -0.084 HD
ATOM     16  H   UNL     1      30.754  -5.785 -25.641  0.00  0.00    -0.084 HD
BRANCH   6  17
ATOM     17  C   UNL     1      30.380  -6.886 -21.753  0.00  0.00    +0.002 C 
ATOM     18  C   UNL     1      31.296  -5.999 -20.938  0.00  0.00    +0.000 C 
ENDBRANCH   6  17
ENDBRANCH   2  13
BRANCH   3  19
ATOM     19  C   UNL     1      33.429 -13.408 -22.770  0.00  0.00    +0.054 C 
ATOM     20  C   UNL     1      33.936 -15.756 -22.644  0.00  0.00    +0.000 C 
ATOM     21  C   UNL     1      33.937 -15.664 -21.231  0.00  0.00    +0.000 C 
ATOM     22  C   UNL     1      33.678 -14.605 -23.408  0.00  0.00    +0.005 C 
ATOM     23  C   UNL     1      33.424 -13.291 -21.398  0.00  0.00    +0.005 C 
ATOM     24  C   UNL     1      33.678 -14.423 -20.624  0.00  0.00    +0.000 C 
ATOM     25  C   UNL     1      34.194 -16.814 -20.468  0.00  0.00    +0.003 C 
ATOM     26  C   UNL     1      34.194 -16.995 -23.251  0.00  0.00    +0.000 C 
ATOM     27  C   UNL     1      34.448 -18.037 -21.087  0.00  0.00    +0.031 C 
ATOM     28  C   UNL     1      34.448 -18.127 -22.477  0.00  0.00    +0.003 C 
BRANCH  27  31
ATOM     29  N   UNL     1      33.718 -20.160 -20.028  0.00  0.00    -0.343 N 
ATOM     30  N   UNL     1      35.916 -19.412 -19.774  0.00  0.00    -0.285 NA
ATOM     31  C   UNL     1      34.713 -19.219 -20.283  0.00  0.00    +0.117 C 
ATOM     32  H   UNL     1      33.919 -20.954 -19.481  0.00  0.00    +0.144 HD
ATOM     33  H   UNL     1      32.814 -20.034 -20.396  0.00  0.00    +0.144 HD
ATOM     34  H   UNL     1      36.098 -20.211 -19.228  0.00  0.00    +0.188 HD
ENDBRANCH  27  31
ENDBRANCH   3  19
TORSDOF 4
ENDMDL
MODEL 4
REMARK VINA RESULT:     -10.9      2.189     10.213
REMARK  Name = 447731
REMARK  4 active torsions:
REMARK  status: ('A' for Active; 'I' for Inactive)
REMARK    1  A    between atoms: N_2  and  C_13
REMARK    2  A    between atoms: C_3  and  C_19
REMARK    3  A    between atoms: C_6  and  C_17
REMARK    4  A    between atoms: C_27  and  C_31
REMARK                            x       y       z     vdW  Elec       q    Type
REMARK                         _______ _______ _______ _____ _____    ______ ____
ROOT
ATOM      1  O   UNL     1      32.058 -20.613 -19.885  0.00  0.00    -0.270 OA
ATOM      2  N   UNL     1      34.216 -19.678 -19.910  0.00  0.00    -0.280 N 
ATOM      3  C   UNL     1      33.189 -20.498 -19.425  0.00  0.00    +0.249 C 
ATOM      4  H   UNL     1      35.066 -19.711 -19.415  0.00  0.00    +0.155 HD
ENDROOT
BRANCH   2  13
ATOM      5  N   UNL     1      33.231 -14.999 -24.232  0.00  0.00    +0.387 N 
ATOM      6  C   UNL     1      33.300 -15.163 -21.768  0.00  0.00    +0.001 C 
ATOM      7  C   UNL     1      33.759 -16.605 -21.933  0.00  0.00    -0.029 C 
ATOM      8  C   UNL     1      33.629 -14.308 -23.008  0.00  0.00    -0.077 C 
ATOM      9  C   UNL     1      34.085 -17.098 -23.213  0.00  0.00    -0.048 C 
ATOM     10  C   UNL     1      34.056 -16.195 -24.421  0.00  0.00    -0.055 C 
ATOM     11  C   UNL     1      33.790 -17.490 -20.843  0.00  0.00    +0.010 C 
ATOM     12  C   UNL     1      34.490 -18.432 -23.367  0.00  0.00    -0.005 C 
ATOM     13  C   UNL     1      34.182 -18.820 -21.011  0.00  0.00    +0.050 C 
ATOM     14  C   UNL     1      34.537 -19.288 -22.271  0.00  0.00    +0.014 C 
ATOM     15  H   UNL     1      33.354 -14.374 -25.029  0.00  0.00    -0.084 HD
ATOM     16  H   UNL     1      32.251 -15.276 -24.158  0.00  0.00    -0.084 HD
BRANCH   6  17
ATOM     17  C   UNL     1      33.880 -14.471 -20.530  0.00  0.00    +0.002 C 
ATOM     18  C   UNL     1      32.871 -13.533 -19.905  0.00  0.00    +0.000 C 
ENDBRANCH   6  17
ENDBRANCH   2  13
BRANCH   3  19
ATOM     19  C   UNL     1      33.523 -21.283 -18.208  0.00  0.00    +0.054 C 
ATOM     20  C   UNL     1      35.138 -21.962 -16.560  0.00  0.00    +0.000 C 
ATOM     21  C   UNL     1      34.144 -22.751 -15.934  0.00  0.00    +0.000 C 
ATOM     22  C   UNL     1      34.807 -21.225 -17.710  0.00  0.00    +0.005 C 
ATOM     23  C   UNL     1      32.538 -22.043 -17.618  0.00  0.00    +0.005 C 
ATOM     24  C   UNL     1      32.848 -22.781 -16.477  0.00  0.00    +0.000 C 
ATOM     25  C   UNL     1      34.474 -23.489 -14.785  0.00  0.00    +0.003 C 
ATOM     26  C   UNL     1      36.433 -21.933 -16.018  0.00  0.00    +0.000 C 
ATOM     27  C   UNL     1      35.766 -23.448 -14.260  0.00  0.00    +0.031 C 
ATOM     28  C   UNL     1      36.743 -22.671 -14.876  0.00  0.00    +0.003 C 
BRANCH  27  31
ATOM     29  N   UNL     1      35.310 -25.299 -12.670  0.00  0.00    -0.343 N 
ATOM     30  N   UNL     1      37.144 -23.890 -12.343  0.00  0.00    -0.285 NA
ATOM     31  C   UNL     1      36.091 -24.216 -13.070  0.00  0.00    +0.117 C 
ATOM     32  H   UNL     1      35.549 -25.806 -11.861  0.00  0.00    +0.144 HD
ATOM     33  H   UNL     1      34.519 -25.557 -13.197  0.00  0.00    +0.144 HD
ATOM     34  H   UNL     1      37.366 -24.409 -11.536  0.00  0.00    +0.188 HD
ENDBRANCH  27  31
ENDBRANCH   3  19
TORSDOF 4
ENDMDL
MODEL 5
REMARK VINA RESULT:     -10.8      7.894     14.766
REMARK  Name = 447731
REMARK  4 active torsions:
REMARK  status: ('A' for Active; 'I' for Inactive)
REMARK    1  A    between atoms: N_2  and  C_13
REMARK    2  A    between atoms: C_3  and  C_19
REMARK    3  A    between atoms: C_6  and  C_17
REMARK    4  A    between atoms: C_27  and  C_31
REMARK                            x       y       z     vdW  Elec       q    Type
REMARK                         _______ _______ _______ _____ _____    ______ ____
ROOT
ATOM      1  O   UNL     1      32.507 -11.607 -25.283  0.00  0.00    -0.270 OA
ATOM      2  N   UNL     1      33.404 -10.796 -23.266  0.00  0.00    -0.280 N 
ATOM      3  C   UNL     1      33.027 -11.783 -24.187  0.00  0.00    +0.249 C 
ATOM      4  H   UNL     1      33.812 -11.119 -22.430  0.00  0.00    +0.155 HD
ENDROOT
BRANCH   2  13
ATOM      5  N   UNL     1      31.619  -4.603 -23.245  0.00  0.00    +0.387 N 
ATOM      6  C   UNL     1      31.231  -6.574 -21.807  0.00  0.00    +0.001 C 
ATOM      7  C   UNL     1      32.232  -7.330 -22.669  0.00  0.00    -0.029 C 
ATOM      8  C   UNL     1      31.456  -5.050 -21.863  0.00  0.00    -0.077 C 
ATOM      9  C   UNL     1      32.981  -6.641 -23.645  0.00  0.00    -0.048 C 
ATOM     10  C   UNL     1      32.860  -5.146 -23.803  0.00  0.00    -0.055 C 
ATOM     11  C   UNL     1      32.373  -8.724 -22.571  0.00  0.00    +0.010 C 
ATOM     12  C   UNL     1      33.891  -7.341 -24.452  0.00  0.00    -0.005 C 
ATOM     13  C   UNL     1      33.273  -9.412 -23.389  0.00  0.00    +0.050 C 
ATOM     14  C   UNL     1      34.035  -8.720 -24.324  0.00  0.00    +0.014 C 
ATOM     15  H   UNL     1      31.655  -3.584 -23.269  0.00  0.00    -0.084 HD
ATOM     16  H   UNL     1      30.829  -4.934 -23.800  0.00  0.00    -0.084 HD
BRANCH   6  17
ATOM     17  C   UNL     1      31.229  -7.014 -20.339  0.00  0.00    +0.002 C 
ATOM     18  C   UNL     1      31.423  -5.831 -19.414  0.00  0.00    +0.000 C 
ENDBRANCH   6  17
ENDBRANCH   2  13
BRANCH   3  19
ATOM     19  C   UNL     1      33.272 -13.184 -23.755  0.00  0.00    +0.054 C 
ATOM     20  C   UNL     1      33.705 -14.761 -21.990  0.00  0.00    +0.000 C 
ATOM     21  C   UNL     1      33.729 -15.802 -22.949  0.00  0.00    +0.000 C 
ATOM     22  C   UNL     1      33.473 -13.441 -22.415  0.00  0.00    +0.005 C 
ATOM     23  C   UNL     1      33.290 -14.178 -24.707  0.00  0.00    +0.005 C 
ATOM     24  C   UNL     1      33.520 -15.493 -24.304  0.00  0.00    +0.000 C 
ATOM     25  C   UNL     1      33.962 -17.121 -22.526  0.00  0.00    +0.003 C 
ATOM     26  C   UNL     1      33.915 -15.069 -20.637  0.00  0.00    +0.000 C 
ATOM     27  C   UNL     1      34.168 -17.409 -21.177  0.00  0.00    +0.031 C 
ATOM     28  C   UNL     1      34.144 -16.384 -20.234  0.00  0.00    +0.003 C 
BRANCH  27  31
ATOM     29  N   UNL     1      35.534 -19.121 -20.008  0.00  0.00    -0.343 N 
ATOM     30  N   UNL     1      33.552 -19.728 -21.083  0.00  0.00    -0.285 NA
ATOM     31  C   UNL     1      34.408 -18.779 -20.755  0.00  0.00    +0.117 C 
ATOM     32  H   UNL     1      35.677 -20.055 -19.732  0.00  0.00    +0.144 HD
ATOM     33  H   UNL     1      36.186 -18.428 -19.754  0.00  0.00    +0.144 HD
ATOM     34  H   UNL     1      33.712 -20.657 -20.799  0.00  0.00    +0.188 HD
ENDBRANCH  27  31
ENDBRANCH   3  19
TORSDOF 4
ENDMDL
MODEL 6
REMARK VINA RESULT:     -10.6      2.663      4.699
REMARK  Name = 447731
REMARK  4 active torsions:
REMARK  status: ('A' for Active; 'I' for Inactive)
REMARK    1  A    between atoms: N_2  and  C_13
REMARK    2  A    between atoms: C_3  and  C_19
REMARK    3  A    between atoms: C_6  and  C_17
REMARK    4  A    between atoms: C_27  and  C_31
REMARK                            x       y       z     vdW  Elec       q    Type
REMARK                         _______ _______ _______ _____ _____    ______ ____
ROOT
ATOM      1  O   UNL     1      36.465 -19.021 -19.515  0.00  0.00    -0.270 OA
ATOM      2  N   UNL     1      34.488 -20.243 -19.160  0.00  0.00    -0.280 N 
ATOM      3  C   UNL     1      35.316 -19.325 -19.817  0.00  0.00    +0.249 C 
ATOM      4  H   UNL     1      33.588 -20.365 -19.542  0.00  0.00    +0.155 HD
ENDROOT
BRANCH   2  13
ATOM      5  N   UNL     1      34.598 -23.455 -13.572  0.00  0.00    +0.387 N 
ATOM      6  C   UNL     1      32.889 -22.868 -15.257  0.00  0.00    +0.001 C 
ATOM      7  C   UNL     1      34.012 -22.316 -16.123  0.00  0.00    -0.029 C 
ATOM      8  C   UNL     1      33.396 -23.927 -14.258  0.00  0.00    -0.077 C 
ATOM      9  C   UNL     1      35.355 -22.517 -15.744  0.00  0.00    -0.048 C 
ATOM     10  C   UNL     1      35.703 -23.336 -14.527  0.00  0.00    -0.055 C 
ATOM     11  C   UNL     1      33.742 -21.535 -17.258  0.00  0.00    +0.010 C 
ATOM     12  C   UNL     1      36.390 -21.992 -16.533  0.00  0.00    -0.005 C 
ATOM     13  C   UNL     1      34.780 -21.007 -18.028  0.00  0.00    +0.050 C 
ATOM     14  C   UNL     1      36.103 -21.240 -17.669  0.00  0.00    +0.014 C 
ATOM     15  H   UNL     1      34.853 -24.119 -12.841  0.00  0.00    -0.084 HD
ATOM     16  H   UNL     1      34.411 -22.541 -13.159  0.00  0.00    -0.084 HD
BRANCH   6  17
ATOM     17  C   UNL     1      31.732 -23.471 -16.062  0.00  0.00    +0.002 C 
ATOM     18  C   UNL     1      30.417 -22.811 -15.706  0.00  0.00    +0.000 C 
ENDBRANCH   6  17
ENDBRANCH   2  13
BRANCH   3  19
ATOM     19  C   UNL     1      34.706 -18.641 -20.988  0.00  0.00    +0.054 C 
ATOM     20  C   UNL     1      34.065 -16.602 -22.091  0.00  0.00    +0.000 C 
ATOM     21  C   UNL     1      33.566 -17.365 -23.175  0.00  0.00    +0.000 C 
ATOM     22  C   UNL     1      34.639 -17.263 -20.993  0.00  0.00    +0.005 C 
ATOM     23  C   UNL     1      34.228 -19.405 -22.027  0.00  0.00    +0.005 C 
ATOM     24  C   UNL     1      33.654 -18.766 -23.126  0.00  0.00    +0.000 C 
ATOM     25  C   UNL     1      32.991 -16.704 -24.273  0.00  0.00    +0.003 C 
ATOM     26  C   UNL     1      33.975 -15.202 -22.139  0.00  0.00    +0.000 C 
ATOM     27  C   UNL     1      32.910 -15.312 -24.303  0.00  0.00    +0.031 C 
ATOM     28  C   UNL     1      33.402 -14.562 -23.238  0.00  0.00    +0.003 C 
BRANCH  27  31
ATOM     29  N   UNL     1      32.715 -13.366 -25.832  0.00  0.00    -0.343 N 
ATOM     30  N   UNL     1      31.367 -15.247 -26.143  0.00  0.00    -0.285 NA
ATOM     31  C   UNL     1      32.313 -14.643 -25.448  0.00  0.00    +0.117 C 
ATOM     32  H   UNL     1      32.298 -12.931 -26.611  0.00  0.00    +0.144 HD
ATOM     33  H   UNL     1      33.418 -12.897 -25.325  0.00  0.00    +0.144 HD
ATOM     34  H   UNL     1      30.960 -14.796 -26.918  0.00  0.00    +0.188 HD
ENDBRANCH  27  31
ENDBRANCH   3  19
TORSDOF 4
ENDMDL
MODEL 7
REMARK VINA RESULT:     -10.5      9.143     14.234
REMARK  Name = 447731
REMARK  4 active torsions:
REMARK  status: ('A' for Active; 'I' for Inactive)
REMARK    1  A    between atoms: N_2  and  C_13
REMARK    2  A    between atoms: C_3  and  C_19
REMARK    3  A    between atoms: C_6  and  C_17
REMARK    4  A    between atoms: C_27  and  C_31
REMARK                            x       y       z     vdW  Elec       q    Type
REMARK                         _______ _______ _______ _____ _____    ______ ____
ROOT
ATOM      1  O   UNL     1      34.561 -10.027 -24.673  0.00  0.00    -0.270 OA
ATOM      2  N   UNL     1      32.765 -10.940 -23.460  0.00  0.00    -0.280 N 
ATOM      3  C   UNL     1      33.549  -9.907 -23.989  0.00  0.00    +0.249 C 
ATOM      4  H   UNL     1      31.982 -10.661 -22.932  0.00  0.00    +0.155 HD
ENDROOT
BRANCH   2  13
ATOM      5  N   UNL     1      34.489 -17.136 -23.040  0.00  0.00    +0.387 N 
ATOM      6  C   UNL     1      34.239 -15.246 -21.470  0.00  0.00    +0.001 C 
ATOM      7  C   UNL     1      33.654 -14.440 -22.621  0.00  0.00    -0.029 C 
ATOM      8  C   UNL     1      34.079 -16.764 -21.688  0.00  0.00    -0.077 C 
ATOM      9  C   UNL     1      33.368 -15.072 -23.848  0.00  0.00    -0.048 C 
ATOM     10  C   UNL     1      33.566 -16.557 -24.019  0.00  0.00    -0.055 C 
ATOM     11  C   UNL     1      33.464 -13.052 -22.517  0.00  0.00    +0.010 C 
ATOM     12  C   UNL     1      32.846 -14.325 -24.915  0.00  0.00    -0.005 C 
ATOM     13  C   UNL     1      32.956 -12.317 -23.590  0.00  0.00    +0.050 C 
ATOM     14  C   UNL     1      32.642 -12.954 -24.785  0.00  0.00    +0.014 C 
ATOM     15  H   UNL     1      34.481 -18.153 -23.128  0.00  0.00    -0.084 HD
ATOM     16  H   UNL     1      35.430 -16.782 -23.216  0.00  0.00    -0.084 HD
BRANCH   6  17
ATOM     17  C   UNL     1      33.647 -14.884 -20.103  0.00  0.00    +0.002 C 
ATOM     18  C   UNL     1      32.390 -14.056 -20.253  0.00  0.00    +0.000 C 
ENDBRANCH   6  17
ENDBRANCH   2  13
BRANCH   3  19
ATOM     19  C   UNL     1      33.102  -8.531 -23.652  0.00  0.00    +0.054 C 
ATOM     20  C   UNL     1      31.461  -7.068 -22.675  0.00  0.00    +0.000 C 
ATOM     21  C   UNL     1      32.268  -5.958 -23.022  0.00  0.00    +0.000 C 
ATOM     22  C   UNL     1      31.898  -8.363 -23.001  0.00  0.00    +0.005 C 
ATOM     23  C   UNL     1      33.905  -7.469 -24.000  0.00  0.00    +0.005 C 
ATOM     24  C   UNL     1      33.488  -6.176 -23.685  0.00  0.00    +0.000 C 
ATOM     25  C   UNL     1      31.832  -4.663 -22.697  0.00  0.00    +0.003 C 
ATOM     26  C   UNL     1      30.243  -6.850 -22.013  0.00  0.00    +0.000 C 
ATOM     27  C   UNL     1      30.618  -4.465 -22.039  0.00  0.00    +0.031 C 
ATOM     28  C   UNL     1      29.825  -5.558 -21.698  0.00  0.00    +0.003 C 
BRANCH  27  31
ATOM     29  N   UNL     1      29.045  -2.895 -20.933  0.00  0.00    -0.343 N 
ATOM     30  N   UNL     1      30.862  -2.078 -22.153  0.00  0.00    -0.285 NA
ATOM     31  C   UNL     1      30.181  -3.118 -21.710  0.00  0.00    +0.117 C 
ATOM     32  H   UNL     1      28.767  -1.975 -20.721  0.00  0.00    +0.144 HD
ATOM     33  H   UNL     1      28.522  -3.657 -20.595  0.00  0.00    +0.144 HD
ATOM     34  H   UNL     1      30.568  -1.165 -21.931  0.00  0.00    +0.188 HD
ENDBRANCH  27  31
ENDBRANCH   3  19
TORSDOF 4
ENDMDL
MODEL 8
REMARK VINA RESULT:     -10.4      2.746     10.356
REMARK  Name = 447731
REMARK  4 active torsions:
REMARK  status: ('A' for Active; 'I' for Inactive)
REMARK    1  A    between atoms: N_2  and  C_13
REMARK    2  A    between atoms: C_3  and  C_19
REMARK    3  A    between atoms: C_6  and  C_17
REMARK    4  A    between atoms: C_27  and  C_31
REMARK                            x       y       z     vdW  Elec       q    Type
REMARK                         _______ _______ _______ _____ _____    ______ ____
ROOT
ATOM      1  O   UNL     1      36.065 -20.881 -19.933  0.00  0.00    -0.270 OA
ATOM      2  N   UNL     1      34.127 -19.568 -19.707  0.00  0.00    -0.280 N 
ATOM      3  C   UNL     1      35.057 -20.542 -19.322  0.00  0.00    +0.249 C 
ATOM      4  H   UNL     1      33.372 -19.424 -19.092  0.00  0.00    +0.155 HD
ENDROOT
BRANCH   2  13
ATOM      5  N   UNL     1      33.350 -15.140 -24.326  0.00  0.00    +0.387 N 
ATOM      6  C   UNL     1      33.352 -15.157 -21.856  0.00  0.00    +0.001 C 
ATOM      7  C   UNL     1      33.785 -16.614 -21.922  0.00  0.00    -0.029 C 
ATOM      8  C   UNL     1      33.730 -14.384 -23.135  0.00  0.00    -0.077 C 
ATOM      9  C   UNL     1      34.134 -17.189 -23.161  0.00  0.00    -0.048 C 
ATOM     10  C   UNL     1      34.155 -16.360 -24.421  0.00  0.00    -0.055 C 
ATOM     11  C   UNL     1      33.770 -17.432 -20.780  0.00  0.00    +0.010 C 
ATOM     12  C   UNL     1      34.516 -18.537 -23.224  0.00  0.00    -0.005 C 
ATOM     13  C   UNL     1      34.139 -18.777 -20.858  0.00  0.00    +0.050 C 
ATOM     14  C   UNL     1      34.517 -19.327 -22.077  0.00  0.00    +0.014 C 
ATOM     15  H   UNL     1      33.507 -14.566 -25.155  0.00  0.00    -0.084 HD
ATOM     16  H   UNL     1      32.364 -15.393 -24.262  0.00  0.00    -0.084 HD
BRANCH   6  17
ATOM     17  C   UNL     1      33.914 -14.402 -20.645  0.00  0.00    +0.002 C 
ATOM     18  C   UNL     1      32.823 -13.648 -19.916  0.00  0.00    +0.000 C 
ENDBRANCH   6  17
ENDBRANCH   2  13
BRANCH   3  19
ATOM     19  C   UNL     1      34.754 -21.242 -18.046  0.00  0.00    +0.054 C 
ATOM     20  C   UNL     1      33.165 -22.347 -16.617  0.00  0.00    +0.000 C 
ATOM     21  C   UNL     1      34.190 -22.550 -15.662  0.00  0.00    +0.000 C 
ATOM     22  C   UNL     1      33.467 -21.683 -17.818  0.00  0.00    +0.005 C 
ATOM     23  C   UNL     1      35.768 -21.427 -17.134  0.00  0.00    +0.005 C 
ATOM     24  C   UNL     1      35.487 -22.083 -15.936  0.00  0.00    +0.000 C 
ATOM     25  C   UNL     1      33.889 -23.212 -14.461  0.00  0.00    +0.003 C 
ATOM     26  C   UNL     1      31.869 -22.812 -16.343  0.00  0.00    +0.000 C 
ATOM     27  C   UNL     1      32.595 -23.668 -14.205  0.00  0.00    +0.031 C 
ATOM     28  C   UNL     1      31.588 -23.468 -15.145  0.00  0.00    +0.003 C 
BRANCH  27  31
ATOM     29  N   UNL     1      31.086 -25.008 -12.759  0.00  0.00    -0.343 N 
ATOM     30  N   UNL     1      33.189 -24.356 -11.981  0.00  0.00    -0.285 NA
ATOM     31  C   UNL     1      32.299 -24.352 -12.956  0.00  0.00    +0.117 C 
ATOM     32  H   UNL     1      30.906 -25.465 -11.906  0.00  0.00    +0.144 HD
ATOM     33  H   UNL     1      30.408 -25.014 -13.474  0.00  0.00    +0.144 HD
ATOM     34  H   UNL     1      32.991 -24.818 -11.135  0.00  0.00    +0.188 HD
ENDBRANCH  27  31
ENDBRANCH   3  19
TORSDOF 4
ENDMDL
MODEL 9
REMARK VINA RESULT:     -10.2      8.313     15.066
REMARK  Name = 447731
REMARK  4 active torsions:
REMARK  status: ('A' for Active; 'I' for Inactive)
REMARK    1  A    between atoms: N_2  and  C_13
REMARK    2  A    between atoms: C_3  and  C_19
REMARK    3  A    between atoms: C_6  and  C_17
REMARK    4  A    between atoms: C_27  and  C_31
REMARK                            x       y       z     vdW  Elec       q    Type
REMARK                         _______ _______ _______ _____ _____    ______ ____
ROOT
ATOM      1  O   UNL     1      32.722 -11.099 -23.947  0.00  0.00    -0.270 OA
ATOM      2  N   UNL     1      32.128 -10.279 -21.825  0.00  0.00    -0.280 N 
ATOM      3  C   UNL     1      32.607 -11.232 -22.733  0.00  0.00    +0.249 C 
ATOM      4  H   UNL     1      32.104 -10.557 -20.880  0.00  0.00    +0.155 HD
ENDROOT
BRANCH   2  13
ATOM      5  N   UNL     1      31.341  -3.983 -22.955  0.00  0.00    +0.387 N 
ATOM      6  C   UNL     1      33.111  -5.658 -23.358  0.00  0.00    +0.001 C 
ATOM      7  C   UNL     1      32.140  -6.721 -22.865  0.00  0.00    -0.029 C 
ATOM      8  C   UNL     1      32.380  -4.410 -23.891  0.00  0.00    -0.077 C 
ATOM      9  C   UNL     1      30.795  -6.382 -22.612  0.00  0.00    -0.048 C 
ATOM     10  C   UNL     1      30.281  -4.992 -22.892  0.00  0.00    -0.055 C 
ATOM     11  C   UNL     1      32.572  -8.026 -22.576  0.00  0.00    +0.010 C 
ATOM     12  C   UNL     1      29.905  -7.357 -22.140  0.00  0.00    -0.005 C 
ATOM     13  C   UNL     1      31.678  -8.985 -22.094  0.00  0.00    +0.050 C 
ATOM     14  C   UNL     1      30.345  -8.653 -21.882  0.00  0.00    +0.014 C 
ATOM     15  H   UNL     1      30.946  -3.096 -23.270  0.00  0.00    -0.084 HD
ATOM     16  H   UNL     1      31.751  -3.868 -22.028  0.00  0.00    -0.084 HD
BRANCH   6  17
ATOM     17  C   UNL     1      34.073  -6.159 -24.442  0.00  0.00    +0.002 C 
ATOM     18  C   UNL     1      34.497  -5.033 -25.360  0.00  0.00    +0.000 C 
ENDBRANCH   6  17
ENDBRANCH   2  13
BRANCH   3  19
ATOM     19  C   UNL     1      32.988 -12.541 -22.142  0.00  0.00    +0.054 C 
ATOM     20  C   UNL     1      33.796 -14.788 -22.434  0.00  0.00    +0.000 C 
ATOM     21  C   UNL     1      33.697 -14.988 -21.036  0.00  0.00    +0.000 C 
ATOM     22  C   UNL     1      33.433 -13.544 -22.977  0.00  0.00    +0.005 C 
ATOM     23  C   UNL     1      32.882 -12.710 -20.780  0.00  0.00    +0.005 C 
ATOM     24  C   UNL     1      33.238 -13.938 -20.223  0.00  0.00    +0.000 C 
ATOM     25  C   UNL     1      34.059 -16.231 -20.492  0.00  0.00    +0.003 C 
ATOM     26  C   UNL     1      34.254 -15.837 -23.246  0.00  0.00    +0.000 C 
ATOM     27  C   UNL     1      34.512 -17.263 -21.314  0.00  0.00    +0.031 C 
ATOM     28  C   UNL     1      34.610 -17.065 -22.689  0.00  0.00    +0.003 C 
BRANCH  27  31
ATOM     29  N   UNL     1      33.985 -19.608 -20.694  0.00  0.00    -0.343 N 
ATOM     30  N   UNL     1      36.092 -18.713 -20.233  0.00  0.00    -0.285 NA
ATOM     31  C   UNL     1      34.884 -18.544 -20.736  0.00  0.00    +0.117 C 
ATOM     32  H   UNL     1      34.257 -20.467 -20.298  0.00  0.00    +0.144 HD
ATOM     33  H   UNL     1      33.077 -19.501 -21.062  0.00  0.00    +0.144 HD
ATOM     34  H   UNL     1      36.346 -19.580 -19.840  0.00  0.00    +0.188 HD
ENDBRANCH  27  31
ENDBRANCH   3  19
TORSDOF 4
ENDMDL
