MODEL 1
REMARK VINA RESULT:     -12.1      0.000      0.000
REMARK  Name = 23635314
REMARK  9 active torsions:
REMARK  status: ('A' for Active; 'I' for Inactive)
REMARK    1  A    between atoms: C_2  and  C_8
REMARK    2  A    between atoms: C_3  and  C_23
REMARK    3  A    between atoms: C_7  and  O_13
REMARK    4  A    between atoms: O_13  and  C_14
REMARK    5  A    between atoms: C_14  and  C_15
REMARK    6  A    between atoms: C_15  and  N_17
REMARK    7  A    between atoms: C_23  and  C_26
REMARK    8  A    between atoms: N_25  and  C_28
REMARK    9  A    between atoms: C_28  and  C_29
REMARK                            x       y       z     vdW  Elec       q    Type
REMARK                         _______ _______ _______ _____ _____    ______ ____
ROOT
ATOM      1  N   UNL     1      34.556 -16.684 -22.075  0.00  0.00    -0.248 NA
ATOM      2  C   UNL     1      33.948 -18.882 -21.279  0.00  0.00    +0.019 C 
ATOM      3  C   UNL     1      34.059 -17.036 -23.281  0.00  0.00    +0.068 C 
ATOM      4  C   UNL     1      33.447 -19.208 -22.533  0.00  0.00    +0.003 C 
ATOM      5  C   UNL     1      34.487 -17.619 -21.101  0.00  0.00    +0.098 C 
ATOM      6  C   UNL     1      33.500 -18.273 -23.559  0.00  0.00    +0.015 C 
ENDROOT
BRANCH   2   8
ATOM      7  C   UNL     1      33.827 -21.663 -18.097  0.00  0.00    +0.138 C 
ATOM      8  C   UNL     1      33.907 -19.833 -20.190  0.00  0.00    +0.002 C 
ATOM      9  C   UNL     1      35.054 -21.226 -18.584  0.00  0.00    +0.037 C 
ATOM     10  C   UNL     1      32.639 -21.194 -18.648  0.00  0.00    +0.037 C 
ATOM     11  C   UNL     1      35.094 -20.308 -19.633  0.00  0.00    +0.003 C 
ATOM     12  C   UNL     1      32.680 -20.277 -19.697  0.00  0.00    +0.003 C 
BRANCH   7  13
ATOM     13  O   UNL     1      33.788 -22.565 -17.067  0.00  0.00    -0.478 OA
BRANCH  13  14
ATOM     14  C   UNL     1      32.515 -22.820 -16.487  0.00  0.00    +0.183 C 
BRANCH  14  15
ATOM     15  C   UNL     1      32.679 -22.937 -14.980  0.00  0.00    -0.029 C 
BRANCH  15  17
ATOM     16  O   UNL     1      28.800 -24.062 -13.840  0.00  0.00    -0.358 OA
ATOM     17  N   UNL     1      31.376 -22.952 -14.319  0.00  0.00    +0.393 N 
ATOM     18  C   UNL     1      30.290 -22.825 -15.300  0.00  0.00    -0.044 C 
ATOM     19  C   UNL     1      31.203 -24.181 -13.532  0.00  0.00    -0.044 C 
ATOM     20  C   UNL     1      28.942 -22.854 -14.587  0.00  0.00    +0.119 C 
ATOM     21  C   UNL     1      29.833 -24.178 -12.861  0.00  0.00    +0.119 C 
ATOM     22  H   UNL     1      31.338 -22.152 -13.686  0.00  0.00    -0.079 HD
ENDBRANCH  15  17
ENDBRANCH  14  15
ENDBRANCH  13  14
ENDBRANCH   7  13
ENDBRANCH   2   8
BRANCH   3  23
ATOM     23  C   UNL     1      34.134 -16.007 -24.361  0.00  0.00    +0.131 C 
BRANCH  23  26
ATOM     24  O   UNL     1      32.042 -14.810 -24.606  0.00  0.00    -0.275 OA
ATOM     25  N   UNL     1      33.771 -13.816 -23.417  0.00  0.00    -0.300 N 
ATOM     26  C   UNL     1      33.185 -14.835 -24.157  0.00  0.00    +0.229 C 
ATOM     27  H   UNL     1      34.696 -13.934 -23.101  0.00  0.00    +0.150 HD
BRANCH  25  28
ATOM     28  C   UNL     1      33.076 -12.593 -23.091  0.00  0.00    +0.116 C 
BRANCH  28  29
ATOM     29  C   UNL     1      32.356 -12.690 -21.776  0.00  0.00    -0.003 C 
ATOM     30  C   UNL     1      31.436 -11.710 -21.423  0.00  0.00    -0.003 C 
ATOM     31  C   UNL     1      32.617 -13.759 -20.927  0.00  0.00    -0.003 C 
ATOM     32  C   UNL     1      30.767 -11.799 -20.202  0.00  0.00    -0.000 C 
ATOM     33  C   UNL     1      31.948 -13.848 -19.706  0.00  0.00    -0.000 C 
ATOM     34  C   UNL     1      31.023 -12.867 -19.343  0.00  0.00    -0.000 C 
ENDBRANCH  28  29
ENDBRANCH  25  28
ENDBRANCH  23  26
ENDBRANCH   3  23
TORSDOF 9
ENDMDL
MODEL 2
REMARK VINA RESULT:     -12.0      2.181     10.984
REMARK  Name = 23635314
REMARK  9 active torsions:
REMARK  status: ('A' for Active; 'I' for Inactive)
REMARK    1  A    between atoms: C_2  and  C_8
REMARK    2  A    between atoms: C_3  and  C_23
REMARK    3  A    between atoms: C_7  and  O_13
REMARK    4  A    between atoms: O_13  and  C_14
REMARK    5  A    between atoms: C_14  and  C_15
REMARK    6  A    between atoms: C_15  and  N_17
REMARK    7  A    between atoms: C_23  and  C_26
REMARK    8  A    between atoms: N_25  and  C_28
REMARK    9  A    between atoms: C_28  and  C_29
REMARK                            x       y       z     vdW  Elec       q    Type
REMARK                         _______ _______ _______ _____ _____    ______ ____
ROOT
ATOM      1  N   UNL     1      33.281 -23.528 -15.614  0.00  0.00    -0.248 NA
ATOM      2  C   UNL     1      34.138 -21.909 -17.189  0.00  0.00    +0.019 C 
ATOM      3  C   UNL     1      34.444 -23.410 -14.934  0.00  0.00    +0.068 C 
ATOM      4  C   UNL     1      35.320 -21.814 -16.464  0.00  0.00    +0.003 C 
ATOM      5  C   UNL     1      33.157 -22.771 -16.727  0.00  0.00    +0.098 C 
ATOM      6  C   UNL     1      35.483 -22.577 -15.314  0.00  0.00    +0.015 C 
ENDROOT
BRANCH   2   8
ATOM      7  C   UNL     1      33.551 -19.629 -20.700  0.00  0.00    +0.138 C 
ATOM      8  C   UNL     1      33.937 -21.128 -18.390  0.00  0.00    +0.002 C 
ATOM      9  C   UNL     1      32.451 -20.119 -20.005  0.00  0.00    +0.037 C 
ATOM     10  C   UNL     1      34.843 -19.882 -20.251  0.00  0.00    +0.037 C 
ATOM     11  C   UNL     1      32.644 -20.870 -18.847  0.00  0.00    +0.003 C 
ATOM     12  C   UNL     1      35.036 -20.634 -19.093  0.00  0.00    +0.003 C 
BRANCH   7  13
ATOM     13  O   UNL     1      33.361 -18.891 -21.839  0.00  0.00    -0.478 OA
BRANCH  13  14
ATOM     14  C   UNL     1      34.183 -17.742 -22.002  0.00  0.00    +0.183 C 
BRANCH  14  15
ATOM     15  C   UNL     1      34.079 -17.267 -23.442  0.00  0.00    -0.029 C 
BRANCH  15  17
ATOM     16  O   UNL     1      32.450 -13.422 -23.020  0.00  0.00    -0.358 OA
ATOM     17  N   UNL     1      33.914 -15.816 -23.496  0.00  0.00    +0.393 N 
ATOM     18  C   UNL     1      32.747 -15.453 -24.312  0.00  0.00    -0.044 C 
ATOM     19  C   UNL     1      33.777 -15.255 -22.145  0.00  0.00    -0.044 C 
ATOM     20  C   UNL     1      32.589 -13.936 -24.345  0.00  0.00    +0.119 C 
ATOM     21  C   UNL     1      33.595 -13.742 -22.228  0.00  0.00    +0.119 C 
ATOM     22  H   UNL     1      34.749 -15.423 -23.930  0.00  0.00    -0.079 HD
ENDBRANCH  15  17
ENDBRANCH  14  15
ENDBRANCH  13  14
ENDBRANCH   7  13
ENDBRANCH   2   8
BRANCH   3  23
ATOM     23  C   UNL     1      34.586 -24.244 -13.704  0.00  0.00    +0.131 C 
BRANCH  23  26
ATOM     24  O   UNL     1      33.481 -23.641 -11.635  0.00  0.00    -0.275 OA
ATOM     25  N   UNL     1      32.247 -24.682 -13.303  0.00  0.00    -0.300 N 
ATOM     26  C   UNL     1      33.402 -24.142 -12.754  0.00  0.00    +0.229 C 
ATOM     27  H   UNL     1      32.288 -25.060 -14.212  0.00  0.00    +0.150 HD
BRANCH  25  28
ATOM     28  C   UNL     1      30.988 -24.709 -12.596  0.00  0.00    +0.116 C 
BRANCH  28  29
ATOM     29  C   UNL     1      29.869 -24.140 -13.421  0.00  0.00    -0.003 C 
ATOM     30  C   UNL     1      29.821 -22.773 -13.664  0.00  0.00    -0.003 C 
ATOM     31  C   UNL     1      28.893 -24.988 -13.932  0.00  0.00    -0.003 C 
ATOM     32  C   UNL     1      28.782 -22.245 -14.430  0.00  0.00    -0.000 C 
ATOM     33  C   UNL     1      27.854 -24.459 -14.698  0.00  0.00    -0.000 C 
ATOM     34  C   UNL     1      27.798 -23.087 -14.947  0.00  0.00    -0.000 C 
ENDBRANCH  28  29
ENDBRANCH  25  28
ENDBRANCH  23  26
ENDBRANCH   3  23
TORSDOF 9
ENDMDL
MODEL 3
REMARK VINA RESULT:     -11.9      1.958      3.158
REMARK  Name = 23635314
REMARK  9 active torsions:
REMARK  status: ('A' for Active; 'I' for Inactive)
REMARK    1  A    between atoms: C_2  and  C_8
REMARK    2  A    between atoms: C_3  and  C_23
REMARK    3  A    between atoms: C_7  and  O_13
REMARK    4  A    between atoms: O_13  and  C_14
REMARK    5  A    between atoms: C_14  and  C_15
REMARK    6  A    between atoms: C_15  and  N_17
REMARK    7  A    between atoms: C_23  and  C_26
REMARK    8  A    between atoms: N_25  and  C_28
REMARK    9  A    between atoms: C_28  and  C_29
REMARK                            x       y       z     vdW  Elec       q    Type
REMARK                         _______ _______ _______ _____ _____    ______ ____
ROOT
ATOM      1  N   UNL     1      34.538 -16.778 -21.864  0.00  0.00    -0.248 NA
ATOM      2  C   UNL     1      33.890 -18.986 -21.129  0.00  0.00    +0.019 C 
ATOM      3  C   UNL     1      34.137 -17.127 -23.106  0.00  0.00    +0.068 C 
ATOM      4  C   UNL     1      33.488 -19.309 -22.419  0.00  0.00    +0.003 C 
ATOM      5  C   UNL     1      34.404 -17.720 -20.903  0.00  0.00    +0.098 C 
ATOM      6  C   UNL     1      33.611 -18.366 -23.433  0.00  0.00    +0.015 C 
ENDROOT
BRANCH   2   8
ATOM      7  C   UNL     1      33.556 -21.788 -17.980  0.00  0.00    +0.138 C 
ATOM      8  C   UNL     1      33.776 -19.945 -20.051  0.00  0.00    +0.002 C 
ATOM      9  C   UNL     1      32.407 -21.255 -18.553  0.00  0.00    +0.037 C 
ATOM     10  C   UNL     1      34.815 -21.406 -18.433  0.00  0.00    +0.037 C 
ATOM     11  C   UNL     1      32.517 -20.332 -19.592  0.00  0.00    +0.003 C 
ATOM     12  C   UNL     1      34.924 -20.482 -19.471  0.00  0.00    +0.003 C 
BRANCH   7  13
ATOM     13  O   UNL     1      33.448 -22.695 -16.959  0.00  0.00    -0.478 OA
BRANCH  13  14
ATOM     14  C   UNL     1      34.206 -22.432 -15.785  0.00  0.00    +0.183 C 
BRANCH  14  15
ATOM     15  C   UNL     1      33.770 -23.397 -14.695  0.00  0.00    -0.029 C 
BRANCH  15  17
ATOM     16  O   UNL     1      37.346 -25.526 -14.151  0.00  0.00    -0.358 OA
ATOM     17  N   UNL     1      34.930 -24.023 -14.065  0.00  0.00    +0.393 N 
ATOM     18  C   UNL     1      34.924 -25.476 -14.286  0.00  0.00    -0.044 C 
ATOM     19  C   UNL     1      36.180 -23.441 -14.576  0.00  0.00    -0.044 C 
ATOM     20  C   UNL     1      36.150 -26.104 -13.628  0.00  0.00    +0.119 C 
ATOM     21  C   UNL     1      37.375 -24.118 -13.912  0.00  0.00    +0.119 C 
ATOM     22  H   UNL     1      34.874 -23.845 -13.062  0.00  0.00    -0.079 HD
ENDBRANCH  15  17
ENDBRANCH  14  15
ENDBRANCH  13  14
ENDBRANCH   7  13
ENDBRANCH   2   8
BRANCH   3  23
ATOM     23  C   UNL     1      34.283 -16.091 -24.171  0.00  0.00    +0.131 C 
BRANCH  23  26
ATOM     24  O   UNL     1      32.167 -14.980 -24.565  0.00  0.00    -0.275 OA
ATOM     25  N   UNL     1      33.795 -13.885 -23.323  0.00  0.00    -0.300 N 
ATOM     26  C   UNL     1      33.285 -14.948 -24.057  0.00  0.00    +0.229 C 
ATOM     27  H   UNL     1      34.706 -13.958 -22.956  0.00  0.00    +0.150 HD
BRANCH  25  28
ATOM     28  C   UNL     1      33.041 -12.679 -23.075  0.00  0.00    +0.116 C 
BRANCH  28  29
ATOM     29  C   UNL     1      32.329 -12.723 -21.754  0.00  0.00    -0.003 C 
ATOM     30  C   UNL     1      32.549 -13.789 -20.890  0.00  0.00    -0.003 C 
ATOM     31  C   UNL     1      31.457 -11.697 -21.408  0.00  0.00    -0.003 C 
ATOM     32  C   UNL     1      31.887 -13.831 -19.663  0.00  0.00    -0.000 C 
ATOM     33  C   UNL     1      30.796 -11.738 -20.180  0.00  0.00    -0.000 C 
ATOM     34  C   UNL     1      31.010 -12.806 -19.308  0.00  0.00    -0.000 C 
ENDBRANCH  28  29
ENDBRANCH  25  28
ENDBRANCH  23  26
ENDBRANCH   3  23
TORSDOF 9
ENDMDL
MODEL 4
REMARK VINA RESULT:     -11.8      1.984      2.777
REMARK  Name = 23635314
REMARK  9 active torsions:
REMARK  status: ('A' for Active; 'I' for Inactive)
REMARK    1  A    between atoms: C_2  and  C_8
REMARK    2  A    between atoms: C_3  and  C_23
REMARK    3  A    between atoms: C_7  and  O_13
REMARK    4  A    between atoms: O_13  and  C_14
REMARK    5  A    between atoms: C_14  and  C_15
REMARK    6  A    between atoms: C_15  and  N_17
REMARK    7  A    between atoms: C_23  and  C_26
REMARK    8  A    between atoms: N_25  and  C_28
REMARK    9  A    between atoms: C_28  and  C_29
REMARK                            x       y       z     vdW  Elec       q    Type
REMARK                         _______ _______ _______ _____ _____    ______ ____
ROOT
ATOM      1  N   UNL     1      33.518 -18.409 -23.273  0.00  0.00    -0.248 NA
ATOM      2  C   UNL     1      33.874 -19.041 -20.969  0.00  0.00    +0.019 C 
ATOM      3  C   UNL     1      34.116 -17.229 -22.991  0.00  0.00    +0.068 C 
ATOM      4  C   UNL     1      34.482 -17.818 -20.716  0.00  0.00    +0.003 C 
ATOM      5  C   UNL     1      33.412 -19.287 -22.251  0.00  0.00    +0.098 C 
ATOM      6  C   UNL     1      34.609 -16.889 -21.742  0.00  0.00    +0.015 C 
ENDROOT
BRANCH   2   8
ATOM      7  C   UNL     1      33.442 -21.929 -17.912  0.00  0.00    +0.138 C 
ATOM      8  C   UNL     1      33.726 -20.029 -19.923  0.00  0.00    +0.002 C 
ATOM      9  C   UNL     1      34.714 -21.556 -18.332  0.00  0.00    +0.037 C 
ATOM     10  C   UNL     1      32.310 -21.362 -18.489  0.00  0.00    +0.037 C 
ATOM     11  C   UNL     1      34.856 -20.603 -19.340  0.00  0.00    +0.003 C 
ATOM     12  C   UNL     1      32.454 -20.410 -19.497  0.00  0.00    +0.003 C 
BRANCH   7  13
ATOM     13  O   UNL     1      33.302 -22.866 -16.922  0.00  0.00    -0.478 OA
BRANCH  13  14
ATOM     14  C   UNL     1      33.860 -22.546 -15.654  0.00  0.00    +0.183 C 
BRANCH  14  15
ATOM     15  C   UNL     1      33.374 -23.564 -14.635  0.00  0.00    -0.029 C 
BRANCH  15  17
ATOM     16  O   UNL     1      35.610 -25.499 -11.656  0.00  0.00    -0.358 OA
ATOM     17  N   UNL     1      34.426 -23.870 -13.668  0.00  0.00    +0.393 N 
ATOM     18  C   UNL     1      33.882 -23.924 -12.304  0.00  0.00    -0.044 C 
ATOM     19  C   UNL     1      35.085 -25.141 -13.998  0.00  0.00    -0.044 C 
ATOM     20  C   UNL     1      34.995 -24.255 -11.315  0.00  0.00    +0.119 C 
ATOM     21  C   UNL     1      36.170 -25.445 -12.969  0.00  0.00    +0.119 C 
ATOM     22  H   UNL     1      35.118 -23.122 -13.713  0.00  0.00    -0.079 HD
ENDBRANCH  15  17
ENDBRANCH  14  15
ENDBRANCH  13  14
ENDBRANCH   7  13
ENDBRANCH   2   8
BRANCH   3  23
ATOM     23  C   UNL     1      34.235 -16.255 -24.116  0.00  0.00    +0.131 C 
BRANCH  23  26
ATOM     24  O   UNL     1      32.137 -15.107 -24.500  0.00  0.00    -0.275 OA
ATOM     25  N   UNL     1      33.817 -14.011 -23.332  0.00  0.00    -0.300 N 
ATOM     26  C   UNL     1      33.267 -15.085 -24.018  0.00  0.00    +0.229 C 
ATOM     27  H   UNL     1      34.735 -14.093 -22.983  0.00  0.00    +0.150 HD
BRANCH  25  28
ATOM     28  C   UNL     1      33.098 -12.778 -23.109  0.00  0.00    +0.116 C 
BRANCH  28  29
ATOM     29  C   UNL     1      32.368 -12.784 -21.797  0.00  0.00    -0.003 C 
ATOM     30  C   UNL     1      32.590 -13.815 -20.892  0.00  0.00    -0.003 C 
ATOM     31  C   UNL     1      31.478 -11.758 -21.501  0.00  0.00    -0.003 C 
ATOM     32  C   UNL     1      31.912 -13.820 -19.672  0.00  0.00    -0.000 C 
ATOM     33  C   UNL     1      30.800 -11.764 -20.282  0.00  0.00    -0.000 C 
ATOM     34  C   UNL     1      31.017 -12.796 -19.368  0.00  0.00    -0.000 C 
ENDBRANCH  28  29
ENDBRANCH  25  28
ENDBRANCH  23  26
ENDBRANCH   3  23
TORSDOF 9
ENDMDL
MODEL 5
REMARK VINA RESULT:     -11.6      2.009      3.231
REMARK  Name = 23635314
REMARK  9 active torsions:
REMARK  status: ('A' for Active; 'I' for Inactive)
REMARK    1  A    between atoms: C_2  and  C_8
REMARK    2  A    between atoms: C_3  and  C_23
REMARK    3  A    between atoms: C_7  and  O_13
REMARK    4  A    between atoms: O_13  and  C_14
REMARK    5  A    between atoms: C_14  and  C_15
REMARK    6  A    between atoms: C_15  and  N_17
REMARK    7  A    between atoms: C_23  and  C_26
REMARK    8  A    between atoms: N_25  and  C_28
REMARK    9  A    between atoms: C_28  and  C_29
REMARK                            x       y       z     vdW  Elec       q    Type
REMARK                         _______ _______ _______ _____ _____    ______ ____
ROOT
ATOM      1  N   UNL     1      34.608 -16.518 -21.783  0.00  0.00    -0.248 NA
ATOM      2  C   UNL     1      33.917 -18.748 -21.161  0.00  0.00    +0.019 C 
ATOM      3  C   UNL     1      34.102 -16.757 -23.014  0.00  0.00    +0.068 C 
ATOM      4  C   UNL     1      33.408 -18.957 -22.437  0.00  0.00    +0.003 C 
ATOM      5  C   UNL     1      34.501 -17.523 -20.885  0.00  0.00    +0.098 C 
ATOM      6  C   UNL     1      33.499 -17.947 -23.387  0.00  0.00    +0.015 C 
ENDROOT
BRANCH   2   8
ATOM      7  C   UNL     1      33.685 -21.762 -18.206  0.00  0.00    +0.138 C 
ATOM      8  C   UNL     1      33.838 -19.779 -20.149  0.00  0.00    +0.002 C 
ATOM      9  C   UNL     1      34.929 -21.305 -18.627  0.00  0.00    +0.037 C 
ATOM     10  C   UNL     1      32.516 -21.237 -18.748  0.00  0.00    +0.037 C 
ATOM     11  C   UNL     1      35.005 -20.310 -19.602  0.00  0.00    +0.003 C 
ATOM     12  C   UNL     1      32.594 -20.243 -19.722  0.00  0.00    +0.003 C 
BRANCH   7  13
ATOM     13  O   UNL     1      33.610 -22.739 -17.248  0.00  0.00    -0.478 OA
BRANCH  13  14
ATOM     14  C   UNL     1      32.406 -22.807 -16.495  0.00  0.00    +0.183 C 
BRANCH  14  15
ATOM     15  C   UNL     1      32.752 -23.122 -15.049  0.00  0.00    -0.029 C 
BRANCH  15  17
ATOM     16  O   UNL     1      36.475 -24.117 -13.387  0.00  0.00    -0.358 OA
ATOM     17  N   UNL     1      34.167 -23.462 -14.918  0.00  0.00    +0.393 N 
ATOM     18  C   UNL     1      34.877 -22.449 -14.126  0.00  0.00    -0.044 C 
ATOM     19  C   UNL     1      34.331 -24.787 -14.304  0.00  0.00    -0.044 C 
ATOM     20  C   UNL     1      36.348 -22.831 -13.995  0.00  0.00    +0.119 C 
ATOM     21  C   UNL     1      35.815 -25.115 -14.168  0.00  0.00    +0.119 C 
ATOM     22  H   UNL     1      34.570 -23.485 -15.855  0.00  0.00    -0.079 HD
ENDBRANCH  15  17
ENDBRANCH  14  15
ENDBRANCH  13  14
ENDBRANCH   7  13
ENDBRANCH   2   8
BRANCH   3  23
ATOM     23  C   UNL     1      34.217 -15.651 -24.010  0.00  0.00    +0.131 C 
BRANCH  23  26
ATOM     24  O   UNL     1      32.113 -14.667 -24.698  0.00  0.00    -0.275 OA
ATOM     25  N   UNL     1      33.276 -13.707 -22.933  0.00  0.00    -0.300 N 
ATOM     26  C   UNL     1      33.079 -14.642 -23.940  0.00  0.00    +0.229 C 
ATOM     27  H   UNL     1      34.087 -13.774 -22.378  0.00  0.00    +0.150 HD
BRANCH  25  28
ATOM     28  C   UNL     1      32.339 -12.641 -22.667  0.00  0.00    +0.116 C 
BRANCH  28  29
ATOM     29  C   UNL     1      32.846 -11.313 -23.150  0.00  0.00    -0.003 C 
ATOM     30  C   UNL     1      32.368 -10.143 -22.572  0.00  0.00    -0.003 C 
ATOM     31  C   UNL     1      33.790 -11.268 -24.169  0.00  0.00    -0.003 C 
ATOM     32  C   UNL     1      32.840  -8.909 -23.020  0.00  0.00    -0.000 C 
ATOM     33  C   UNL     1      34.262 -10.034 -24.618  0.00  0.00    -0.000 C 
ATOM     34  C   UNL     1      33.785  -8.854 -24.044  0.00  0.00    -0.000 C 
ENDBRANCH  28  29
ENDBRANCH  25  28
ENDBRANCH  23  26
ENDBRANCH   3  23
TORSDOF 9
ENDMDL
MODEL 6
REMARK VINA RESULT:     -11.5      1.871     10.823
REMARK  Name = 23635314
REMARK  9 active torsions:
REMARK  status: ('A' for Active; 'I' for Inactive)
REMARK    1  A    between atoms: C_2  and  C_8
REMARK    2  A    between atoms: C_3  and  C_23
REMARK    3  A    between atoms: C_7  and  O_13
REMARK    4  A    between atoms: O_13  and  C_14
REMARK    5  A    between atoms: C_14  and  C_15
REMARK    6  A    between atoms: C_15  and  N_17
REMARK    7  A    between atoms: C_23  and  C_26
REMARK    8  A    between atoms: N_25  and  C_28
REMARK    9  A    between atoms: C_28  and  C_29
REMARK                            x       y       z     vdW  Elec       q    Type
REMARK                         _______ _______ _______ _____ _____    ______ ____
ROOT
ATOM      1  N   UNL     1      32.757 -20.944 -18.967  0.00  0.00    -0.248 NA
ATOM      2  C   UNL     1      33.944 -19.519 -20.514  0.00  0.00    +0.019 C 
ATOM      3  C   UNL     1      33.955 -21.300 -18.450  0.00  0.00    +0.068 C 
ATOM      4  C   UNL     1      35.157 -19.908 -19.958  0.00  0.00    +0.003 C 
ATOM      5  C   UNL     1      32.783 -20.060 -19.988  0.00  0.00    +0.098 C 
ATOM      6  C   UNL     1      35.170 -20.816 -18.905  0.00  0.00    +0.015 C 
ENDROOT
BRANCH   2   8
ATOM      7  C   UNL     1      33.805 -16.763 -23.716  0.00  0.00    +0.138 C 
ATOM      8  C   UNL     1      33.896 -18.576 -21.610  0.00  0.00    +0.002 C 
ATOM      9  C   UNL     1      33.378 -18.071 -23.914  0.00  0.00    +0.037 C 
ATOM     10  C   UNL     1      34.279 -16.352 -22.474  0.00  0.00    +0.037 C 
ATOM     11  C   UNL     1      33.423 -18.980 -22.858  0.00  0.00    +0.003 C 
ATOM     12  C   UNL     1      34.324 -17.262 -21.419  0.00  0.00    +0.003 C 
BRANCH   7  13
ATOM     13  O   UNL     1      33.761 -15.870 -24.754  0.00  0.00    -0.478 OA
BRANCH  13  14
ATOM     14  C   UNL     1      32.484 -15.341 -25.091  0.00  0.00    +0.183 C 
BRANCH  14  15
ATOM     15  C   UNL     1      32.656 -13.901 -25.546  0.00  0.00    -0.029 C 
BRANCH  15  17
ATOM     16  O   UNL     1      32.426 -11.003 -22.518  0.00  0.00    -0.358 OA
ATOM     17  N   UNL     1      33.008 -13.042 -24.418  0.00  0.00    +0.393 N 
ATOM     18  C   UNL     1      32.953 -11.625 -24.803  0.00  0.00    -0.044 C 
ATOM     19  C   UNL     1      32.117 -13.287 -23.275  0.00  0.00    -0.044 C 
ATOM     20  C   UNL     1      33.314 -10.748 -23.608  0.00  0.00    +0.119 C 
ATOM     21  C   UNL     1      32.497 -12.372 -22.116  0.00  0.00    +0.119 C 
ATOM     22  H   UNL     1      33.964 -13.267 -24.140  0.00  0.00    -0.079 HD
ENDBRANCH  15  17
ENDBRANCH  14  15
ENDBRANCH  13  14
ENDBRANCH   7  13
ENDBRANCH   2   8
BRANCH   3  23
ATOM     23  C   UNL     1      33.933 -22.277 -17.322  0.00  0.00    +0.131 C 
BRANCH  23  26
ATOM     24  O   UNL     1      32.369 -24.124 -17.432  0.00  0.00    -0.275 OA
ATOM     25  N   UNL     1      31.648 -22.094 -16.566  0.00  0.00    -0.300 N 
ATOM     26  C   UNL     1      32.584 -22.954 -17.123  0.00  0.00    +0.229 C 
ATOM     27  H   UNL     1      31.921 -21.172 -16.354  0.00  0.00    +0.150 HD
BRANCH  25  28
ATOM     28  C   UNL     1      30.291 -22.498 -16.282  0.00  0.00    +0.116 C 
BRANCH  28  29
ATOM     29  C   UNL     1      30.169 -23.150 -14.935  0.00  0.00    -0.003 C 
ATOM     30  C   UNL     1      30.796 -22.577 -13.835  0.00  0.00    -0.003 C 
ATOM     31  C   UNL     1      29.431 -24.321 -14.802  0.00  0.00    -0.003 C 
ATOM     32  C   UNL     1      30.683 -23.183 -12.584  0.00  0.00    -0.000 C 
ATOM     33  C   UNL     1      29.318 -24.926 -13.551  0.00  0.00    -0.000 C 
ATOM     34  C   UNL     1      29.945 -24.357 -12.441  0.00  0.00    -0.000 C 
ENDBRANCH  28  29
ENDBRANCH  25  28
ENDBRANCH  23  26
ENDBRANCH   3  23
TORSDOF 9
ENDMDL
MODEL 7
REMARK VINA RESULT:     -11.4      1.382      2.477
REMARK  Name = 23635314
REMARK  9 active torsions:
REMARK  status: ('A' for Active; 'I' for Inactive)
REMARK    1  A    between atoms: C_2  and  C_8
REMARK    2  A    between atoms: C_3  and  C_23
REMARK    3  A    between atoms: C_7  and  O_13
REMARK    4  A    between atoms: O_13  and  C_14
REMARK    5  A    between atoms: C_14  and  C_15
REMARK    6  A    between atoms: C_15  and  N_17
REMARK    7  A    between atoms: C_23  and  C_26
REMARK    8  A    between atoms: N_25  and  C_28
REMARK    9  A    between atoms: C_28  and  C_29
REMARK                            x       y       z     vdW  Elec       q    Type
REMARK                         _______ _______ _______ _____ _____    ______ ____
ROOT
ATOM      1  N   UNL     1      33.759 -18.077 -23.266  0.00  0.00    -0.248 NA
ATOM      2  C   UNL     1      33.948 -18.800 -20.969  0.00  0.00    +0.019 C 
ATOM      3  C   UNL     1      34.155 -16.850 -22.862  0.00  0.00    +0.068 C 
ATOM      4  C   UNL     1      34.352 -17.526 -20.591  0.00  0.00    +0.003 C 
ATOM      5  C   UNL     1      33.665 -19.024 -22.306  0.00  0.00    +0.098 C 
ATOM      6  C   UNL     1      34.459 -16.526 -21.550  0.00  0.00    +0.015 C 
ENDROOT
BRANCH   2   8
ATOM      7  C   UNL     1      33.592 -21.904 -18.121  0.00  0.00    +0.138 C 
ATOM      8  C   UNL     1      33.825 -19.862 -19.995  0.00  0.00    +0.002 C 
ATOM      9  C   UNL     1      32.447 -21.293 -18.621  0.00  0.00    +0.037 C 
ATOM     10  C   UNL     1      34.853 -21.502 -18.548  0.00  0.00    +0.037 C 
ATOM     11  C   UNL     1      32.564 -20.270 -19.561  0.00  0.00    +0.003 C 
ATOM     12  C   UNL     1      34.969 -20.478 -19.488  0.00  0.00    +0.003 C 
BRANCH   7  13
ATOM     13  O   UNL     1      33.476 -22.909 -17.197  0.00  0.00    -0.478 OA
BRANCH  13  14
ATOM     14  C   UNL     1      32.215 -23.050 -16.557  0.00  0.00    +0.183 C 
BRANCH  14  15
ATOM     15  C   UNL     1      32.354 -22.627 -15.104  0.00  0.00    -0.029 C 
BRANCH  15  17
ATOM     16  O   UNL     1      29.170 -24.937 -13.642  0.00  0.00    -0.358 OA
ATOM     17  N   UNL     1      31.194 -23.057 -14.327  0.00  0.00    +0.393 N 
ATOM     18  C   UNL     1      30.038 -23.296 -15.203  0.00  0.00    -0.044 C 
ATOM     19  C   UNL     1      31.501 -24.270 -13.557  0.00  0.00    -0.044 C 
ATOM     20  C   UNL     1      28.844 -23.753 -14.371  0.00  0.00    +0.119 C 
ATOM     21  C   UNL     1      30.272 -24.705 -12.764  0.00  0.00    +0.119 C 
ATOM     22  H   UNL     1      30.959 -22.308 -13.676  0.00  0.00    -0.079 HD
ENDBRANCH  15  17
ENDBRANCH  14  15
ENDBRANCH  13  14
ENDBRANCH   7  13
ENDBRANCH   2   8
BRANCH   3  23
ATOM     23  C   UNL     1      34.259 -15.800 -23.918  0.00  0.00    +0.131 C 
BRANCH  23  26
ATOM     24  O   UNL     1      32.089 -14.984 -24.618  0.00  0.00    -0.275 OA
ATOM     25  N   UNL     1      33.311 -13.745 -23.081  0.00  0.00    -0.300 N 
ATOM     26  C   UNL     1      33.093 -14.823 -23.929  0.00  0.00    +0.229 C 
ATOM     27  H   UNL     1      34.152 -13.708 -22.571  0.00  0.00    +0.150 HD
BRANCH  25  28
ATOM     28  C   UNL     1      32.352 -12.678 -22.917  0.00  0.00    +0.116 C 
BRANCH  28  29
ATOM     29  C   UNL     1      32.909 -11.352 -23.349  0.00  0.00    -0.003 C 
ATOM     30  C   UNL     1      32.532 -10.196 -22.677  0.00  0.00    -0.003 C 
ATOM     31  C   UNL     1      33.797 -11.295 -24.417  0.00  0.00    -0.003 C 
ATOM     32  C   UNL     1      33.050  -8.964 -23.078  0.00  0.00    -0.000 C 
ATOM     33  C   UNL     1      34.315 -10.063 -24.818  0.00  0.00    -0.000 C 
ATOM     34  C   UNL     1      33.940  -8.897 -24.149  0.00  0.00    -0.000 C 
ENDBRANCH  28  29
ENDBRANCH  25  28
ENDBRANCH  23  26
ENDBRANCH   3  23
TORSDOF 9
ENDMDL
MODEL 8
REMARK VINA RESULT:     -11.1      2.718     11.440
REMARK  Name = 23635314
REMARK  9 active torsions:
REMARK  status: ('A' for Active; 'I' for Inactive)
REMARK    1  A    between atoms: C_2  and  C_8
REMARK    2  A    between atoms: C_3  and  C_23
REMARK    3  A    between atoms: C_7  and  O_13
REMARK    4  A    between atoms: O_13  and  C_14
REMARK    5  A    between atoms: C_14  and  C_15
REMARK    6  A    between atoms: C_15  and  N_17
REMARK    7  A    between atoms: C_23  and  C_26
REMARK    8  A    between atoms: N_25  and  C_28
REMARK    9  A    between atoms: C_28  and  C_29
REMARK                            x       y       z     vdW  Elec       q    Type
REMARK                         _______ _______ _______ _____ _____    ______ ____
ROOT
ATOM      1  N   UNL     1      31.880 -21.415 -18.515  0.00  0.00    -0.248 NA
ATOM      2  C   UNL     1      33.484 -20.175 -19.828  0.00  0.00    +0.019 C 
ATOM      3  C   UNL     1      32.917 -22.102 -17.985  0.00  0.00    +0.068 C 
ATOM      4  C   UNL     1      34.524 -20.901 -19.262  0.00  0.00    +0.003 C 
ATOM      5  C   UNL     1      32.192 -20.466 -19.426  0.00  0.00    +0.098 C 
ATOM      6  C   UNL     1      34.244 -21.886 -18.322  0.00  0.00    +0.015 C 
ENDROOT
BRANCH   2   8
ATOM      7  C   UNL     1      34.241 -17.163 -22.696  0.00  0.00    +0.138 C 
ATOM      8  C   UNL     1      33.744 -19.144 -20.809  0.00  0.00    +0.002 C 
ATOM      9  C   UNL     1      34.709 -17.009 -21.396  0.00  0.00    +0.037 C 
ATOM     10  C   UNL     1      33.526 -18.298 -23.062  0.00  0.00    +0.037 C 
ATOM     11  C   UNL     1      34.460 -18.002 -20.450  0.00  0.00    +0.003 C 
ATOM     12  C   UNL     1      33.277 -19.291 -22.115  0.00  0.00    +0.003 C 
BRANCH   7  13
ATOM     13  O   UNL     1      34.486 -16.186 -23.625  0.00  0.00    -0.478 OA
BRANCH  13  14
ATOM     14  C   UNL     1      33.352 -15.590 -24.242  0.00  0.00    +0.183 C 
BRANCH  14  15
ATOM     15  C   UNL     1      32.652 -14.703 -23.226  0.00  0.00    -0.029 C 
BRANCH  15  17
ATOM     16  O   UNL     1      33.475 -10.989 -24.998  0.00  0.00    -0.358 OA
ATOM     17  N   UNL     1      32.489 -13.348 -23.748  0.00  0.00    +0.393 N 
ATOM     18  C   UNL     1      33.358 -12.404 -23.031  0.00  0.00    -0.044 C 
ATOM     19  C   UNL     1      32.779 -13.305 -25.188  0.00  0.00    -0.044 C 
ATOM     20  C   UNL     1      33.178 -11.000 -23.601  0.00  0.00    +0.119 C 
ATOM     21  C   UNL     1      32.613 -11.880 -25.707  0.00  0.00    +0.119 C 
ATOM     22  H   UNL     1      31.518 -13.072 -23.602  0.00  0.00    -0.079 HD
ENDBRANCH  15  17
ENDBRANCH  14  15
ENDBRANCH  13  14
ENDBRANCH   7  13
ENDBRANCH   2   8
BRANCH   3  23
ATOM     23  C   UNL     1      32.580 -23.152 -16.980  0.00  0.00    +0.131 C 
BRANCH  23  26
ATOM     24  O   UNL     1      31.974 -22.312 -14.790  0.00  0.00    -0.275 OA
ATOM     25  N   UNL     1      34.187 -22.881 -15.200  0.00  0.00    -0.300 N 
ATOM     26  C   UNL     1      32.849 -22.733 -15.542  0.00  0.00    +0.229 C 
ATOM     27  H   UNL     1      34.812 -23.229 -15.877  0.00  0.00    +0.150 HD
BRANCH  25  28
ATOM     28  C   UNL     1      34.697 -22.547 -13.891  0.00  0.00    +0.116 C 
BRANCH  28  29
ATOM     29  C   UNL     1      35.705 -23.551 -13.409  0.00  0.00    -0.003 C 
ATOM     30  C   UNL     1      35.981 -24.673 -14.181  0.00  0.00    -0.003 C 
ATOM     31  C   UNL     1      36.351 -23.348 -12.195  0.00  0.00    -0.003 C 
ATOM     32  C   UNL     1      36.917 -25.605 -13.734  0.00  0.00    -0.000 C 
ATOM     33  C   UNL     1      37.287 -24.280 -11.747  0.00  0.00    -0.000 C 
ATOM     34  C   UNL     1      37.569 -25.410 -12.517  0.00  0.00    -0.000 C 
ENDBRANCH  28  29
ENDBRANCH  25  28
ENDBRANCH  23  26
ENDBRANCH   3  23
TORSDOF 9
ENDMDL
MODEL 9
REMARK VINA RESULT:     -10.9      2.599     10.874
REMARK  Name = 23635314
REMARK  9 active torsions:
REMARK  status: ('A' for Active; 'I' for Inactive)
REMARK    1  A    between atoms: C_2  and  C_8
REMARK    2  A    between atoms: C_3  and  C_23
REMARK    3  A    between atoms: C_7  and  O_13
REMARK    4  A    between atoms: O_13  and  C_14
REMARK    5  A    between atoms: C_14  and  C_15
REMARK    6  A    between atoms: C_15  and  N_17
REMARK    7  A    between atoms: C_23  and  C_26
REMARK    8  A    between atoms: N_25  and  C_28
REMARK    9  A    between atoms: C_28  and  C_29
REMARK                            x       y       z     vdW  Elec       q    Type
REMARK                         _______ _______ _______ _____ _____    ______ ____
ROOT
ATOM      1  N   UNL     1      31.992 -21.397 -18.544  0.00  0.00    -0.248 NA
ATOM      2  C   UNL     1      33.536 -20.094 -19.868  0.00  0.00    +0.019 C 
ATOM      3  C   UNL     1      33.061 -22.017 -17.996  0.00  0.00    +0.068 C 
ATOM      4  C   UNL     1      34.610 -20.754 -19.284  0.00  0.00    +0.003 C 
ATOM      5  C   UNL     1      32.258 -20.447 -19.468  0.00  0.00    +0.098 C 
ATOM      6  C   UNL     1      34.376 -21.736 -18.329  0.00  0.00    +0.015 C 
ENDROOT
BRANCH   2   8
ATOM      7  C   UNL     1      34.149 -17.094 -22.783  0.00  0.00    +0.138 C 
ATOM      8  C   UNL     1      33.746 -19.067 -20.865  0.00  0.00    +0.002 C 
ATOM      9  C   UNL     1      34.732 -16.964 -21.527  0.00  0.00    +0.037 C 
ATOM     10  C   UNL     1      33.365 -18.201 -23.089  0.00  0.00    +0.037 C 
ATOM     11  C   UNL     1      34.531 -17.954 -20.566  0.00  0.00    +0.003 C 
ATOM     12  C   UNL     1      33.163 -19.190 -22.127  0.00  0.00    +0.003 C 
BRANCH   7  13
ATOM     13  O   UNL     1      34.347 -16.121 -23.727  0.00  0.00    -0.478 OA
BRANCH  13  14
ATOM     14  C   UNL     1      33.340 -15.123 -23.839  0.00  0.00    +0.183 C 
BRANCH  14  15
ATOM     15  C   UNL     1      33.701 -13.960 -22.930  0.00  0.00    -0.029 C 
BRANCH  15  17
ATOM     16  O   UNL     1      31.446 -12.261 -19.825  0.00  0.00    -0.358 OA
ATOM     17  N   UNL     1      32.590 -13.638 -22.037  0.00  0.00    +0.393 N 
ATOM     18  C   UNL     1      32.907 -14.012 -20.652  0.00  0.00    -0.044 C 
ATOM     19  C   UNL     1      32.259 -12.208 -22.110  0.00  0.00    -0.044 C 
ATOM     20  C   UNL     1      31.737 -13.656 -19.739  0.00  0.00    +0.119 C 
ATOM     21  C   UNL     1      31.105 -11.895 -21.163  0.00  0.00    +0.119 C 
ATOM     22  H   UNL     1      31.779 -14.177 -22.342  0.00  0.00    -0.079 HD
ENDBRANCH  15  17
ENDBRANCH  14  15
ENDBRANCH  13  14
ENDBRANCH   7  13
ENDBRANCH   2   8
BRANCH   3  23
ATOM     23  C   UNL     1      32.774 -23.067 -16.974  0.00  0.00    +0.131 C 
BRANCH  23  26
ATOM     24  O   UNL     1      34.386 -22.008 -15.510  0.00  0.00    -0.275 OA
ATOM     25  N   UNL     1      33.131 -23.785 -14.698  0.00  0.00    -0.300 N 
ATOM     26  C   UNL     1      33.528 -22.873 -15.667  0.00  0.00    +0.229 C 
ATOM     27  H   UNL     1      32.432 -24.441 -14.925  0.00  0.00    +0.150 HD
BRANCH  25  28
ATOM     28  C   UNL     1      33.702 -23.809 -13.372  0.00  0.00    +0.116 C 
BRANCH  28  29
ATOM     29  C   UNL     1      35.046 -24.477 -13.351  0.00  0.00    -0.003 C 
ATOM     30  C   UNL     1      36.050 -23.976 -12.531  0.00  0.00    -0.003 C 
ATOM     31  C   UNL     1      35.273 -25.590 -14.153  0.00  0.00    -0.003 C 
ATOM     32  C   UNL     1      37.299 -24.597 -12.511  0.00  0.00    -0.000 C 
ATOM     33  C   UNL     1      36.522 -26.211 -14.133  0.00  0.00    -0.000 C 
ATOM     34  C   UNL     1      37.536 -25.713 -13.313  0.00  0.00    -0.000 C 
ENDBRANCH  28  29
ENDBRANCH  25  28
ENDBRANCH  23  26
ENDBRANCH   3  23
TORSDOF 9
ENDMDL
