MODEL 1
REMARK VINA RESULT:     -12.7      0.000      0.000
REMARK  Name = 448408
REMARK  8 active torsions:
REMARK  status: ('A' for Active; 'I' for Inactive)
REMARK    1  A    between atoms: N_2  and  C_25
REMARK    2  A    between atoms: C_3  and  C_6
REMARK    3  A    between atoms: C_5  and  N_12
REMARK    4  A    between atoms: C_25  and  C_26
REMARK    5  A    between atoms: C_27  and  S_32
REMARK    6  A    between atoms: S_32  and  C_33
REMARK    7  A    between atoms: C_34  and  C_39
REMARK    8  A    between atoms: C_39  and  O_40
REMARK                            x       y       z     vdW  Elec       q    Type
REMARK                         _______ _______ _______ _____ _____    ______ ____
ROOT
ATOM      1  O   UNL     1      31.785 -21.330 -19.393  0.00  0.00    -0.270 OA
ATOM      2  N   UNL     1      33.176 -22.361 -17.851  0.00  0.00    -0.297 N 
ATOM      3  C   UNL     1      32.904 -21.431 -18.861  0.00  0.00    +0.246 C 
ATOM      4  H   UNL     1      34.085 -22.386 -17.473  0.00  0.00    +0.150 HD
ENDROOT
BRANCH   3   6
ATOM      5  C   UNL     1      34.866 -18.826 -20.738  0.00  0.00    +0.090 C 
ATOM      6  C   UNL     1      34.006 -20.585 -19.293  0.00  0.00    +0.055 C 
ATOM      7  C   UNL     1      33.811 -19.649 -20.309  0.00  0.00    +0.023 C 
ATOM      8  C   UNL     1      36.121 -18.965 -20.122  0.00  0.00    +0.018 C 
ATOM      9  C   UNL     1      35.259 -20.711 -18.692  0.00  0.00    +0.005 C 
ATOM     10  C   UNL     1      36.316 -19.902 -19.106  0.00  0.00    +0.002 C 
BRANCH   5  12
ATOM     11  O   UNL     1      33.728 -13.837 -21.637  0.00  0.00    -0.207 OA
ATOM     12  N   UNL     1      34.671 -17.892 -21.749  0.00  0.00    -0.137 N 
ATOM     13  N   UNL     1      34.070 -18.153 -22.940  0.00  0.00    -0.215 N 
ATOM     14  N   UNL     1      34.536 -16.552 -21.396  0.00  0.00    -0.143 NA
ATOM     15  N   UNL     1      32.857 -16.622 -24.432  0.00  0.00    -0.309 NA
ATOM     16  N   UNL     1      32.720 -14.337 -23.664  0.00  0.00    -0.251 NA
ATOM     17  N   UNL     1      31.750 -14.951 -25.672  0.00  0.00    -0.283 N 
ATOM     18  C   UNL     1      33.524 -17.003 -23.407  0.00  0.00    +0.243 C 
ATOM     19  C   UNL     1      33.862 -16.019 -22.367  0.00  0.00    +0.241 C 
ATOM     20  C   UNL     1      33.430 -14.625 -22.522  0.00  0.00    +0.239 C 
ATOM     21  C   UNL     1      32.463 -15.285 -24.543  0.00  0.00    +0.208 C 
ATOM     22  H   UNL     1      34.037 -19.030 -23.388  0.00  0.00    +0.175 HD
ATOM     23  H   UNL     1      31.544 -15.638 -26.346  0.00  0.00    +0.156 HD
ATOM     24  H   UNL     1      31.446 -14.024 -25.805  0.00  0.00    +0.156 HD
ENDBRANCH   5  12
ENDBRANCH   3   6
BRANCH   2  25
ATOM     25  C   UNL     1      32.194 -23.286 -17.331  0.00  0.00    +0.117 C 
BRANCH  25  26
ATOM     26  C   UNL     1      31.881 -23.020 -15.887  0.00  0.00    +0.003 C 
ATOM     27  C   UNL     1      32.880 -22.960 -14.920  0.00  0.00    +0.027 C 
ATOM     28  C   UNL     1      30.548 -22.834 -15.535  0.00  0.00    -0.002 C 
ATOM     29  C   UNL     1      32.543 -22.712 -13.590  0.00  0.00    +0.006 C 
ATOM     30  C   UNL     1      30.210 -22.586 -14.205  0.00  0.00    -0.000 C 
ATOM     31  C   UNL     1      31.207 -22.524 -13.233  0.00  0.00    +0.000 C 
BRANCH  27  32
ATOM     32  S   UNL     1      34.605 -23.193 -15.328  0.00  0.00    -0.087 S 
BRANCH  32  33
ATOM     33  C   UNL     1      35.271 -23.671 -13.740  0.00  0.00    +0.028 C 
ATOM     34  C   UNL     1      35.503 -25.009 -13.413  0.00  0.00    +0.013 C 
ATOM     35  C   UNL     1      35.561 -22.669 -12.813  0.00  0.00    +0.006 C 
ATOM     36  C   UNL     1      36.024 -25.342 -12.163  0.00  0.00    -0.001 C 
ATOM     37  C   UNL     1      36.082 -23.002 -11.563  0.00  0.00    +0.000 C 
ATOM     38  C   UNL     1      36.313 -24.339 -11.238  0.00  0.00    -0.000 C 
BRANCH  34  39
ATOM     39  C   UNL     1      35.209 -26.119 -14.370  0.00  0.00    +0.164 C 
BRANCH  39  40
ATOM     40  O   UNL     1      36.397 -26.456 -15.075  0.00  0.00    -0.377 OA
ATOM     41  H   UNL     1      37.063 -26.781 -14.449  0.00  0.00    +0.211 HD
ENDBRANCH  39  40
ENDBRANCH  34  39
ENDBRANCH  32  33
ENDBRANCH  27  32
ENDBRANCH  25  26
ENDBRANCH   2  25
TORSDOF 8
ENDMDL
MODEL 2
REMARK VINA RESULT:     -12.6      2.215      3.271
REMARK  Name = 448408
REMARK  8 active torsions:
REMARK  status: ('A' for Active; 'I' for Inactive)
REMARK    1  A    between atoms: N_2  and  C_25
REMARK    2  A    between atoms: C_3  and  C_6
REMARK    3  A    between atoms: C_5  and  N_12
REMARK    4  A    between atoms: C_25  and  C_26
REMARK    5  A    between atoms: C_27  and  S_32
REMARK    6  A    between atoms: S_32  and  C_33
REMARK    7  A    between atoms: C_34  and  C_39
REMARK    8  A    between atoms: C_39  and  O_40
REMARK                            x       y       z     vdW  Elec       q    Type
REMARK                         _______ _______ _______ _____ _____    ______ ____
ROOT
ATOM      1  O   UNL     1      36.604 -19.134 -18.995  0.00  0.00    -0.270 OA
ATOM      2  N   UNL     1      34.901 -20.706 -18.930  0.00  0.00    -0.297 N 
ATOM      3  C   UNL     1      35.541 -19.581 -19.462  0.00  0.00    +0.246 C 
ATOM      4  H   UNL     1      34.062 -21.006 -19.348  0.00  0.00    +0.150 HD
ENDROOT
BRANCH   3   6
ATOM      5  C   UNL     1      34.192 -16.881 -21.709  0.00  0.00    +0.090 C 
ATOM      6  C   UNL     1      34.893 -18.923 -20.586  0.00  0.00    +0.055 C 
ATOM      7  C   UNL     1      34.815 -17.531 -20.630  0.00  0.00    +0.023 C 
ATOM      8  C   UNL     1      33.649 -17.663 -22.742  0.00  0.00    +0.018 C 
ATOM      9  C   UNL     1      34.349 -19.685 -21.620  0.00  0.00    +0.005 C 
ATOM     10  C   UNL     1      33.727 -19.056 -22.698  0.00  0.00    +0.002 C 
BRANCH   5  12
ATOM     11  O   UNL     1      31.531 -12.799 -19.908  0.00  0.00    -0.207 OA
ATOM     12  N   UNL     1      34.116 -15.494 -21.754  0.00  0.00    -0.137 N 
ATOM     13  N   UNL     1      34.356 -14.738 -22.858  0.00  0.00    -0.215 N 
ATOM     14  N   UNL     1      33.241 -14.851 -20.880  0.00  0.00    -0.143 NA
ATOM     15  N   UNL     1      33.477 -12.517 -23.437  0.00  0.00    -0.309 NA
ATOM     16  N   UNL     1      31.977 -11.552 -21.811  0.00  0.00    -0.251 NA
ATOM     17  N   UNL     1      32.494 -10.398 -23.747  0.00  0.00    -0.283 N 
ATOM     18  C   UNL     1      33.655 -13.583 -22.749  0.00  0.00    +0.243 C 
ATOM     19  C   UNL     1      32.964 -13.724 -21.458  0.00  0.00    +0.241 C 
ATOM     20  C   UNL     1      32.088 -12.646 -20.985  0.00  0.00    +0.239 C 
ATOM     21  C   UNL     1      32.634 -11.513 -22.953  0.00  0.00    +0.208 C 
ATOM     22  H   UNL     1      34.941 -14.989 -23.610  0.00  0.00    +0.175 HD
ATOM     23  H   UNL     1      32.973 -10.340 -24.605  0.00  0.00    +0.156 HD
ATOM     24  H   UNL     1      31.913  -9.657 -23.457  0.00  0.00    +0.156 HD
ENDBRANCH   5  12
ENDBRANCH   3   6
BRANCH   2  25
ATOM     25  C   UNL     1      35.406 -21.453 -17.799  0.00  0.00    +0.117 C 
BRANCH  25  26
ATOM     26  C   UNL     1      34.298 -22.016 -16.959  0.00  0.00    +0.003 C 
ATOM     27  C   UNL     1      34.502 -22.398 -15.636  0.00  0.00    +0.027 C 
ATOM     28  C   UNL     1      33.042 -22.150 -17.545  0.00  0.00    -0.002 C 
ATOM     29  C   UNL     1      33.442 -22.918 -14.894  0.00  0.00    +0.006 C 
ATOM     30  C   UNL     1      31.983 -22.670 -16.802  0.00  0.00    -0.000 C 
ATOM     31  C   UNL     1      32.182 -23.054 -15.477  0.00  0.00    +0.000 C 
BRANCH  27  32
ATOM     32  S   UNL     1      36.097 -22.244 -14.844  0.00  0.00    -0.087 S 
BRANCH  32  33
ATOM     33  C   UNL     1      36.148 -23.748 -13.881  0.00  0.00    +0.028 C 
ATOM     34  C   UNL     1      36.282 -23.726 -12.491  0.00  0.00    +0.013 C 
ATOM     35  C   UNL     1      36.051 -24.969 -14.551  0.00  0.00    +0.006 C 
ATOM     36  C   UNL     1      36.318 -24.922 -11.774  0.00  0.00    -0.001 C 
ATOM     37  C   UNL     1      36.088 -26.164 -13.834  0.00  0.00    +0.000 C 
ATOM     38  C   UNL     1      36.221 -26.141 -12.445  0.00  0.00    -0.000 C 
BRANCH  34  39
ATOM     39  C   UNL     1      36.390 -22.446 -11.726  0.00  0.00    +0.164 C 
BRANCH  39  40
ATOM     40  O   UNL     1      37.452 -22.549 -10.788  0.00  0.00    -0.377 OA
ATOM     41  H   UNL     1      37.142 -23.021  -9.999  0.00  0.00    +0.211 HD
ENDBRANCH  39  40
ENDBRANCH  34  39
ENDBRANCH  32  33
ENDBRANCH  27  32
ENDBRANCH  25  26
ENDBRANCH   2  25
TORSDOF 8
ENDMDL
MODEL 3
REMARK VINA RESULT:     -12.5      2.293      3.548
REMARK  Name = 448408
REMARK  8 active torsions:
REMARK  status: ('A' for Active; 'I' for Inactive)
REMARK    1  A    between atoms: N_2  and  C_25
REMARK    2  A    between atoms: C_3  and  C_6
REMARK    3  A    between atoms: C_5  and  N_12
REMARK    4  A    between atoms: C_25  and  C_26
REMARK    5  A    between atoms: C_27  and  S_32
REMARK    6  A    between atoms: S_32  and  C_33
REMARK    7  A    between atoms: C_34  and  C_39
REMARK    8  A    between atoms: C_39  and  O_40
REMARK                            x       y       z     vdW  Elec       q    Type
REMARK                         _______ _______ _______ _____ _____    ______ ____
ROOT
ATOM      1  O   UNL     1      36.355 -18.363 -19.848  0.00  0.00    -0.270 OA
ATOM      2  N   UNL     1      34.968 -20.216 -19.705  0.00  0.00    -0.297 N 
ATOM      3  C   UNL     1      35.417 -19.036 -20.311  0.00  0.00    +0.246 C 
ATOM      4  H   UNL     1      34.221 -20.699 -20.126  0.00  0.00    +0.150 HD
ENDROOT
BRANCH   3   6
ATOM      5  C   UNL     1      33.611 -16.850 -22.784  0.00  0.00    +0.090 C 
ATOM      6  C   UNL     1      34.719 -18.604 -21.512  0.00  0.00    +0.055 C 
ATOM      7  C   UNL     1      34.287 -17.283 -21.630  0.00  0.00    +0.023 C 
ATOM      8  C   UNL     1      33.379 -17.776 -23.815  0.00  0.00    +0.018 C 
ATOM      9  C   UNL     1      34.481 -19.512 -22.545  0.00  0.00    +0.005 C 
ATOM     10  C   UNL     1      33.811 -19.098 -23.696  0.00  0.00    +0.002 C 
BRANCH   5  12
ATOM     11  O   UNL     1      32.113 -13.254 -26.221  0.00  0.00    -0.207 OA
ATOM     12  N   UNL     1      33.181 -15.534 -22.903  0.00  0.00    -0.137 N 
ATOM     13  N   UNL     1      33.637 -14.498 -22.150  0.00  0.00    -0.215 N 
ATOM     14  N   UNL     1      32.724 -15.096 -24.144  0.00  0.00    -0.143 NA
ATOM     15  N   UNL     1      33.735 -12.105 -22.704  0.00  0.00    -0.309 NA
ATOM     16  N   UNL     1      32.902 -11.525 -24.894  0.00  0.00    -0.251 NA
ATOM     17  N   UNL     1      33.714  -9.881 -23.484  0.00  0.00    -0.283 N 
ATOM     18  C   UNL     1      33.497 -13.353 -22.864  0.00  0.00    +0.243 C 
ATOM     19  C   UNL     1      32.906 -13.812 -24.131  0.00  0.00    +0.241 C 
ATOM     20  C   UNL     1      32.602 -12.835 -25.182  0.00  0.00    +0.239 C 
ATOM     21  C   UNL     1      33.431 -11.205 -23.729  0.00  0.00    +0.208 C 
ATOM     22  H   UNL     1      34.007 -14.567 -21.240  0.00  0.00    +0.175 HD
ATOM     23  H   UNL     1      34.110  -9.613 -22.623  0.00  0.00    +0.156 HD
ATOM     24  H   UNL     1      33.522  -9.201 -24.170  0.00  0.00    +0.156 HD
ENDBRANCH   5  12
ENDBRANCH   3   6
BRANCH   2  25
ATOM     25  C   UNL     1      35.542 -20.761 -18.496  0.00  0.00    +0.117 C 
BRANCH  25  26
ATOM     26  C   UNL     1      34.536 -21.540 -17.699  0.00  0.00    +0.003 C 
ATOM     27  C   UNL     1      34.840 -22.064 -16.446  0.00  0.00    +0.027 C 
ATOM     28  C   UNL     1      33.274 -21.729 -18.255  0.00  0.00    -0.002 C 
ATOM     29  C   UNL     1      33.874 -22.782 -15.743  0.00  0.00    +0.006 C 
ATOM     30  C   UNL     1      32.308 -22.447 -17.551  0.00  0.00    -0.000 C 
ATOM     31  C   UNL     1      32.607 -22.973 -16.295  0.00  0.00    +0.000 C 
BRANCH  27  32
ATOM     32  S   UNL     1      36.448 -21.846 -15.695  0.00  0.00    -0.087 S 
BRANCH  32  33
ATOM     33  C   UNL     1      36.290 -22.874 -14.242  0.00  0.00    +0.028 C 
ATOM     34  C   UNL     1      37.184 -23.913 -13.977  0.00  0.00    +0.013 C 
ATOM     35  C   UNL     1      35.240 -22.617 -13.360  0.00  0.00    +0.006 C 
ATOM     36  C   UNL     1      37.027 -24.693 -12.832  0.00  0.00    -0.001 C 
ATOM     37  C   UNL     1      35.083 -23.398 -12.214  0.00  0.00    +0.000 C 
ATOM     38  C   UNL     1      35.977 -24.436 -11.950  0.00  0.00    -0.000 C 
BRANCH  34  39
ATOM     39  C   UNL     1      38.325 -24.228 -14.890  0.00  0.00    +0.164 C 
BRANCH  39  40
ATOM     40  O   UNL     1      38.723 -25.578 -14.693  0.00  0.00    -0.377 OA
ATOM     41  H   UNL     1      38.099 -26.169 -15.144  0.00  0.00    +0.211 HD
ENDBRANCH  39  40
ENDBRANCH  34  39
ENDBRANCH  32  33
ENDBRANCH  27  32
ENDBRANCH  25  26
ENDBRANCH   2  25
TORSDOF 8
ENDMDL
MODEL 4
REMARK VINA RESULT:     -12.3      5.563     13.298
REMARK  Name = 448408
REMARK  8 active torsions:
REMARK  status: ('A' for Active; 'I' for Inactive)
REMARK    1  A    between atoms: N_2  and  C_25
REMARK    2  A    between atoms: C_3  and  C_6
REMARK    3  A    between atoms: C_5  and  N_12
REMARK    4  A    between atoms: C_25  and  C_26
REMARK    5  A    between atoms: C_27  and  S_32
REMARK    6  A    between atoms: S_32  and  C_33
REMARK    7  A    between atoms: C_34  and  C_39
REMARK    8  A    between atoms: C_39  and  O_40
REMARK                            x       y       z     vdW  Elec       q    Type
REMARK                         _______ _______ _______ _____ _____    ______ ____
ROOT
ATOM      1  O   UNL     1      33.820 -13.839 -20.464  0.00  0.00    -0.270 OA
ATOM      2  N   UNL     1      32.370 -13.302 -22.191  0.00  0.00    -0.297 N 
ATOM      3  C   UNL     1      33.274 -14.147 -21.538  0.00  0.00    +0.246 C 
ATOM      4  H   UNL     1      31.975 -13.609 -23.039  0.00  0.00    +0.150 HD
ENDROOT
BRANCH   3   6
ATOM      5  C   UNL     1      34.169 -17.770 -22.020  0.00  0.00    +0.090 C 
ATOM      6  C   UNL     1      33.577 -15.415 -22.183  0.00  0.00    +0.055 C 
ATOM      7  C   UNL     1      33.873 -16.538 -21.411  0.00  0.00    +0.023 C 
ATOM      8  C   UNL     1      34.161 -17.845 -23.423  0.00  0.00    +0.018 C 
ATOM      9  C   UNL     1      33.574 -15.506 -23.576  0.00  0.00    +0.005 C 
ATOM     10  C   UNL     1      33.865 -16.721 -24.195  0.00  0.00    +0.002 C 
BRANCH   5  12
ATOM     11  O   UNL     1      32.023 -21.501 -19.111  0.00  0.00    -0.207 OA
ATOM     12  N   UNL     1      34.462 -18.890 -21.251  0.00  0.00    -0.137 N 
ATOM     13  N   UNL     1      35.555 -19.018 -20.453  0.00  0.00    -0.215 N 
ATOM     14  N   UNL     1      33.406 -19.674 -20.793  0.00  0.00    -0.143 NA
ATOM     15  N   UNL     1      35.847 -20.388 -18.434  0.00  0.00    -0.309 NA
ATOM     16  N   UNL     1      33.916 -21.683 -17.785  0.00  0.00    -0.251 NA
ATOM     17  N   UNL     1      35.860 -21.787 -16.536  0.00  0.00    -0.283 N 
ATOM     18  C   UNL     1      35.258 -19.884 -19.452  0.00  0.00    +0.243 C 
ATOM     19  C   UNL     1      33.865 -20.264 -19.734  0.00  0.00    +0.241 C 
ATOM     20  C   UNL     1      33.180 -21.210 -18.846  0.00  0.00    +0.239 C 
ATOM     21  C   UNL     1      35.161 -21.286 -17.611  0.00  0.00    +0.208 C 
ATOM     22  H   UNL     1      36.417 -18.559 -20.580  0.00  0.00    +0.175 HD
ATOM     23  H   UNL     1      36.791 -21.509 -16.381  0.00  0.00    +0.156 HD
ATOM     24  H   UNL     1      35.428 -22.424 -15.922  0.00  0.00    +0.156 HD
ENDBRANCH   5  12
ENDBRANCH   3   6
BRANCH   2  25
ATOM     25  C   UNL     1      31.986 -12.001 -21.689  0.00  0.00    +0.117 C 
BRANCH  25  26
ATOM     26  C   UNL     1      32.521 -10.890 -22.545  0.00  0.00    +0.003 C 
ATOM     27  C   UNL     1      32.072  -9.579 -22.409  0.00  0.00    +0.027 C 
ATOM     28  C   UNL     1      33.491 -11.208 -23.491  0.00  0.00    -0.002 C 
ATOM     29  C   UNL     1      32.597  -8.579 -23.227  0.00  0.00    +0.006 C 
ATOM     30  C   UNL     1      34.016 -10.208 -24.309  0.00  0.00    -0.000 C 
ATOM     31  C   UNL     1      33.570  -8.893 -24.177  0.00  0.00    +0.000 C 
BRANCH  27  32
ATOM     32  S   UNL     1      30.829  -9.126 -21.207  0.00  0.00    -0.087 S 
BRANCH  32  33
ATOM     33  C   UNL     1      30.759  -7.356 -21.437  0.00  0.00    +0.028 C 
ATOM     34  C   UNL     1      31.369  -6.474 -20.542  0.00  0.00    +0.013 C 
ATOM     35  C   UNL     1      30.072  -6.857 -22.545  0.00  0.00    +0.006 C 
ATOM     36  C   UNL     1      31.293  -5.098 -20.756  0.00  0.00    -0.001 C 
ATOM     37  C   UNL     1      29.996  -5.480 -22.758  0.00  0.00    +0.000 C 
ATOM     38  C   UNL     1      30.606  -4.601 -21.863  0.00  0.00    -0.000 C 
BRANCH  34  39
ATOM     39  C   UNL     1      32.116  -6.957 -19.341  0.00  0.00    +0.164 C 
BRANCH  39  40
ATOM     40  O   UNL     1      32.095  -5.949 -18.339  0.00  0.00    -0.377 OA
ATOM     41  H   UNL     1      31.968  -6.360 -17.469  0.00  0.00    +0.211 HD
ENDBRANCH  39  40
ENDBRANCH  34  39
ENDBRANCH  32  33
ENDBRANCH  27  32
ENDBRANCH  25  26
ENDBRANCH   2  25
TORSDOF 8
ENDMDL
MODEL 5
REMARK VINA RESULT:     -12.0      3.446     11.329
REMARK  Name = 448408
REMARK  8 active torsions:
REMARK  status: ('A' for Active; 'I' for Inactive)
REMARK    1  A    between atoms: N_2  and  C_25
REMARK    2  A    between atoms: C_3  and  C_6
REMARK    3  A    between atoms: C_5  and  N_12
REMARK    4  A    between atoms: C_25  and  C_26
REMARK    5  A    between atoms: C_27  and  S_32
REMARK    6  A    between atoms: S_32  and  C_33
REMARK    7  A    between atoms: C_34  and  C_39
REMARK    8  A    between atoms: C_39  and  O_40
REMARK                            x       y       z     vdW  Elec       q    Type
REMARK                         _______ _______ _______ _____ _____    ______ ____
ROOT
ATOM      1  O   UNL     1      36.062 -19.796 -19.730  0.00  0.00    -0.270 OA
ATOM      2  N   UNL     1      34.107 -18.932 -20.629  0.00  0.00    -0.297 N 
ATOM      3  C   UNL     1      34.818 -19.772 -19.765  0.00  0.00    +0.246 C 
ATOM      4  H   UNL     1      33.123 -18.965 -20.605  0.00  0.00    +0.150 HD
ENDROOT
BRANCH   3   6
ATOM      5  C   UNL     1      33.901 -22.133 -16.983  0.00  0.00    +0.090 C 
ATOM      6  C   UNL     1      34.038 -20.652 -18.909  0.00  0.00    +0.055 C 
ATOM      7  C   UNL     1      34.641 -21.280 -17.819  0.00  0.00    +0.023 C 
ATOM      8  C   UNL     1      32.541 -22.342 -17.269  0.00  0.00    +0.018 C 
ATOM      9  C   UNL     1      32.687 -20.870 -19.179  0.00  0.00    +0.005 C 
ATOM     10  C   UNL     1      31.939 -21.713 -18.360  0.00  0.00    +0.002 C 
BRANCH   5  12
ATOM     11  O   UNL     1      32.946 -24.154 -12.293  0.00  0.00    -0.207 OA
ATOM     12  N   UNL     1      34.501 -22.758 -15.895  0.00  0.00    -0.137 N 
ATOM     13  N   UNL     1      35.741 -22.466 -15.420  0.00  0.00    -0.215 N 
ATOM     14  N   UNL     1      33.683 -23.274 -14.893  0.00  0.00    -0.143 NA
ATOM     15  N   UNL     1      36.630 -22.732 -13.145  0.00  0.00    -0.309 NA
ATOM     16  N   UNL     1      35.076 -23.639 -11.536  0.00  0.00    -0.251 NA
ATOM     17  N   UNL     1      37.229 -23.088 -10.893  0.00  0.00    -0.283 N 
ATOM     18  C   UNL     1      35.780 -22.777 -14.101  0.00  0.00    +0.243 C 
ATOM     19  C   UNL     1      34.427 -23.289 -13.832  0.00  0.00    +0.241 C 
ATOM     20  C   UNL     1      34.080 -23.737 -12.478  0.00  0.00    +0.239 C 
ATOM     21  C   UNL     1      36.261 -23.167 -11.868  0.00  0.00    +0.208 C 
ATOM     22  H   UNL     1      36.485 -22.091 -15.946  0.00  0.00    +0.175 HD
ATOM     23  H   UNL     1      38.123 -22.740 -11.112  0.00  0.00    +0.156 HD
ATOM     24  H   UNL     1      37.026 -23.381  -9.975  0.00  0.00    +0.156 HD
ENDBRANCH   5  12
ENDBRANCH   3   6
BRANCH   2  25
ATOM     25  C   UNL     1      34.738 -18.019 -21.556  0.00  0.00    +0.117 C 
BRANCH  25  26
ATOM     26  C   UNL     1      33.818 -17.635 -22.678  0.00  0.00    +0.003 C 
ATOM     27  C   UNL     1      33.666 -16.311 -23.081  0.00  0.00    +0.027 C 
ATOM     28  C   UNL     1      33.111 -18.651 -23.315  0.00  0.00    -0.002 C 
ATOM     29  C   UNL     1      32.799 -16.001 -24.128  0.00  0.00    +0.006 C 
ATOM     30  C   UNL     1      32.244 -18.340 -24.362  0.00  0.00    -0.000 C 
ATOM     31  C   UNL     1      32.088 -17.016 -24.769  0.00  0.00    +0.000 C 
BRANCH  27  32
ATOM     32  S   UNL     1      34.555 -14.976 -22.292  0.00  0.00    -0.087 S 
BRANCH  32  33
ATOM     33  C   UNL     1      33.221 -14.110 -21.477  0.00  0.00    +0.028 C 
ATOM     34  C   UNL     1      32.567 -13.034 -22.080  0.00  0.00    +0.013 C 
ATOM     35  C   UNL     1      32.834 -14.534 -20.205  0.00  0.00    +0.006 C 
ATOM     36  C   UNL     1      31.530 -12.384 -21.412  0.00  0.00    -0.001 C 
ATOM     37  C   UNL     1      31.797 -13.883 -19.537  0.00  0.00    +0.000 C 
ATOM     38  C   UNL     1      31.145 -12.808 -20.140  0.00  0.00    -0.000 C 
BRANCH  34  39
ATOM     39  C   UNL     1      32.943 -12.541 -23.441  0.00  0.00    +0.164 C 
BRANCH  39  40
ATOM     40  O   UNL     1      33.770 -11.393 -23.311  0.00  0.00    -0.377 OA
ATOM     41  H   UNL     1      34.353 -11.325 -24.084  0.00  0.00    +0.211 HD
ENDBRANCH  39  40
ENDBRANCH  34  39
ENDBRANCH  32  33
ENDBRANCH  27  32
ENDBRANCH  25  26
ENDBRANCH   2  25
TORSDOF 8
ENDMDL
MODEL 6
REMARK VINA RESULT:     -11.9      1.170      1.674
REMARK  Name = 448408
REMARK  8 active torsions:
REMARK  status: ('A' for Active; 'I' for Inactive)
REMARK    1  A    between atoms: N_2  and  C_25
REMARK    2  A    between atoms: C_3  and  C_6
REMARK    3  A    between atoms: C_5  and  N_12
REMARK    4  A    between atoms: C_25  and  C_26
REMARK    5  A    between atoms: C_27  and  S_32
REMARK    6  A    between atoms: S_32  and  C_33
REMARK    7  A    between atoms: C_34  and  C_39
REMARK    8  A    between atoms: C_39  and  O_40
REMARK                            x       y       z     vdW  Elec       q    Type
REMARK                         _______ _______ _______ _____ _____    ______ ____
ROOT
ATOM      1  O   UNL     1      31.997 -21.420 -19.478  0.00  0.00    -0.270 OA
ATOM      2  N   UNL     1      33.721 -22.177 -18.126  0.00  0.00    -0.297 N 
ATOM      3  C   UNL     1      33.162 -21.299 -19.061  0.00  0.00    +0.246 C 
ATOM      4  H   UNL     1      34.651 -22.022 -17.839  0.00  0.00    +0.150 HD
ENDROOT
BRANCH   3   6
ATOM      5  C   UNL     1      34.262 -18.050 -20.608  0.00  0.00    +0.090 C 
ATOM      6  C   UNL     1      34.017 -20.231 -19.557  0.00  0.00    +0.055 C 
ATOM      7  C   UNL     1      33.449 -19.089 -20.123  0.00  0.00    +0.023 C 
ATOM      8  C   UNL     1      35.657 -18.185 -20.510  0.00  0.00    +0.018 C 
ATOM      9  C   UNL     1      35.404 -20.350 -19.467  0.00  0.00    +0.005 C 
ATOM     10  C   UNL     1      36.224 -19.327 -19.943  0.00  0.00    +0.002 C 
BRANCH   5  12
ATOM     11  O   UNL     1      33.165 -15.752 -25.136  0.00  0.00    -0.207 OA
ATOM     12  N   UNL     1      33.697 -16.911 -21.171  0.00  0.00    -0.137 N 
ATOM     13  N   UNL     1      33.809 -15.656 -20.662  0.00  0.00    -0.215 N 
ATOM     14  N   UNL     1      33.500 -16.883 -22.550  0.00  0.00    -0.143 NA
ATOM     15  N   UNL     1      33.708 -13.496 -21.829  0.00  0.00    -0.309 NA
ATOM     16  N   UNL     1      33.362 -13.634 -24.214  0.00  0.00    -0.251 NA
ATOM     17  N   UNL     1      33.572 -11.573 -23.185  0.00  0.00    -0.283 N 
ATOM     18  C   UNL     1      33.690 -14.767 -21.679  0.00  0.00    +0.243 C 
ATOM     19  C   UNL     1      33.495 -15.624 -22.859  0.00  0.00    +0.241 C 
ATOM     20  C   UNL     1      33.324 -15.008 -24.180  0.00  0.00    +0.239 C 
ATOM     21  C   UNL     1      33.542 -12.946 -23.104  0.00  0.00    +0.208 C 
ATOM     22  H   UNL     1      33.952 -15.431 -19.714  0.00  0.00    +0.175 HD
ATOM     23  H   UNL     1      33.704 -11.033 -22.373  0.00  0.00    +0.156 HD
ATOM     24  H   UNL     1      33.460 -11.130 -24.058  0.00  0.00    +0.156 HD
ENDBRANCH   5  12
ENDBRANCH   3   6
BRANCH   2  25
ATOM     25  C   UNL     1      33.009 -23.300 -17.558  0.00  0.00    +0.117 C 
BRANCH  25  26
ATOM     26  C   UNL     1      32.480 -22.993 -16.187  0.00  0.00    +0.003 C 
ATOM     27  C   UNL     1      33.328 -22.778 -15.105  0.00  0.00    +0.027 C 
ATOM     28  C   UNL     1      31.099 -22.930 -16.024  0.00  0.00    -0.002 C 
ATOM     29  C   UNL     1      32.791 -22.497 -13.849  0.00  0.00    +0.006 C 
ATOM     30  C   UNL     1      30.562 -22.649 -14.768  0.00  0.00    -0.000 C 
ATOM     31  C   UNL     1      31.408 -22.432 -13.680  0.00  0.00    +0.000 C 
BRANCH  27  32
ATOM     32  S   UNL     1      35.107 -22.851 -15.270  0.00  0.00    -0.087 S 
BRANCH  32  33
ATOM     33  C   UNL     1      35.570 -23.546 -13.690  0.00  0.00    +0.028 C 
ATOM     34  C   UNL     1      35.566 -24.924 -13.465  0.00  0.00    +0.013 C 
ATOM     35  C   UNL     1      35.941 -22.674 -12.665  0.00  0.00    +0.006 C 
ATOM     36  C   UNL     1      35.934 -25.428 -12.217  0.00  0.00    -0.001 C 
ATOM     37  C   UNL     1      36.308 -23.179 -11.418  0.00  0.00    +0.000 C 
ATOM     38  C   UNL     1      36.305 -24.556 -11.194  0.00  0.00    -0.000 C 
BRANCH  34  39
ATOM     39  C   UNL     1      35.177 -25.899 -14.529  0.00  0.00    +0.164 C 
BRANCH  39  40
ATOM     40  O   UNL     1      36.341 -26.557 -15.009  0.00  0.00    -0.377 OA
ATOM     41  H   UNL     1      36.267 -27.509 -14.840  0.00  0.00    +0.211 HD
ENDBRANCH  39  40
ENDBRANCH  34  39
ENDBRANCH  32  33
ENDBRANCH  27  32
ENDBRANCH  25  26
ENDBRANCH   2  25
TORSDOF 8
ENDMDL
MODEL 7
REMARK VINA RESULT:     -11.5      5.283      9.267
REMARK  Name = 448408
REMARK  8 active torsions:
REMARK  status: ('A' for Active; 'I' for Inactive)
REMARK    1  A    between atoms: N_2  and  C_25
REMARK    2  A    between atoms: C_3  and  C_6
REMARK    3  A    between atoms: C_5  and  N_12
REMARK    4  A    between atoms: C_25  and  C_26
REMARK    5  A    between atoms: C_27  and  S_32
REMARK    6  A    between atoms: S_32  and  C_33
REMARK    7  A    between atoms: C_34  and  C_39
REMARK    8  A    between atoms: C_39  and  O_40
REMARK                            x       y       z     vdW  Elec       q    Type
REMARK                         _______ _______ _______ _____ _____    ______ ____
ROOT
ATOM      1  O   UNL     1      32.268 -14.086 -20.414  0.00  0.00    -0.270 OA
ATOM      2  N   UNL     1      33.968 -14.715 -21.860  0.00  0.00    -0.297 N 
ATOM      3  C   UNL     1      32.997 -13.824 -21.387  0.00  0.00    +0.246 C 
ATOM      4  H   UNL     1      34.511 -14.443 -22.636  0.00  0.00    +0.150 HD
ENDROOT
BRANCH   3   6
ATOM      5  C   UNL     1      32.142 -10.238 -22.139  0.00  0.00    +0.090 C 
ATOM      6  C   UNL     1      32.852 -12.566 -22.102  0.00  0.00    +0.055 C 
ATOM      7  C   UNL     1      32.290 -11.461 -21.462  0.00  0.00    +0.023 C 
ATOM      8  C   UNL     1      32.571 -10.153 -23.474  0.00  0.00    +0.018 C 
ATOM      9  C   UNL     1      33.273 -12.464 -23.428  0.00  0.00    +0.005 C 
ATOM     10  C   UNL     1      33.133 -11.259 -24.114  0.00  0.00    +0.002 C 
BRANCH   5  12
ATOM     11  O   UNL     1      31.814  -5.056 -22.303  0.00  0.00    -0.207 OA
ATOM     12  N   UNL     1      31.584  -9.136 -21.501  0.00  0.00    -0.137 N 
ATOM     13  N   UNL     1      31.426  -9.016 -20.156  0.00  0.00    -0.215 N 
ATOM     14  N   UNL     1      31.698  -7.890 -22.112  0.00  0.00    -0.143 NA
ATOM     15  N   UNL     1      31.327  -6.979 -18.784  0.00  0.00    -0.309 NA
ATOM     16  N   UNL     1      31.541  -4.909 -20.006  0.00  0.00    -0.251 NA
ATOM     17  N   UNL     1      31.265  -4.883 -17.709  0.00  0.00    -0.283 N 
ATOM     18  C   UNL     1      31.431  -7.698 -19.839  0.00  0.00    +0.243 C 
ATOM     19  C   UNL     1      31.609  -7.035 -21.141  0.00  0.00    +0.241 C 
ATOM     20  C   UNL     1      31.664  -5.570 -21.205  0.00  0.00    +0.239 C 
ATOM     21  C   UNL     1      31.385  -5.587 -18.886  0.00  0.00    +0.208 C 
ATOM     22  H   UNL     1      31.326  -9.761 -19.520  0.00  0.00    +0.175 HD
ATOM     23  H   UNL     1      31.147  -5.362 -16.858  0.00  0.00    +0.156 HD
ATOM     24  H   UNL     1      31.299  -3.899 -17.719  0.00  0.00    +0.156 HD
ENDBRANCH   5  12
ENDBRANCH   3   6
BRANCH   2  25
ATOM     25  C   UNL     1      34.216 -16.012 -21.273  0.00  0.00    +0.117 C 
BRANCH  25  26
ATOM     26  C   UNL     1      33.994 -17.125 -22.257  0.00  0.00    +0.003 C 
ATOM     27  C   UNL     1      34.455 -18.416 -22.019  0.00  0.00    +0.027 C 
ATOM     28  C   UNL     1      33.307 -16.827 -23.429  0.00  0.00    -0.002 C 
ATOM     29  C   UNL     1      34.227 -19.418 -22.962  0.00  0.00    +0.006 C 
ATOM     30  C   UNL     1      33.078 -17.828 -24.372  0.00  0.00    -0.000 C 
ATOM     31  C   UNL     1      33.537 -19.124 -24.139  0.00  0.00    +0.000 C 
BRANCH  27  32
ATOM     32  S   UNL     1      35.343 -18.843 -20.527  0.00  0.00    -0.087 S 
BRANCH  32  33
ATOM     33  C   UNL     1      34.166 -19.922 -19.724  0.00  0.00    +0.028 C 
ATOM     34  C   UNL     1      34.566 -20.883 -18.794  0.00  0.00    +0.013 C 
ATOM     35  C   UNL     1      32.815 -19.788 -20.049  0.00  0.00    +0.006 C 
ATOM     36  C   UNL     1      33.617 -21.706 -18.189  0.00  0.00    -0.001 C 
ATOM     37  C   UNL     1      31.866 -20.612 -19.444  0.00  0.00    +0.000 C 
ATOM     38  C   UNL     1      32.267 -21.571 -18.514  0.00  0.00    -0.000 C 
BRANCH  34  39
ATOM     39  C   UNL     1      36.000 -21.066 -18.412  0.00  0.00    +0.164 C 
BRANCH  39  40
ATOM     40  O   UNL     1      36.194 -20.597 -17.085  0.00  0.00    -0.377 OA
ATOM     41  H   UNL     1      35.338 -20.355 -16.699  0.00  0.00    +0.211 HD
ENDBRANCH  39  40
ENDBRANCH  34  39
ENDBRANCH  32  33
ENDBRANCH  27  32
ENDBRANCH  25  26
ENDBRANCH   2  25
TORSDOF 8
ENDMDL
MODEL 8
REMARK VINA RESULT:     -11.5      3.458     11.061
REMARK  Name = 448408
REMARK  8 active torsions:
REMARK  status: ('A' for Active; 'I' for Inactive)
REMARK    1  A    between atoms: N_2  and  C_25
REMARK    2  A    between atoms: C_3  and  C_6
REMARK    3  A    between atoms: C_5  and  N_12
REMARK    4  A    between atoms: C_25  and  C_26
REMARK    5  A    between atoms: C_27  and  S_32
REMARK    6  A    between atoms: S_32  and  C_33
REMARK    7  A    between atoms: C_34  and  C_39
REMARK    8  A    between atoms: C_39  and  O_40
REMARK                            x       y       z     vdW  Elec       q    Type
REMARK                         _______ _______ _______ _____ _____    ______ ____
ROOT
ATOM      1  O   UNL     1      33.054 -22.901 -19.291  0.00  0.00    -0.270 OA
ATOM      2  N   UNL     1      32.488 -20.710 -18.786  0.00  0.00    -0.297 N 
ATOM      3  C   UNL     1      32.664 -22.060 -18.462  0.00  0.00    +0.246 C 
ATOM      4  H   UNL     1      32.176 -20.098 -18.080  0.00  0.00    +0.150 HD
ENDROOT
BRANCH   3   6
ATOM      5  C   UNL     1      33.034 -23.435 -14.979  0.00  0.00    +0.090 C 
ATOM      6  C   UNL     1      32.346 -22.459 -17.100  0.00  0.00    +0.055 C 
ATOM      7  C   UNL     1      33.326 -23.044 -16.297  0.00  0.00    +0.023 C 
ATOM      8  C   UNL     1      31.735 -23.225 -14.487  0.00  0.00    +0.018 C 
ATOM      9  C   UNL     1      31.061 -22.256 -16.596  0.00  0.00    +0.005 C 
ATOM     10  C   UNL     1      30.755 -22.639 -15.290  0.00  0.00    +0.002 C 
BRANCH   5  12
ATOM     11  O   UNL     1      36.713 -22.380 -11.466  0.00  0.00    -0.207 OA
ATOM     12  N   UNL     1      34.010 -24.018 -14.179  0.00  0.00    -0.137 N 
ATOM     13  N   UNL     1      34.786 -25.072 -14.546  0.00  0.00    -0.215 N 
ATOM     14  N   UNL     1      34.650 -23.224 -13.231  0.00  0.00    -0.143 NA
ATOM     15  N   UNL     1      37.036 -25.684 -13.769  0.00  0.00    -0.309 NA
ATOM     16  N   UNL     1      37.993 -24.197 -12.127  0.00  0.00    -0.251 NA
ATOM     17  N   UNL     1      39.181 -26.041 -12.860  0.00  0.00    -0.283 N 
ATOM     18  C   UNL     1      35.952 -25.008 -13.857  0.00  0.00    +0.243 C 
ATOM     19  C   UNL     1      35.795 -23.798 -13.034  0.00  0.00    +0.241 C 
ATOM     20  C   UNL     1      36.879 -23.391 -12.132  0.00  0.00    +0.239 C 
ATOM     21  C   UNL     1      38.046 -25.264 -12.899  0.00  0.00    +0.208 C 
ATOM     22  H   UNL     1      34.542 -25.766 -15.201  0.00  0.00    +0.175 HD
ATOM     23  H   UNL     1      39.249 -26.844 -13.425  0.00  0.00    +0.156 HD
ATOM     24  H   UNL     1      39.926 -25.794 -12.265  0.00  0.00    +0.156 HD
ENDBRANCH   5  12
ENDBRANCH   3   6
BRANCH   2  25
ATOM     25  C   UNL     1      32.738 -20.165 -20.101  0.00  0.00    +0.117 C 
BRANCH  25  26
ATOM     26  C   UNL     1      34.137 -19.638 -20.234  0.00  0.00    +0.003 C 
ATOM     27  C   UNL     1      34.499 -18.769 -21.259  0.00  0.00    +0.027 C 
ATOM     28  C   UNL     1      35.077 -20.047 -19.292  0.00  0.00    -0.002 C 
ATOM     29  C   UNL     1      35.812 -18.306 -21.343  0.00  0.00    +0.006 C 
ATOM     30  C   UNL     1      36.389 -19.584 -19.376  0.00  0.00    -0.000 C 
ATOM     31  C   UNL     1      36.757 -18.713 -20.401  0.00  0.00    +0.000 C 
BRANCH  27  32
ATOM     32  S   UNL     1      33.325 -18.218 -22.490  0.00  0.00    -0.087 S 
BRANCH  32  33
ATOM     33  C   UNL     1      33.423 -16.446 -22.289  0.00  0.00    +0.028 C 
ATOM     34  C   UNL     1      33.162 -15.571 -23.345  0.00  0.00    +0.013 C 
ATOM     35  C   UNL     1      33.773 -15.939 -21.036  0.00  0.00    +0.006 C 
ATOM     36  C   UNL     1      33.249 -14.193 -23.148  0.00  0.00    -0.001 C 
ATOM     37  C   UNL     1      33.860 -14.561 -20.840  0.00  0.00    +0.000 C 
ATOM     38  C   UNL     1      33.598 -13.688 -21.896  0.00  0.00    -0.000 C 
BRANCH  34  39
ATOM     39  C   UNL     1      32.784 -16.063 -24.705  0.00  0.00    +0.164 C 
BRANCH  39  40
ATOM     40  O   UNL     1      32.695 -14.958 -25.595  0.00  0.00    -0.377 OA
ATOM     41  H   UNL     1      32.382 -14.178 -25.110  0.00  0.00    +0.211 HD
ENDBRANCH  39  40
ENDBRANCH  34  39
ENDBRANCH  32  33
ENDBRANCH  27  32
ENDBRANCH  25  26
ENDBRANCH   2  25
TORSDOF 8
ENDMDL
MODEL 9
REMARK VINA RESULT:     -11.5      4.976      8.941
REMARK  Name = 448408
REMARK  8 active torsions:
REMARK  status: ('A' for Active; 'I' for Inactive)
REMARK    1  A    between atoms: N_2  and  C_25
REMARK    2  A    between atoms: C_3  and  C_6
REMARK    3  A    between atoms: C_5  and  N_12
REMARK    4  A    between atoms: C_25  and  C_26
REMARK    5  A    between atoms: C_27  and  S_32
REMARK    6  A    between atoms: S_32  and  C_33
REMARK    7  A    between atoms: C_34  and  C_39
REMARK    8  A    between atoms: C_39  and  O_40
REMARK                            x       y       z     vdW  Elec       q    Type
REMARK                         _______ _______ _______ _____ _____    ______ ____
ROOT
ATOM      1  O   UNL     1      34.124 -13.536 -22.786  0.00  0.00    -0.270 OA
ATOM      2  N   UNL     1      33.783 -15.066 -21.078  0.00  0.00    -0.297 N 
ATOM      3  C   UNL     1      33.516 -13.870 -21.753  0.00  0.00    +0.246 C 
ATOM      4  H   UNL     1      33.264 -15.269 -20.266  0.00  0.00    +0.150 HD
ENDROOT
BRANCH   3   6
ATOM      5  C   UNL     1      31.331 -10.867 -21.149  0.00  0.00    +0.090 C 
ATOM      6  C   UNL     1      32.499 -13.001 -21.181  0.00  0.00    +0.055 C 
ATOM      7  C   UNL     1      32.310 -11.718 -21.692  0.00  0.00    +0.023 C 
ATOM      8  C   UNL     1      30.550 -11.336 -20.080  0.00  0.00    +0.018 C 
ATOM      9  C   UNL     1      31.714 -13.453 -20.119  0.00  0.00    +0.005 C 
ATOM     10  C   UNL     1      30.740 -12.620 -19.569  0.00  0.00    +0.002 C 
BRANCH   5  12
ATOM     11  O   UNL     1      33.749  -6.933 -23.532  0.00  0.00    -0.207 OA
ATOM     12  N   UNL     1      31.141  -9.587 -21.660  0.00  0.00    -0.137 N 
ATOM     13  N   UNL     1      30.339  -8.642 -21.104  0.00  0.00    -0.215 N 
ATOM     14  N   UNL     1      32.173  -9.008 -22.395  0.00  0.00    -0.143 NA
ATOM     15  N   UNL     1      30.500  -6.193 -21.248  0.00  0.00    -0.309 NA
ATOM     16  N   UNL     1      32.346  -5.363 -22.562  0.00  0.00    -0.251 NA
ATOM     17  N   UNL     1      30.883  -3.887 -21.547  0.00  0.00    -0.283 N 
ATOM     18  C   UNL     1      30.810  -7.419 -21.452  0.00  0.00    +0.243 C 
ATOM     19  C   UNL     1      31.987  -7.730 -22.279  0.00  0.00    +0.241 C 
ATOM     20  C   UNL     1      32.778  -6.636 -22.852  0.00  0.00    +0.239 C 
ATOM     21  C   UNL     1      31.279  -5.178 -21.810  0.00  0.00    +0.208 C 
ATOM     22  H   UNL     1      29.548  -8.816 -20.543  0.00  0.00    +0.175 HD
ATOM     23  H   UNL     1      30.089  -3.719 -20.989  0.00  0.00    +0.156 HD
ATOM     24  H   UNL     1      31.394  -3.131 -21.917  0.00  0.00    +0.156 HD
ENDBRANCH   5  12
ENDBRANCH   3   6
BRANCH   2  25
ATOM     25  C   UNL     1      34.780 -16.021 -21.508  0.00  0.00    +0.117 C 
BRANCH  25  26
ATOM     26  C   UNL     1      34.192 -17.092 -22.381  0.00  0.00    +0.003 C 
ATOM     27  C   UNL     1      34.383 -18.444 -22.113  0.00  0.00    +0.027 C 
ATOM     28  C   UNL     1      33.441 -16.691 -23.482  0.00  0.00    -0.002 C 
ATOM     29  C   UNL     1      33.818 -19.403 -22.953  0.00  0.00    +0.006 C 
ATOM     30  C   UNL     1      32.876 -17.650 -24.322  0.00  0.00    -0.000 C 
ATOM     31  C   UNL     1      33.064 -19.006 -24.058  0.00  0.00    +0.000 C 
BRANCH  27  32
ATOM     32  S   UNL     1      35.341 -19.003 -20.710  0.00  0.00    -0.087 S 
BRANCH  32  33
ATOM     33  C   UNL     1      34.123 -19.966 -19.826  0.00  0.00    +0.028 C 
ATOM     34  C   UNL     1      34.491 -20.913 -18.868  0.00  0.00    +0.013 C 
ATOM     35  C   UNL     1      32.774 -19.756 -20.114  0.00  0.00    +0.006 C 
ATOM     36  C   UNL     1      33.510 -21.645 -18.198  0.00  0.00    -0.001 C 
ATOM     37  C   UNL     1      31.794 -20.489 -19.445  0.00  0.00    +0.000 C 
ATOM     38  C   UNL     1      32.162 -21.433 -18.487  0.00  0.00    -0.000 C 
BRANCH  34  39
ATOM     39  C   UNL     1      35.921 -21.176 -18.523  0.00  0.00    +0.164 C 
BRANCH  39  40
ATOM     40  O   UNL     1      36.064 -21.206 -17.109  0.00  0.00    -0.377 OA
ATOM     41  H   UNL     1      36.954 -21.517 -16.881  0.00  0.00    +0.211 HD
ENDBRANCH  39  40
ENDBRANCH  34  39
ENDBRANCH  32  33
ENDBRANCH  27  32
ENDBRANCH  25  26
ENDBRANCH   2  25
TORSDOF 8
ENDMDL
