MODEL 1
REMARK VINA RESULT:     -11.7      0.000      0.000
REMARK  Name = 24778473
REMARK  2 active torsions:
REMARK  status: ('A' for Active; 'I' for Inactive)
REMARK    1  A    between atoms: C_11  and  C_22
REMARK    2  A    between atoms: C_17  and  N_29
REMARK                            x       y       z     vdW  Elec       q    Type
REMARK                         _______ _______ _______ _____ _____    ______ ____
ROOT
ATOM      1  O   UNL     1      32.030 -22.040 -17.241  0.00  0.00    -0.270 OA
ATOM      2  O   UNL     1      36.147 -22.591 -15.262  0.00  0.00    -0.270 OA
ATOM      3  N   UNL     1      30.484 -24.603 -12.905  0.00  0.00    -0.353 N 
ATOM      4  N   UNL     1      34.251 -22.138 -16.543  0.00  0.00    -0.248 N 
ATOM      5  C   UNL     1      31.531 -23.556 -14.580  0.00  0.00    +0.022 A 
ATOM      6  C   UNL     1      32.695 -23.073 -15.192  0.00  0.00    +0.060 C 
ATOM      7  C   UNL     1      31.721 -24.203 -13.348  0.00  0.00    +0.057 A 
ATOM      8  C   UNL     1      30.124 -23.586 -14.861  0.00  0.00    +0.018 A 
ATOM      9  C   UNL     1      33.945 -23.236 -14.597  0.00  0.00    +0.058 C 
ATOM     10  C   UNL     1      29.504 -24.245 -13.796  0.00  0.00    +0.057 A 
ATOM     11  C   UNL     1      34.119 -23.872 -13.389  0.00  0.00    +0.007 C 
ATOM     12  C   UNL     1      32.986 -24.370 -12.742  0.00  0.00    +0.017 C 
ATOM     13  C   UNL     1      32.896 -22.361 -16.453  0.00  0.00    +0.252 C 
ATOM     14  C   UNL     1      34.949 -22.632 -15.470  0.00  0.00    +0.252 C 
ATOM     15  C   UNL     1      29.304 -23.121 -15.912  0.00  0.00    +0.016 C 
ATOM     16  C   UNL     1      28.121 -24.460 -13.732  0.00  0.00    +0.018 C 
ATOM     17  C   UNL     1      27.919 -23.328 -15.862  0.00  0.00    +0.051 C 
ATOM     18  C   UNL     1      27.338 -23.989 -14.785  0.00  0.00    +0.016 C 
ATOM     19  H   UNL     1      30.323 -25.083 -12.061  0.00  0.00    +0.166 HD
ATOM     20  H   UNL     1      34.676 -21.671 -17.299  0.00  0.00    +0.158 HD
ENDROOT
BRANCH  11  22
ATOM     21 CL   UNL     1      35.801 -26.306 -14.257  0.00  0.00    -0.082 Cl
ATOM     22  C   UNL     1      35.418 -24.039 -12.772  0.00  0.00    +0.011 C 
ATOM     23  C   UNL     1      36.255 -25.106 -13.098  0.00  0.00    +0.058 C 
ATOM     24  C   UNL     1      35.826 -23.094 -11.831  0.00  0.00    +0.001 C 
ATOM     25  C   UNL     1      37.501 -25.229 -12.481  0.00  0.00    +0.011 C 
ATOM     26  C   UNL     1      37.071 -23.217 -11.214  0.00  0.00    +0.000 C 
ATOM     27  C   UNL     1      37.908 -24.284 -11.540  0.00  0.00    +0.001 C 
ENDBRANCH  11  22
BRANCH  17  29
ATOM     28  O   UNL     1      25.569 -21.410 -15.860  0.00  0.00    -0.265 OA
ATOM     29  N   UNL     1      27.115 -22.866 -16.905  0.00  0.00    -0.277 N 
ATOM     30  C   UNL     1      26.046 -21.980 -16.832  0.00  0.00    +0.303 C 
ATOM     31  H   UNL     1      27.331 -23.209 -17.802  0.00  0.00    +0.155 HD
ENDBRANCH  17  29
TORSDOF 2
ENDMDL
MODEL 2
REMARK VINA RESULT:     -10.7      1.069      1.415
REMARK  Name = 24778473
REMARK  2 active torsions:
REMARK  status: ('A' for Active; 'I' for Inactive)
REMARK    1  A    between atoms: C_11  and  C_22
REMARK    2  A    between atoms: C_17  and  N_29
REMARK                            x       y       z     vdW  Elec       q    Type
REMARK                         _______ _______ _______ _____ _____    ______ ____
ROOT
ATOM      1  O   UNL     1      32.148 -21.813 -17.165  0.00  0.00    -0.270 OA
ATOM      2  O   UNL     1      36.404 -22.667 -15.642  0.00  0.00    -0.270 OA
ATOM      3  N   UNL     1      30.919 -24.929 -13.098  0.00  0.00    -0.353 N 
ATOM      4  N   UNL     1      34.417 -22.025 -16.681  0.00  0.00    -0.248 N 
ATOM      5  C   UNL     1      31.843 -23.673 -14.701  0.00  0.00    +0.022 A 
ATOM      6  C   UNL     1      32.961 -23.122 -15.340  0.00  0.00    +0.060 C 
ATOM      7  C   UNL     1      32.122 -24.483 -13.588  0.00  0.00    +0.057 A 
ATOM      8  C   UNL     1      30.417 -23.651 -14.861  0.00  0.00    +0.018 A 
ATOM      9  C   UNL     1      34.253 -23.376 -14.882  0.00  0.00    +0.058 C 
ATOM     10  C   UNL     1      29.875 -24.443 -13.845  0.00  0.00    +0.057 A 
ATOM     11  C   UNL     1      34.515 -24.172 -13.790  0.00  0.00    +0.007 C 
ATOM     12  C   UNL     1      33.430 -24.743 -13.121  0.00  0.00    +0.017 C 
ATOM     13  C   UNL     1      33.070 -22.246 -16.505  0.00  0.00    +0.252 C 
ATOM     14  C   UNL     1      35.192 -22.668 -15.749  0.00  0.00    +0.252 C 
ATOM     15  C   UNL     1      29.521 -23.040 -15.764  0.00  0.00    +0.016 C 
ATOM     16  C   UNL     1      28.498 -24.652 -13.691  0.00  0.00    +0.018 C 
ATOM     17  C   UNL     1      28.141 -23.239 -15.624  0.00  0.00    +0.051 C 
ATOM     18  C   UNL     1      27.639 -24.034 -14.600  0.00  0.00    +0.016 C 
ATOM     19  H   UNL     1      30.819 -25.517 -12.315  0.00  0.00    +0.166 HD
ATOM     20  H   UNL     1      34.786 -21.465 -17.401  0.00  0.00    +0.158 HD
ENDROOT
BRANCH  11  22
ATOM     21 CL   UNL     1      35.426 -22.713 -11.232  0.00  0.00    -0.082 Cl
ATOM     22  C   UNL     1      35.857 -24.433 -13.316  0.00  0.00    +0.011 C 
ATOM     23  C   UNL     1      36.363 -23.825 -12.168  0.00  0.00    +0.058 C 
ATOM     24  C   UNL     1      36.649 -25.324 -14.041  0.00  0.00    +0.001 C 
ATOM     25  C   UNL     1      37.663 -24.105 -11.745  0.00  0.00    +0.011 C 
ATOM     26  C   UNL     1      37.948 -25.604 -13.618  0.00  0.00    +0.000 C 
ATOM     27  C   UNL     1      38.455 -24.995 -12.470  0.00  0.00    +0.001 C 
ENDBRANCH  11  22
BRANCH  17  29
ATOM     28  O   UNL     1      25.570 -21.699 -15.154  0.00  0.00    -0.265 OA
ATOM     29  N   UNL     1      27.262 -22.632 -16.522  0.00  0.00    -0.277 N 
ATOM     30  C   UNL     1      26.092 -21.936 -16.234  0.00  0.00    +0.303 C 
ATOM     31  H   UNL     1      27.499 -22.704 -17.474  0.00  0.00    +0.155 HD
ENDBRANCH  17  29
TORSDOF 2
ENDMDL
MODEL 3
REMARK VINA RESULT:     -10.6     14.504     16.747
REMARK  Name = 24778473
REMARK  2 active torsions:
REMARK  status: ('A' for Active; 'I' for Inactive)
REMARK    1  A    between atoms: C_11  and  C_22
REMARK    2  A    between atoms: C_17  and  N_29
REMARK                            x       y       z     vdW  Elec       q    Type
REMARK                         _______ _______ _______ _____ _____    ______ ____
ROOT
ATOM      1  O   UNL     1      30.356  -9.070 -20.200  0.00  0.00    -0.270 OA
ATOM      2  O   UNL     1      31.262 -13.530 -20.875  0.00  0.00    -0.270 OA
ATOM      3  N   UNL     1      33.643  -8.597 -24.291  0.00  0.00    -0.353 N 
ATOM      4  N   UNL     1      30.582 -11.389 -20.248  0.00  0.00    -0.248 N 
ATOM      5  C   UNL     1      32.318  -9.216 -22.599  0.00  0.00    +0.022 A 
ATOM      6  C   UNL     1      31.738 -10.200 -21.788  0.00  0.00    +0.060 C 
ATOM      7  C   UNL     1      33.173  -9.692 -23.606  0.00  0.00    +0.057 A 
ATOM      8  C   UNL     1      32.294  -7.785 -22.706  0.00  0.00    +0.018 A 
ATOM      9  C   UNL     1      32.008 -11.553 -21.989  0.00  0.00    +0.058 C 
ATOM     10  C   UNL     1      33.129  -7.436 -23.770  0.00  0.00    +0.057 A 
ATOM     11  C   UNL     1      32.848 -12.008 -22.979  0.00  0.00    +0.007 C 
ATOM     12  C   UNL     1      33.449 -11.062 -23.813  0.00  0.00    +0.017 C 
ATOM     13  C   UNL     1      30.814 -10.097 -20.660  0.00  0.00    +0.252 C 
ATOM     14  C   UNL     1      31.261 -12.319 -20.993  0.00  0.00    +0.252 C 
ATOM     15  C   UNL     1      31.648  -6.741 -22.009  0.00  0.00    +0.016 C 
ATOM     16  C   UNL     1      33.349  -6.110 -24.167  0.00  0.00    +0.018 C 
ATOM     17  C   UNL     1      31.857  -5.410 -22.393  0.00  0.00    +0.051 C 
ATOM     18  C   UNL     1      32.696  -5.101 -23.458  0.00  0.00    +0.016 C 
ATOM     19  H   UNL     1      34.264  -8.641 -25.053  0.00  0.00    +0.166 HD
ATOM     20  H   UNL     1      29.991 -11.622 -19.496  0.00  0.00    +0.158 HD
ENDROOT
BRANCH  11  22
ATOM     21 CL   UNL     1      31.788 -13.297 -25.571  0.00  0.00    -0.082 Cl
ATOM     22  C   UNL     1      33.125 -13.413 -23.186  0.00  0.00    +0.011 C 
ATOM     23  C   UNL     1      32.690 -14.089 -24.326  0.00  0.00    +0.058 C 
ATOM     24  C   UNL     1      33.851 -14.091 -22.207  0.00  0.00    +0.001 C 
ATOM     25  C   UNL     1      32.980 -15.443 -24.488  0.00  0.00    +0.011 C 
ATOM     26  C   UNL     1      34.140 -15.447 -22.368  0.00  0.00    +0.000 C 
ATOM     27  C   UNL     1      33.705 -16.122 -23.508  0.00  0.00    +0.001 C 
ENDBRANCH  11  22
BRANCH  17  29
ATOM     28  O   UNL     1      29.390  -3.784 -23.082  0.00  0.00    -0.265 OA
ATOM     29  N   UNL     1      31.215  -4.383 -21.699  0.00  0.00    -0.277 N 
ATOM     30  C   UNL     1      30.078  -3.676 -22.077  0.00  0.00    +0.303 C 
ATOM     31  H   UNL     1      31.615  -4.129 -20.837  0.00  0.00    +0.155 HD
ENDBRANCH  17  29
TORSDOF 2
ENDMDL
MODEL 4
REMARK VINA RESULT:     -10.2      3.139      5.676
REMARK  Name = 24778473
REMARK  2 active torsions:
REMARK  status: ('A' for Active; 'I' for Inactive)
REMARK    1  A    between atoms: C_11  and  C_22
REMARK    2  A    between atoms: C_17  and  N_29
REMARK                            x       y       z     vdW  Elec       q    Type
REMARK                         _______ _______ _______ _____ _____    ______ ____
ROOT
ATOM      1  O   UNL     1      31.326 -22.274 -17.196  0.00  0.00    -0.270 OA
ATOM      2  O   UNL     1      32.445 -24.369 -13.256  0.00  0.00    -0.270 OA
ATOM      3  N   UNL     1      36.489 -21.223 -17.183  0.00  0.00    -0.353 N 
ATOM      4  N   UNL     1      31.524 -23.422 -15.178  0.00  0.00    -0.248 N 
ATOM      5  C   UNL     1      34.379 -21.869 -16.821  0.00  0.00    +0.022 A 
ATOM      6  C   UNL     1      33.408 -22.522 -16.051  0.00  0.00    +0.060 C 
ATOM      7  C   UNL     1      35.685 -21.907 -16.305  0.00  0.00    +0.057 A 
ATOM      8  C   UNL     1      34.432 -21.130 -18.050  0.00  0.00    +0.018 A 
ATOM      9  C   UNL     1      33.741 -23.160 -14.857  0.00  0.00    +0.058 C 
ATOM     10  C   UNL     1      35.761 -20.744 -18.244  0.00  0.00    +0.057 A 
ATOM     11  C   UNL     1      35.025 -23.190 -14.360  0.00  0.00    +0.007 C 
ATOM     12  C   UNL     1      36.027 -22.552 -15.095  0.00  0.00    +0.017 C 
ATOM     13  C   UNL     1      31.971 -22.694 -16.257  0.00  0.00    +0.252 C 
ATOM     14  C   UNL     1      32.524 -23.740 -14.294  0.00  0.00    +0.252 C 
ATOM     15  C   UNL     1      33.488 -20.744 -19.027  0.00  0.00    +0.016 C 
ATOM     16  C   UNL     1      36.187 -20.001 -19.352  0.00  0.00    +0.018 C 
ATOM     17  C   UNL     1      33.899 -20.000 -20.141  0.00  0.00    +0.051 C 
ATOM     18  C   UNL     1      35.231 -19.635 -20.299  0.00  0.00    +0.016 C 
ATOM     19  H   UNL     1      37.458 -21.095 -17.068  0.00  0.00    +0.166 HD
ATOM     20  H   UNL     1      30.585 -23.688 -15.054  0.00  0.00    +0.158 HD
ENDROOT
BRANCH  11  22
ATOM     21 CL   UNL     1      35.926 -26.134 -14.529  0.00  0.00    -0.082 Cl
ATOM     22  C   UNL     1      35.368 -23.854 -13.121  0.00  0.00    +0.011 C 
ATOM     23  C   UNL     1      35.788 -25.183 -13.090  0.00  0.00    +0.058 C 
ATOM     24  C   UNL     1      35.272 -23.125 -11.936  0.00  0.00    +0.001 C 
ATOM     25  C   UNL     1      36.112 -25.785 -11.874  0.00  0.00    +0.011 C 
ATOM     26  C   UNL     1      35.595 -23.727 -10.720  0.00  0.00    +0.000 C 
ATOM     27  C   UNL     1      36.015 -25.056 -10.689  0.00  0.00    +0.001 C 
ENDBRANCH  11  22
BRANCH  17  29
ATOM     28  O   UNL     1      34.237 -18.583 -22.801  0.00  0.00    -0.265 OA
ATOM     29  N   UNL     1      32.959 -19.622 -21.101  0.00  0.00    -0.277 N 
ATOM     30  C   UNL     1      33.187 -18.970 -22.309  0.00  0.00    +0.303 C 
ATOM     31  H   UNL     1      32.022 -19.844 -20.900  0.00  0.00    +0.155 HD
ENDBRANCH  17  29
TORSDOF 2
ENDMDL
MODEL 5
REMARK VINA RESULT:      -9.8     15.544     17.957
REMARK  Name = 24778473
REMARK  2 active torsions:
REMARK  status: ('A' for Active; 'I' for Inactive)
REMARK    1  A    between atoms: C_11  and  C_22
REMARK    2  A    between atoms: C_17  and  N_29
REMARK                            x       y       z     vdW  Elec       q    Type
REMARK                         _______ _______ _______ _____ _____    ______ ____
ROOT
ATOM      1  O   UNL     1      34.182 -10.227 -24.177  0.00  0.00    -0.270 OA
ATOM      2  O   UNL     1      32.930  -5.858 -24.887  0.00  0.00    -0.270 OA
ATOM      3  N   UNL     1      30.351  -9.909 -20.574  0.00  0.00    -0.353 N 
ATOM      4  N   UNL     1      33.820  -8.012 -24.801  0.00  0.00    -0.248 N 
ATOM      5  C   UNL     1      31.878  -9.638 -22.185  0.00  0.00    +0.022 A 
ATOM      6  C   UNL     1      32.516  -8.854 -23.155  0.00  0.00    +0.060 C 
ATOM      7  C   UNL     1      30.853  -8.997 -21.469  0.00  0.00    +0.057 A 
ATOM      8  C   UNL     1      31.972 -10.978 -21.679  0.00  0.00    +0.018 A 
ATOM      9  C   UNL     1      32.139  -7.530 -23.375  0.00  0.00    +0.058 C 
ATOM     10  C   UNL     1      31.006 -11.111 -20.678  0.00  0.00    +0.057 A 
ATOM     11  C   UNL     1      31.134  -6.912 -22.667  0.00  0.00    +0.007 C 
ATOM     12  C   UNL     1      30.470  -7.655 -21.689  0.00  0.00    +0.017 C 
ATOM     13  C   UNL     1      33.604  -9.164 -24.080  0.00  0.00    +0.252 C 
ATOM     14  C   UNL     1      32.983  -6.987 -24.438  0.00  0.00    +0.252 C 
ATOM     15  C   UNL     1      32.778 -12.101 -21.966  0.00  0.00    +0.016 C 
ATOM     16  C   UNL     1      30.809 -12.297 -19.958  0.00  0.00    +0.018 C 
ATOM     17  C   UNL     1      32.594 -13.294 -21.255  0.00  0.00    +0.051 C 
ATOM     18  C   UNL     1      31.622 -13.388 -20.265  0.00  0.00    +0.016 C 
ATOM     19  H   UNL     1      29.619  -9.725 -19.942  0.00  0.00    +0.166 HD
ATOM     20  H   UNL     1      34.503  -7.931 -25.505  0.00  0.00    +0.158 HD
ENDROOT
BRANCH  11  22
ATOM     21 CL   UNL     1      29.396  -6.327 -25.146  0.00  0.00    -0.082 Cl
ATOM     22  C   UNL     1      30.745  -5.537 -22.899  0.00  0.00    +0.011 C 
ATOM     23  C   UNL     1      29.959  -5.169 -23.991  0.00  0.00    +0.058 C 
ATOM     24  C   UNL     1      31.177  -4.569 -21.992  0.00  0.00    +0.001 C 
ATOM     25  C   UNL     1      29.605  -3.833 -24.177  0.00  0.00    +0.011 C 
ATOM     26  C   UNL     1      30.823  -3.233 -22.179  0.00  0.00    +0.000 C 
ATOM     27  C   UNL     1      30.037  -2.865 -23.271  0.00  0.00    +0.001 C 
ENDBRANCH  11  22
BRANCH  17  29
ATOM     28  O   UNL     1      32.862 -14.947 -23.785  0.00  0.00    -0.265 OA
ATOM     29  N   UNL     1      33.395 -14.399 -21.544  0.00  0.00    -0.277 N 
ATOM     30  C   UNL     1      33.468 -15.114 -22.735  0.00  0.00    +0.303 C 
ATOM     31  H   UNL     1      33.980 -14.711 -20.817  0.00  0.00    +0.155 HD
ENDBRANCH  17  29
TORSDOF 2
ENDMDL
MODEL 6
REMARK VINA RESULT:      -9.7     14.324     16.602
REMARK  Name = 24778473
REMARK  2 active torsions:
REMARK  status: ('A' for Active; 'I' for Inactive)
REMARK    1  A    between atoms: C_11  and  C_22
REMARK    2  A    between atoms: C_17  and  N_29
REMARK                            x       y       z     vdW  Elec       q    Type
REMARK                         _______ _______ _______ _____ _____    ______ ____
ROOT
ATOM      1  O   UNL     1      30.235  -9.038 -20.238  0.00  0.00    -0.270 OA
ATOM      2  O   UNL     1      31.077 -13.523 -20.824  0.00  0.00    -0.270 OA
ATOM      3  N   UNL     1      33.706  -8.680 -24.186  0.00  0.00    -0.353 N 
ATOM      4  N   UNL     1      30.416 -11.361 -20.250  0.00  0.00    -0.248 N 
ATOM      5  C   UNL     1      32.297  -9.252 -22.547  0.00  0.00    +0.022 A 
ATOM      6  C   UNL     1      31.661 -10.214 -21.752  0.00  0.00    +0.060 C 
ATOM      7  C   UNL     1      33.185  -9.757 -23.511  0.00  0.00    +0.057 A 
ATOM      8  C   UNL     1      32.306  -7.822 -22.671  0.00  0.00    +0.018 A 
ATOM      9  C   UNL     1      31.912 -11.575 -21.925  0.00  0.00    +0.058 C 
ATOM     10  C   UNL     1      33.194  -7.502 -23.701  0.00  0.00    +0.057 A 
ATOM     11  C   UNL     1      32.785 -12.058 -22.873  0.00  0.00    +0.007 C 
ATOM     12  C   UNL     1      33.441 -11.134 -23.690  0.00  0.00    +0.017 C 
ATOM     13  C   UNL     1      30.691 -10.079 -20.666  0.00  0.00    +0.252 C 
ATOM     14  C   UNL     1      31.107 -12.314 -20.955  0.00  0.00    +0.252 C 
ATOM     15  C   UNL     1      31.652  -6.757 -22.015  0.00  0.00    +0.016 C 
ATOM     16  C   UNL     1      33.457  -6.186 -24.103  0.00  0.00    +0.018 C 
ATOM     17  C   UNL     1      31.904  -5.435 -22.404  0.00  0.00    +0.051 C 
ATOM     18  C   UNL     1      32.795  -5.156 -23.435  0.00  0.00    +0.016 C 
ATOM     19  H   UNL     1      34.358  -8.745 -24.920  0.00  0.00    +0.166 HD
ATOM     20  H   UNL     1      29.787 -11.573 -19.523  0.00  0.00    +0.158 HD
ENDROOT
BRANCH  11  22
ATOM     21 CL   UNL     1      34.242 -13.536 -20.593  0.00  0.00    -0.082 Cl
ATOM     22  C   UNL     1      33.042 -13.471 -23.052  0.00  0.00    +0.011 C 
ATOM     23  C   UNL     1      33.693 -14.229 -22.079  0.00  0.00    +0.058 C 
ATOM     24  C   UNL     1      32.616 -14.072 -24.236  0.00  0.00    +0.001 C 
ATOM     25  C   UNL     1      33.920 -15.589 -22.290  0.00  0.00    +0.011 C 
ATOM     26  C   UNL     1      32.843 -15.432 -24.448  0.00  0.00    +0.000 C 
ATOM     27  C   UNL     1      33.495 -16.190 -23.475  0.00  0.00    +0.001 C 
ENDBRANCH  11  22
BRANCH  17  29
ATOM     28  O   UNL     1      29.416  -3.867 -23.148  0.00  0.00    -0.265 OA
ATOM     29  N   UNL     1      31.254  -4.388 -21.750  0.00  0.00    -0.277 N 
ATOM     30  C   UNL     1      30.108  -3.710 -22.152  0.00  0.00    +0.303 C 
ATOM     31  H   UNL     1      31.655  -4.093 -20.901  0.00  0.00    +0.155 HD
ENDBRANCH  17  29
TORSDOF 2
ENDMDL
MODEL 7
REMARK VINA RESULT:      -9.2     15.259     17.766
REMARK  Name = 24778473
REMARK  2 active torsions:
REMARK  status: ('A' for Active; 'I' for Inactive)
REMARK    1  A    between atoms: C_11  and  C_22
REMARK    2  A    between atoms: C_17  and  N_29
REMARK                            x       y       z     vdW  Elec       q    Type
REMARK                         _______ _______ _______ _____ _____    ______ ____
ROOT
ATOM      1  O   UNL     1      34.558 -10.153 -24.739  0.00  0.00    -0.270 OA
ATOM      2  O   UNL     1      32.960  -5.839 -24.781  0.00  0.00    -0.270 OA
ATOM      3  N   UNL     1      30.878 -10.639 -21.000  0.00  0.00    -0.353 N 
ATOM      4  N   UNL     1      34.008  -7.908 -25.031  0.00  0.00    -0.248 N 
ATOM      5  C   UNL     1      32.307 -10.028 -22.607  0.00  0.00    +0.022 A 
ATOM      6  C   UNL     1      32.843  -9.070 -23.477  0.00  0.00    +0.060 C 
ATOM      7  C   UNL     1      31.272  -9.574 -21.773  0.00  0.00    +0.057 A 
ATOM      8  C   UNL     1      32.521 -11.414 -22.300  0.00  0.00    +0.018 A 
ATOM      9  C   UNL     1      32.361  -7.761 -23.495  0.00  0.00    +0.058 C 
ATOM     10  C   UNL     1      31.613 -11.759 -21.296  0.00  0.00    +0.057 A 
ATOM     11  C   UNL     1      31.346  -7.328 -22.673  0.00  0.00    +0.007 C 
ATOM     12  C   UNL     1      30.782  -8.250 -21.788  0.00  0.00    +0.017 C 
ATOM     13  C   UNL     1      33.909  -9.162 -24.473  0.00  0.00    +0.252 C 
ATOM     14  C   UNL     1      33.115  -7.012 -24.498  0.00  0.00    +0.252 C 
ATOM     15  C   UNL     1      33.394 -12.419 -22.770  0.00  0.00    +0.016 C 
ATOM     16  C   UNL     1      31.536 -13.045 -20.744  0.00  0.00    +0.018 C 
ATOM     17  C   UNL     1      33.329 -13.710 -22.229  0.00  0.00    +0.051 C 
ATOM     18  C   UNL     1      32.411 -14.017 -21.230  0.00  0.00    +0.016 C 
ATOM     19  H   UNL     1      30.163 -10.602 -20.324  0.00  0.00    +0.166 HD
ATOM     20  H   UNL     1      34.651  -7.677 -25.738  0.00  0.00    +0.158 HD
ENDROOT
BRANCH  11  22
ATOM     21 CL   UNL     1      31.945  -5.557 -20.222  0.00  0.00    -0.082 Cl
ATOM     22  C   UNL     1      30.848  -5.969 -22.695  0.00  0.00    +0.011 C 
ATOM     23  C   UNL     1      31.067  -5.088 -21.636  0.00  0.00    +0.058 C 
ATOM     24  C   UNL     1      30.134  -5.548 -23.817  0.00  0.00    +0.001 C 
ATOM     25  C   UNL     1      30.571  -3.786 -21.698  0.00  0.00    +0.011 C 
ATOM     26  C   UNL     1      29.637  -4.246 -23.878  0.00  0.00    +0.000 C 
ATOM     27  C   UNL     1      29.856  -3.366 -22.819  0.00  0.00    +0.001 C 
ENDBRANCH  11  22
BRANCH  17  29
ATOM     28  O   UNL     1      33.249 -15.386 -24.756  0.00  0.00    -0.265 OA
ATOM     29  N   UNL     1      34.195 -14.698 -22.699  0.00  0.00    -0.277 N 
ATOM     30  C   UNL     1      34.097 -15.432 -23.876  0.00  0.00    +0.303 C 
ATOM     31  H   UNL     1      34.970 -14.900 -22.127  0.00  0.00    +0.155 HD
ENDBRANCH  17  29
TORSDOF 2
ENDMDL
MODEL 8
REMARK VINA RESULT:      -8.9     18.761     20.966
REMARK  Name = 24778473
REMARK  2 active torsions:
REMARK  status: ('A' for Active; 'I' for Inactive)
REMARK    1  A    between atoms: C_11  and  C_22
REMARK    2  A    between atoms: C_17  and  N_29
REMARK                            x       y       z     vdW  Elec       q    Type
REMARK                         _______ _______ _______ _____ _____    ______ ____
ROOT
ATOM      1  O   UNL     1      33.669  -8.450 -23.094  0.00  0.00    -0.270 OA
ATOM      2  O   UNL     1      34.179  -5.926 -26.906  0.00  0.00    -0.270 OA
ATOM      3  N   UNL     1      31.008  -4.167 -21.565  0.00  0.00    -0.353 N 
ATOM      4  N   UNL     1      34.125  -7.468 -25.157  0.00  0.00    -0.248 N 
ATOM      5  C   UNL     1      32.198  -5.768 -22.576  0.00  0.00    +0.022 A 
ATOM      6  C   UNL     1      32.911  -6.261 -23.676  0.00  0.00    +0.060 C 
ATOM      7  C   UNL     1      31.666  -4.477 -22.731  0.00  0.00    +0.057 A 
ATOM      8  C   UNL     1      31.833  -6.221 -21.264  0.00  0.00    +0.018 A 
ATOM      9  C   UNL     1      33.068  -5.501 -24.835  0.00  0.00    +0.058 C 
ATOM     10  C   UNL     1      31.092  -5.199 -20.665  0.00  0.00    +0.057 A 
ATOM     11  C   UNL     1      32.543  -4.236 -24.975  0.00  0.00    +0.007 C 
ATOM     12  C   UNL     1      31.823  -3.704 -23.902  0.00  0.00    +0.017 C 
ATOM     13  C   UNL     1      33.596  -7.534 -23.888  0.00  0.00    +0.252 C 
ATOM     14  C   UNL     1      33.852  -6.281 -25.789  0.00  0.00    +0.252 C 
ATOM     15  C   UNL     1      32.052  -7.398 -20.516  0.00  0.00    +0.016 C 
ATOM     16  C   UNL     1      30.568  -5.294 -19.369  0.00  0.00    +0.018 C 
ATOM     17  C   UNL     1      31.534  -7.509 -19.219  0.00  0.00    +0.051 C 
ATOM     18  C   UNL     1      30.801  -6.469 -18.655  0.00  0.00    +0.016 C 
ATOM     19  H   UNL     1      30.540  -3.317 -21.399  0.00  0.00    +0.166 HD
ATOM     20  H   UNL     1      34.644  -8.195 -25.568  0.00  0.00    +0.158 HD
ENDROOT
BRANCH  11  22
ATOM     21 CL   UNL     1      30.477  -4.643 -27.227  0.00  0.00    -0.082 Cl
ATOM     22  C   UNL     1      32.706  -3.450 -26.179  0.00  0.00    +0.011 C 
ATOM     23  C   UNL     1      31.824  -3.560 -27.254  0.00  0.00    +0.058 C 
ATOM     24  C   UNL     1      33.780  -2.563 -26.244  0.00  0.00    +0.001 C 
ATOM     25  C   UNL     1      32.017  -2.782 -28.396  0.00  0.00    +0.011 C 
ATOM     26  C   UNL     1      33.973  -1.786 -27.387  0.00  0.00    +0.000 C 
ATOM     27  C   UNL     1      33.091  -1.895 -28.462  0.00  0.00    +0.001 C 
ENDBRANCH  11  22
BRANCH  17  29
ATOM     28  O   UNL     1      29.845 -10.009 -18.904  0.00  0.00    -0.265 OA
ATOM     29  N   UNL     1      31.755  -8.675 -18.485  0.00  0.00    -0.277 N 
ATOM     30  C   UNL     1      30.931  -9.791 -18.386  0.00  0.00    +0.303 C 
ATOM     31  H   UNL     1      32.597  -8.712 -17.977  0.00  0.00    +0.155 HD
ENDBRANCH  17  29
TORSDOF 2
ENDMDL
MODEL 9
REMARK VINA RESULT:      -8.7     13.743     16.273
REMARK  Name = 24778473
REMARK  2 active torsions:
REMARK  status: ('A' for Active; 'I' for Inactive)
REMARK    1  A    between atoms: C_11  and  C_22
REMARK    2  A    between atoms: C_17  and  N_29
REMARK                            x       y       z     vdW  Elec       q    Type
REMARK                         _______ _______ _______ _____ _____    ______ ____
ROOT
ATOM      1  O   UNL     1      31.189 -13.369 -20.312  0.00  0.00    -0.270 OA
ATOM      2  O   UNL     1      30.531  -9.193 -18.498  0.00  0.00    -0.270 OA
ATOM      3  N   UNL     1      32.820 -10.468 -24.397  0.00  0.00    -0.353 N 
ATOM      4  N   UNL     1      30.732 -11.441 -19.087  0.00  0.00    -0.248 N 
ATOM      5  C   UNL     1      32.058 -11.322 -22.476  0.00  0.00    +0.022 A 
ATOM      6  C   UNL     1      31.553 -11.172 -21.179  0.00  0.00    +0.060 C 
ATOM      7  C   UNL     1      32.340 -10.126 -23.156  0.00  0.00    +0.057 A 
ATOM      8  C   UNL     1      32.389 -12.401 -23.364  0.00  0.00    +0.018 A 
ATOM      9  C   UNL     1      31.353  -9.909 -20.623  0.00  0.00    +0.058 C 
ATOM     10  C   UNL     1      32.861 -11.831 -24.549  0.00  0.00    +0.057 A 
ATOM     11  C   UNL     1      31.632  -8.744 -21.299  0.00  0.00    +0.007 C 
ATOM     12  C   UNL     1      32.139  -8.845 -22.597  0.00  0.00    +0.017 C 
ATOM     13  C   UNL     1      31.150 -12.162 -20.181  0.00  0.00    +0.252 C 
ATOM     14  C   UNL     1      30.822 -10.084 -19.273  0.00  0.00    +0.252 C 
ATOM     15  C   UNL     1      32.339 -13.810 -23.288  0.00  0.00    +0.016 C 
ATOM     16  C   UNL     1      33.279 -12.592 -25.649  0.00  0.00    +0.018 C 
ATOM     17  C   UNL     1      32.754 -14.584 -24.378  0.00  0.00    +0.051 C 
ATOM     18  C   UNL     1      33.217 -13.981 -25.543  0.00  0.00    +0.016 C 
ATOM     19  H   UNL     1      33.099  -9.821 -25.084  0.00  0.00    +0.166 HD
ATOM     20  H   UNL     1      30.402 -11.854 -18.257  0.00  0.00    +0.158 HD
ENDROOT
BRANCH  11  22
ATOM     21 CL   UNL     1      29.460  -6.959 -22.564  0.00  0.00    -0.082 Cl
ATOM     22  C   UNL     1      31.425  -7.434 -20.719  0.00  0.00    +0.011 C 
ATOM     23  C   UNL     1      30.466  -6.552 -21.218  0.00  0.00    +0.058 C 
ATOM     24  C   UNL     1      32.214  -7.064 -19.630  0.00  0.00    +0.001 C 
ATOM     25  C   UNL     1      30.297  -5.299 -20.628  0.00  0.00    +0.011 C 
ATOM     26  C   UNL     1      32.045  -5.811 -19.041  0.00  0.00    +0.000 C 
ATOM     27  C   UNL     1      31.087  -4.929 -19.540  0.00  0.00    +0.001 C 
ENDBRANCH  11  22
BRANCH  17  29
ATOM     28  O   UNL     1      34.521 -16.556 -22.899  0.00  0.00    -0.265 OA
ATOM     29  N   UNL     1      32.700 -15.976 -24.296  0.00  0.00    -0.277 N 
ATOM     30  C   UNL     1      33.550 -16.824 -23.593  0.00  0.00    +0.303 C 
ATOM     31  H   UNL     1      31.973 -16.411 -24.795  0.00  0.00    +0.155 HD
ENDBRANCH  17  29
TORSDOF 2
ENDMDL
