MODEL 1
REMARK VINA RESULT:     -11.4      0.000      0.000
REMARK  Name = 24941243
REMARK  5 active torsions:
REMARK  status: ('A' for Active; 'I' for Inactive)
REMARK    1  A    between atoms: N_1  and  C_14
REMARK    2  A    between atoms: N_2  and  C_22
REMARK    3  A    between atoms: C_25  and  O_28
REMARK    4  A    between atoms: C_26  and  O_30
REMARK    5  A    between atoms: C_27  and  O_32
REMARK                            x       y       z     vdW  Elec       q    Type
REMARK                         _______ _______ _______ _____ _____    ______ ____
ROOT
ATOM      1  N   UNL     1      35.344 -18.503 -21.322  0.00  0.00    -0.260 N 
ATOM      2  N   UNL     1      35.720 -21.102 -17.389  0.00  0.00    -0.247 N 
ATOM      3  N   UNL     1      35.555 -19.806 -19.338  0.00  0.00    -0.322 NA
ATOM      4  N   UNL     1      33.653 -21.026 -18.499  0.00  0.00    -0.170 NA
ATOM      5  C   UNL     1      34.778 -19.367 -20.350  0.00  0.00    +0.201 C 
ATOM      6  C   UNL     1      36.807 -18.444 -21.416  0.00  0.00    +0.120 C 
ATOM      7  C   UNL     1      33.449 -19.708 -20.502  0.00  0.00    +0.070 C 
ATOM      8  C   UNL     1      34.937 -20.621 -18.462  0.00  0.00    +0.150 C 
ATOM      9  C   UNL     1      32.935 -20.549 -19.537  0.00  0.00    +0.116 C 
ATOM     10  H   UNL     1      36.650 -20.779 -17.402  0.00  0.00    +0.165 HD
ENDROOT
BRANCH   1  14
ATOM     11  N   UNL     1      32.733 -13.680 -23.135  0.00  0.00    -0.280 N 
ATOM     12  N   UNL     1      33.350 -14.075 -22.004  0.00  0.00    -0.173 NA
ATOM     13  C   UNL     1      33.330 -15.705 -23.585  0.00  0.00    +0.032 A 
ATOM     14  C   UNL     1      34.655 -17.503 -22.058  0.00  0.00    +0.055 C 
ATOM     15  C   UNL     1      33.739 -15.338 -22.250  0.00  0.00    +0.103 A 
ATOM     16  C   UNL     1      32.690 -14.623 -24.120  0.00  0.00    +0.053 A 
ATOM     17  C   UNL     1      34.429 -16.255 -21.437  0.00  0.00    +0.036 C 
ATOM     18  C   UNL     1      33.537 -16.921 -24.224  0.00  0.00    +0.004 C 
ATOM     19  C   UNL     1      34.230 -17.818 -23.387  0.00  0.00    +0.015 C 
ATOM     20  C   UNL     1      32.051 -14.364 -25.421  0.00  0.00    +0.051 C 
ATOM     21  H   UNL     1      32.342 -12.783 -23.241  0.00  0.00    +0.189 HD
ENDBRANCH   1  14
BRANCH   2  22
ATOM     22  C   UNL     1      35.430 -21.950 -16.304  0.00  0.00    +0.064 C 
ATOM     23  C   UNL     1      36.453 -22.366 -15.453  0.00  0.00    +0.055 C 
ATOM     24  C   UNL     1      34.120 -22.374 -16.080  0.00  0.00    +0.055 C 
ATOM     25  C   UNL     1      33.833 -23.212 -15.003  0.00  0.00    +0.177 C 
ATOM     26  C   UNL     1      36.166 -23.206 -14.376  0.00  0.00    +0.177 C 
ATOM     27  C   UNL     1      34.856 -23.628 -14.151  0.00  0.00    +0.206 C 
BRANCH  25  28
ATOM     28  O   UNL     1      32.549 -23.619 -14.795  0.00  0.00    -0.468 OA
ATOM     29  C   UNL     1      31.535 -22.981 -15.567  0.00  0.00    +0.253 C 
ENDBRANCH  25  28
BRANCH  26  30
ATOM     30  O   UNL     1      37.175 -23.605 -13.552  0.00  0.00    -0.468 OA
ATOM     31  C   UNL     1      37.886 -24.784 -13.922  0.00  0.00    +0.253 C 
ENDBRANCH  26  30
BRANCH  27  32
ATOM     32  O   UNL     1      34.576 -24.450 -13.100  0.00  0.00    -0.465 OA
ATOM     33  C   UNL     1      34.255 -23.826 -11.858  0.00  0.00    +0.253 C 
ENDBRANCH  27  32
ENDBRANCH   2  22
TORSDOF 5
ENDMDL
MODEL 2
REMARK VINA RESULT:     -11.4      0.031      2.285
REMARK  Name = 24941243
REMARK  5 active torsions:
REMARK  status: ('A' for Active; 'I' for Inactive)
REMARK    1  A    between atoms: N_1  and  C_14
REMARK    2  A    between atoms: N_2  and  C_22
REMARK    3  A    between atoms: C_25  and  O_28
REMARK    4  A    between atoms: C_26  and  O_30
REMARK    5  A    between atoms: C_27  and  O_32
REMARK                            x       y       z     vdW  Elec       q    Type
REMARK                         _______ _______ _______ _____ _____    ______ ____
ROOT
ATOM      1  N   UNL     1      35.343 -18.490 -21.341  0.00  0.00    -0.260 N 
ATOM      2  N   UNL     1      35.733 -21.087 -17.408  0.00  0.00    -0.247 N 
ATOM      3  N   UNL     1      35.561 -19.792 -19.357  0.00  0.00    -0.322 NA
ATOM      4  N   UNL     1      33.659 -21.003 -18.504  0.00  0.00    -0.170 NA
ATOM      5  C   UNL     1      34.779 -19.350 -20.364  0.00  0.00    +0.201 C 
ATOM      6  C   UNL     1      36.805 -18.437 -21.444  0.00  0.00    +0.120 C 
ATOM      7  C   UNL     1      33.448 -19.684 -20.507  0.00  0.00    +0.070 C 
ATOM      8  C   UNL     1      34.945 -20.603 -18.476  0.00  0.00    +0.150 C 
ATOM      9  C   UNL     1      32.936 -20.522 -19.537  0.00  0.00    +0.116 C 
ATOM     10  H   UNL     1      36.665 -20.769 -17.429  0.00  0.00    +0.165 HD
ENDROOT
BRANCH   1  14
ATOM     11  N   UNL     1      32.719 -13.665 -23.130  0.00  0.00    -0.280 N 
ATOM     12  N   UNL     1      33.331 -14.065 -21.999  0.00  0.00    -0.173 NA
ATOM     13  C   UNL     1      33.329 -15.683 -23.593  0.00  0.00    +0.032 A 
ATOM     14  C   UNL     1      34.653 -17.486 -22.073  0.00  0.00    +0.055 C 
ATOM     15  C   UNL     1      33.727 -15.325 -22.253  0.00  0.00    +0.103 A 
ATOM     16  C   UNL     1      32.687 -14.600 -24.123  0.00  0.00    +0.053 A 
ATOM     17  C   UNL     1      34.418 -16.245 -21.442  0.00  0.00    +0.036 C 
ATOM     18  C   UNL     1      33.546 -16.892 -24.241  0.00  0.00    +0.004 C 
ATOM     19  C   UNL     1      34.238 -17.792 -23.407  0.00  0.00    +0.015 C 
ATOM     20  C   UNL     1      32.055 -14.332 -25.426  0.00  0.00    +0.051 C 
ATOM     21  H   UNL     1      32.324 -12.768 -23.231  0.00  0.00    +0.189 HD
ENDBRANCH   1  14
BRANCH   2  22
ATOM     22  C   UNL     1      35.447 -21.934 -16.321  0.00  0.00    +0.064 C 
ATOM     23  C   UNL     1      34.141 -22.370 -16.102  0.00  0.00    +0.055 C 
ATOM     24  C   UNL     1      36.471 -22.339 -15.464  0.00  0.00    +0.055 C 
ATOM     25  C   UNL     1      36.188 -23.180 -14.389  0.00  0.00    +0.177 C 
ATOM     26  C   UNL     1      33.858 -23.211 -15.026  0.00  0.00    +0.177 C 
ATOM     27  C   UNL     1      34.882 -23.617 -14.170  0.00  0.00    +0.206 C 
BRANCH  25  28
ATOM     28  O   UNL     1      37.197 -23.569 -13.560  0.00  0.00    -0.468 OA
ATOM     29  C   UNL     1      37.929 -24.735 -13.932  0.00  0.00    +0.253 C 
ENDBRANCH  25  28
BRANCH  26  30
ATOM     30  O   UNL     1      32.577 -23.630 -14.823  0.00  0.00    -0.468 OA
ATOM     31  C   UNL     1      31.557 -22.988 -15.585  0.00  0.00    +0.253 C 
ENDBRANCH  26  30
BRANCH  27  32
ATOM     32  O   UNL     1      34.605 -24.438 -13.118  0.00  0.00    -0.465 OA
ATOM     33  C   UNL     1      34.270 -23.815 -11.880  0.00  0.00    +0.253 C 
ENDBRANCH  27  32
ENDBRANCH   2  22
TORSDOF 5
ENDMDL
MODEL 3
REMARK VINA RESULT:     -11.3      0.894      1.312
REMARK  Name = 24941243
REMARK  5 active torsions:
REMARK  status: ('A' for Active; 'I' for Inactive)
REMARK    1  A    between atoms: N_1  and  C_14
REMARK    2  A    between atoms: N_2  and  C_22
REMARK    3  A    between atoms: C_25  and  O_28
REMARK    4  A    between atoms: C_26  and  O_30
REMARK    5  A    between atoms: C_27  and  O_32
REMARK                            x       y       z     vdW  Elec       q    Type
REMARK                         _______ _______ _______ _____ _____    ______ ____
ROOT
ATOM      1  N   UNL     1      35.258 -18.584 -21.271  0.00  0.00    -0.260 N 
ATOM      2  N   UNL     1      35.753 -21.162 -17.338  0.00  0.00    -0.247 N 
ATOM      3  N   UNL     1      35.529 -19.877 -19.287  0.00  0.00    -0.322 NA
ATOM      4  N   UNL     1      33.652 -21.088 -18.381  0.00  0.00    -0.170 NA
ATOM      5  C   UNL     1      34.721 -19.440 -20.277  0.00  0.00    +0.201 C 
ATOM      6  C   UNL     1      36.717 -18.528 -21.411  0.00  0.00    +0.120 C 
ATOM      7  C   UNL     1      33.387 -19.779 -20.384  0.00  0.00    +0.070 C 
ATOM      8  C   UNL     1      34.938 -20.685 -18.388  0.00  0.00    +0.150 C 
ATOM      9  C   UNL     1      32.902 -20.614 -19.398  0.00  0.00    +0.116 C 
ATOM     10  H   UNL     1      36.683 -20.843 -17.383  0.00  0.00    +0.165 HD
ENDROOT
BRANCH   1  14
ATOM     11  N   UNL     1      31.959 -15.624 -24.975  0.00  0.00    -0.280 N 
ATOM     12  N   UNL     1      32.297 -16.917 -24.808  0.00  0.00    -0.173 NA
ATOM     13  C   UNL     1      33.260 -15.570 -23.254  0.00  0.00    +0.032 A 
ATOM     14  C   UNL     1      34.548 -17.585 -21.989  0.00  0.00    +0.055 C 
ATOM     15  C   UNL     1      33.111 -16.921 -23.738  0.00  0.00    +0.103 A 
ATOM     16  C   UNL     1      32.512 -14.768 -24.068  0.00  0.00    +0.053 A 
ATOM     17  C   UNL     1      33.770 -17.987 -23.097  0.00  0.00    +0.036 C 
ATOM     18  C   UNL     1      34.016 -15.143 -22.169  0.00  0.00    +0.004 C 
ATOM     19  C   UNL     1      34.663 -16.229 -21.548  0.00  0.00    +0.015 C 
ATOM     20  C   UNL     1      32.252 -13.319 -24.103  0.00  0.00    +0.051 C 
ATOM     21  H   UNL     1      31.361 -15.320 -25.696  0.00  0.00    +0.189 HD
ENDBRANCH   1  14
BRANCH   2  22
ATOM     22  C   UNL     1      35.496 -22.005 -16.240  0.00  0.00    +0.064 C 
ATOM     23  C   UNL     1      36.546 -22.428 -15.427  0.00  0.00    +0.055 C 
ATOM     24  C   UNL     1      34.191 -22.414 -15.965  0.00  0.00    +0.055 C 
ATOM     25  C   UNL     1      33.937 -23.246 -14.875  0.00  0.00    +0.177 C 
ATOM     26  C   UNL     1      36.292 -23.262 -14.337  0.00  0.00    +0.177 C 
ATOM     27  C   UNL     1      34.987 -23.670 -14.061  0.00  0.00    +0.206 C 
BRANCH  25  28
ATOM     28  O   UNL     1      32.658 -23.639 -14.616  0.00  0.00    -0.468 OA
ATOM     29  C   UNL     1      31.627 -23.046 -15.403  0.00  0.00    +0.253 C 
ENDBRANCH  25  28
BRANCH  26  30
ATOM     30  O   UNL     1      37.328 -23.669 -13.550  0.00  0.00    -0.468 OA
ATOM     31  C   UNL     1      38.011 -24.857 -13.942  0.00  0.00    +0.253 C 
ENDBRANCH  26  30
BRANCH  27  32
ATOM     32  O   UNL     1      34.739 -24.485 -12.997  0.00  0.00    -0.465 OA
ATOM     33  C   UNL     1      34.466 -23.854 -11.748  0.00  0.00    +0.253 C 
ENDBRANCH  27  32
ENDBRANCH   2  22
TORSDOF 5
ENDMDL
MODEL 4
REMARK VINA RESULT:     -10.6      1.777      3.307
REMARK  Name = 24941243
REMARK  5 active torsions:
REMARK  status: ('A' for Active; 'I' for Inactive)
REMARK    1  A    between atoms: N_1  and  C_14
REMARK    2  A    between atoms: N_2  and  C_22
REMARK    3  A    between atoms: C_25  and  O_28
REMARK    4  A    between atoms: C_26  and  O_30
REMARK    5  A    between atoms: C_27  and  O_32
REMARK                            x       y       z     vdW  Elec       q    Type
REMARK                         _______ _______ _______ _____ _____    ______ ____
ROOT
ATOM      1  N   UNL     1      34.689 -19.054 -20.694  0.00  0.00    -0.260 N 
ATOM      2  N   UNL     1      33.840 -21.890 -17.007  0.00  0.00    -0.247 N 
ATOM      3  N   UNL     1      34.283 -20.482 -18.830  0.00  0.00    -0.322 NA
ATOM      4  N   UNL     1      32.040 -21.229 -18.360  0.00  0.00    -0.170 NA
ATOM      5  C   UNL     1      33.794 -19.801 -19.888  0.00  0.00    +0.201 C 
ATOM      6  C   UNL     1      36.120 -19.360 -20.593  0.00  0.00    +0.120 C 
ATOM      7  C   UNL     1      32.460 -19.785 -20.240  0.00  0.00    +0.070 C 
ATOM      8  C   UNL     1      33.364 -21.165 -18.121  0.00  0.00    +0.150 C 
ATOM      9  C   UNL     1      31.620 -20.525 -19.431  0.00  0.00    +0.116 C 
ATOM     10  H   UNL     1      34.813 -21.814 -16.871  0.00  0.00    +0.165 HD
ENDROOT
BRANCH   1  14
ATOM     11  N   UNL     1      33.428 -15.117 -24.728  0.00  0.00    -0.280 N 
ATOM     12  N   UNL     1      33.661 -16.444 -24.717  0.00  0.00    -0.173 NA
ATOM     13  C   UNL     1      33.798 -15.530 -22.642  0.00  0.00    +0.032 A 
ATOM     14  C   UNL     1      34.379 -17.869 -21.414  0.00  0.00    +0.055 C 
ATOM     15  C   UNL     1      33.895 -16.738 -23.426  0.00  0.00    +0.103 A 
ATOM     16  C   UNL     1      33.499 -14.515 -23.506  0.00  0.00    +0.053 A 
ATOM     17  C   UNL     1      34.196 -17.967 -22.811  0.00  0.00    +0.036 C 
ATOM     18  C   UNL     1      33.971 -15.401 -21.269  0.00  0.00    +0.004 C 
ATOM     19  C   UNL     1      34.271 -16.645 -20.681  0.00  0.00    +0.015 C 
ATOM     20  C   UNL     1      33.274 -13.070 -23.334  0.00  0.00    +0.051 C 
ATOM     21  H   UNL     1      33.223 -14.620 -25.553  0.00  0.00    +0.189 HD
ENDBRANCH   1  14
BRANCH   2  22
ATOM     22  C   UNL     1      33.197 -22.701 -16.053  0.00  0.00    +0.064 C 
ATOM     23  C   UNL     1      31.825 -22.930 -16.144  0.00  0.00    +0.055 C 
ATOM     24  C   UNL     1      33.934 -23.278 -15.017  0.00  0.00    +0.055 C 
ATOM     25  C   UNL     1      33.297 -24.084 -14.075  0.00  0.00    +0.177 C 
ATOM     26  C   UNL     1      31.188 -23.736 -15.200  0.00  0.00    +0.177 C 
ATOM     27  C   UNL     1      31.924 -24.313 -14.166  0.00  0.00    +0.206 C 
BRANCH  25  28
ATOM     28  O   UNL     1      34.027 -24.642 -13.068  0.00  0.00    -0.468 OA
ATOM     29  C   UNL     1      34.296 -23.823 -11.933  0.00  0.00    +0.253 C 
ENDBRANCH  25  28
BRANCH  26  30
ATOM     30  O   UNL     1      29.846 -23.951 -15.301  0.00  0.00    -0.468 OA
ATOM     31  C   UNL     1      29.013 -22.801 -15.423  0.00  0.00    +0.253 C 
ENDBRANCH  26  30
BRANCH  27  32
ATOM     32  O   UNL     1      31.301 -25.100 -13.242  0.00  0.00    -0.465 OA
ATOM     33  C   UNL     1      30.390 -24.457 -12.354  0.00  0.00    +0.253 C 
ENDBRANCH  27  32
ENDBRANCH   2  22
TORSDOF 5
ENDMDL
MODEL 5
REMARK VINA RESULT:     -10.3      1.210      1.598
REMARK  Name = 24941243
REMARK  5 active torsions:
REMARK  status: ('A' for Active; 'I' for Inactive)
REMARK    1  A    between atoms: N_1  and  C_14
REMARK    2  A    between atoms: N_2  and  C_22
REMARK    3  A    between atoms: C_25  and  O_28
REMARK    4  A    between atoms: C_26  and  O_30
REMARK    5  A    between atoms: C_27  and  O_32
REMARK                            x       y       z     vdW  Elec       q    Type
REMARK                         _______ _______ _______ _____ _____    ______ ____
ROOT
ATOM      1  N   UNL     1      34.725 -18.851 -21.088  0.00  0.00    -0.260 N 
ATOM      2  N   UNL     1      34.193 -21.607 -17.282  0.00  0.00    -0.247 N 
ATOM      3  N   UNL     1      34.478 -20.238 -19.166  0.00  0.00    -0.322 NA
ATOM      4  N   UNL     1      32.305 -21.101 -18.582  0.00  0.00    -0.170 NA
ATOM      5  C   UNL     1      33.908 -19.624 -20.224  0.00  0.00    +0.201 C 
ATOM      6  C   UNL     1      36.174 -19.068 -21.036  0.00  0.00    +0.120 C 
ATOM      7  C   UNL     1      32.563 -19.700 -20.522  0.00  0.00    +0.070 C 
ATOM      8  C   UNL     1      33.631 -20.949 -18.399  0.00  0.00    +0.150 C 
ATOM      9  C   UNL     1      31.802 -20.461 -19.658  0.00  0.00    +0.116 C 
ATOM     10  H   UNL     1      35.163 -21.467 -17.188  0.00  0.00    +0.165 HD
ENDROOT
BRANCH   1  14
ATOM     11  N   UNL     1      33.330 -13.548 -22.904  0.00  0.00    -0.280 N 
ATOM     12  N   UNL     1      33.773 -14.086 -21.752  0.00  0.00    -0.173 NA
ATOM     13  C   UNL     1      33.508 -15.646 -23.380  0.00  0.00    +0.032 A 
ATOM     14  C   UNL     1      34.315 -17.713 -21.833  0.00  0.00    +0.055 C 
ATOM     15  C   UNL     1      33.897 -15.399 -22.013  0.00  0.00    +0.103 A 
ATOM     16  C   UNL     1      33.151 -14.443 -23.919  0.00  0.00    +0.053 A 
ATOM     17  C   UNL     1      34.321 -16.457 -21.188  0.00  0.00    +0.036 C 
ATOM     18  C   UNL     1      33.491 -16.867 -24.043  0.00  0.00    +0.004 C 
ATOM     19  C   UNL     1      33.920 -17.906 -23.194  0.00  0.00    +0.015 C 
ATOM     20  C   UNL     1      32.669 -14.029 -25.248  0.00  0.00    +0.051 C 
ATOM     21  H   UNL     1      33.148 -12.586 -23.006  0.00  0.00    +0.189 HD
ENDBRANCH   1  14
BRANCH   2  22
ATOM     22  C   UNL     1      33.638 -22.422 -16.278  0.00  0.00    +0.064 C 
ATOM     23  C   UNL     1      34.452 -22.938 -15.271  0.00  0.00    +0.055 C 
ATOM     24  C   UNL     1      32.273 -22.711 -16.289  0.00  0.00    +0.055 C 
ATOM     25  C   UNL     1      31.723 -23.515 -15.292  0.00  0.00    +0.177 C 
ATOM     26  C   UNL     1      33.901 -23.744 -14.274  0.00  0.00    +0.177 C 
ATOM     27  C   UNL     1      32.537 -24.032 -14.284  0.00  0.00    +0.206 C 
BRANCH  25  28
ATOM     28  O   UNL     1      30.388 -23.790 -15.314  0.00  0.00    -0.468 OA
ATOM     29  C   UNL     1      29.501 -22.680 -15.423  0.00  0.00    +0.253 C 
ENDBRANCH  25  28
BRANCH  26  30
ATOM     30  O   UNL     1      34.708 -24.243 -13.295  0.00  0.00    -0.468 OA
ATOM     31  C   UNL     1      36.044 -23.748 -13.243  0.00  0.00    +0.253 C 
ENDBRANCH  26  30
BRANCH  27  32
ATOM     32  O   UNL     1      31.999 -24.821 -13.310  0.00  0.00    -0.465 OA
ATOM     33  C   UNL     1      31.087 -24.202 -12.407  0.00  0.00    +0.253 C 
ENDBRANCH  27  32
ENDBRANCH   2  22
TORSDOF 5
ENDMDL
MODEL 6
REMARK VINA RESULT:      -9.6      6.083     11.450
REMARK  Name = 24941243
REMARK  5 active torsions:
REMARK  status: ('A' for Active; 'I' for Inactive)
REMARK    1  A    between atoms: N_1  and  C_14
REMARK    2  A    between atoms: N_2  and  C_22
REMARK    3  A    between atoms: C_25  and  O_28
REMARK    4  A    between atoms: C_26  and  O_30
REMARK    5  A    between atoms: C_27  and  O_32
REMARK                            x       y       z     vdW  Elec       q    Type
REMARK                         _______ _______ _______ _____ _____    ______ ____
ROOT
ATOM      1  N   UNL     1      34.254 -17.763 -21.507  0.00  0.00    -0.260 N 
ATOM      2  N   UNL     1      33.148 -13.390 -22.927  0.00  0.00    -0.247 N 
ATOM      3  N   UNL     1      33.695 -15.567 -22.243  0.00  0.00    -0.322 NA
ATOM      4  N   UNL     1      33.546 -13.769 -20.645  0.00  0.00    -0.170 NA
ATOM      5  C   UNL     1      34.010 -16.395 -21.225  0.00  0.00    +0.201 C 
ATOM      6  C   UNL     1      34.542 -18.136 -22.896  0.00  0.00    +0.120 C 
ATOM      7  C   UNL     1      34.111 -15.990 -19.910  0.00  0.00    +0.070 C 
ATOM      8  C   UNL     1      33.480 -14.287 -21.887  0.00  0.00    +0.150 C 
ATOM      9  C   UNL     1      33.866 -14.652 -19.676  0.00  0.00    +0.116 C 
ATOM     10  H   UNL     1      33.110 -13.812 -23.816  0.00  0.00    +0.165 HD
ENDROOT
BRANCH   1  14
ATOM     11  N   UNL     1      34.676 -22.151 -17.773  0.00  0.00    -0.280 N 
ATOM     12  N   UNL     1      35.538 -21.294 -18.354  0.00  0.00    -0.173 NA
ATOM     13  C   UNL     1      33.393 -20.924 -19.001  0.00  0.00    +0.032 A 
ATOM     14  C   UNL     1      34.014 -18.855 -20.631  0.00  0.00    +0.055 C 
ATOM     15  C   UNL     1      34.770 -20.510 -19.130  0.00  0.00    +0.103 A 
ATOM     16  C   UNL     1      33.370 -21.974 -18.128  0.00  0.00    +0.053 A 
ATOM     17  C   UNL     1      35.118 -19.437 -19.970  0.00  0.00    +0.036 C 
ATOM     18  C   UNL     1      32.286 -20.373 -19.635  0.00  0.00    +0.004 C 
ATOM     19  C   UNL     1      32.664 -19.303 -20.468  0.00  0.00    +0.015 C 
ATOM     20  C   UNL     1      32.294 -22.823 -17.590  0.00  0.00    +0.051 C 
ATOM     21  H   UNL     1      34.965 -22.850 -17.144  0.00  0.00    +0.189 HD
ENDBRANCH   1  14
BRANCH   2  22
ATOM     22  C   UNL     1      32.860 -12.013 -22.941  0.00  0.00    +0.064 C 
ATOM     23  C   UNL     1      33.539 -11.169 -23.820  0.00  0.00    +0.055 C 
ATOM     24  C   UNL     1      31.895 -11.492 -22.078  0.00  0.00    +0.055 C 
ATOM     25  C   UNL     1      31.609 -10.128 -22.096  0.00  0.00    +0.177 C 
ATOM     26  C   UNL     1      33.252  -9.804 -23.836  0.00  0.00    +0.177 C 
ATOM     27  C   UNL     1      32.287  -9.283 -22.975  0.00  0.00    +0.206 C 
BRANCH  25  28
ATOM     28  O   UNL     1      30.664  -9.631 -21.249  0.00  0.00    -0.468 OA
ATOM     29  C   UNL     1      30.038 -10.557 -20.362  0.00  0.00    +0.253 C 
ENDBRANCH  25  28
BRANCH  26  30
ATOM     30  O   UNL     1      33.923  -8.990 -24.700  0.00  0.00    -0.468 OA
ATOM     31  C   UNL     1      35.176  -9.459 -25.191  0.00  0.00    +0.253 C 
ENDBRANCH  26  30
BRANCH  27  32
ATOM     32  O   UNL     1      32.008  -7.949 -22.990  0.00  0.00    -0.465 OA
ATOM     33  C   UNL     1      32.759  -7.120 -22.106  0.00  0.00    +0.253 C 
ENDBRANCH  27  32
ENDBRANCH   2  22
TORSDOF 5
ENDMDL
MODEL 7
REMARK VINA RESULT:      -9.6      6.084     11.558
REMARK  Name = 24941243
REMARK  5 active torsions:
REMARK  status: ('A' for Active; 'I' for Inactive)
REMARK    1  A    between atoms: N_1  and  C_14
REMARK    2  A    between atoms: N_2  and  C_22
REMARK    3  A    between atoms: C_25  and  O_28
REMARK    4  A    between atoms: C_26  and  O_30
REMARK    5  A    between atoms: C_27  and  O_32
REMARK                            x       y       z     vdW  Elec       q    Type
REMARK                         _______ _______ _______ _____ _____    ______ ____
ROOT
ATOM      1  N   UNL     1      34.259 -17.763 -21.504  0.00  0.00    -0.260 N 
ATOM      2  N   UNL     1      33.159 -13.392 -22.936  0.00  0.00    -0.247 N 
ATOM      3  N   UNL     1      33.703 -15.568 -22.246  0.00  0.00    -0.322 NA
ATOM      4  N   UNL     1      33.543 -13.768 -20.651  0.00  0.00    -0.170 NA
ATOM      5  C   UNL     1      34.012 -16.395 -21.225  0.00  0.00    +0.201 C 
ATOM      6  C   UNL     1      34.556 -18.136 -22.891  0.00  0.00    +0.120 C 
ATOM      7  C   UNL     1      34.104 -15.989 -19.910  0.00  0.00    +0.070 C 
ATOM      8  C   UNL     1      33.485 -14.287 -21.893  0.00  0.00    +0.150 C 
ATOM      9  C   UNL     1      33.856 -14.651 -19.680  0.00  0.00    +0.116 C 
ATOM     10  H   UNL     1      33.128 -13.815 -23.824  0.00  0.00    +0.165 HD
ENDROOT
BRANCH   1  14
ATOM     11  N   UNL     1      34.657 -22.139 -17.754  0.00  0.00    -0.280 N 
ATOM     12  N   UNL     1      35.522 -21.278 -18.326  0.00  0.00    -0.173 NA
ATOM     13  C   UNL     1      33.384 -20.923 -19.002  0.00  0.00    +0.032 A 
ATOM     14  C   UNL     1      34.013 -18.854 -20.629  0.00  0.00    +0.055 C 
ATOM     15  C   UNL     1      34.759 -20.500 -19.113  0.00  0.00    +0.103 A 
ATOM     16  C   UNL     1      33.355 -21.971 -18.127  0.00  0.00    +0.053 A 
ATOM     17  C   UNL     1      35.112 -19.427 -19.952  0.00  0.00    +0.036 C 
ATOM     18  C   UNL     1      32.282 -20.380 -19.653  0.00  0.00    +0.004 C 
ATOM     19  C   UNL     1      32.665 -19.310 -20.484  0.00  0.00    +0.015 C 
ATOM     20  C   UNL     1      32.277 -22.825 -17.602  0.00  0.00    +0.051 C 
ATOM     21  H   UNL     1      34.942 -22.835 -17.119  0.00  0.00    +0.189 HD
ENDBRANCH   1  14
BRANCH   2  22
ATOM     22  C   UNL     1      32.871 -12.015 -22.954  0.00  0.00    +0.064 C 
ATOM     23  C   UNL     1      31.927 -11.489 -22.073  0.00  0.00    +0.055 C 
ATOM     24  C   UNL     1      33.532 -11.175 -23.851  0.00  0.00    +0.055 C 
ATOM     25  C   UNL     1      33.249  -9.810 -23.866  0.00  0.00    +0.177 C 
ATOM     26  C   UNL     1      31.643 -10.123 -22.089  0.00  0.00    +0.177 C 
ATOM     27  C   UNL     1      32.305  -9.284 -22.985  0.00  0.00    +0.206 C 
BRANCH  25  28
ATOM     28  O   UNL     1      33.902  -9.001 -24.747  0.00  0.00    -0.468 OA
ATOM     29  C   UNL     1      35.178  -9.440 -25.207  0.00  0.00    +0.253 C 
ENDBRANCH  25  28
BRANCH  26  30
ATOM     30  O   UNL     1      30.717  -9.622 -21.223  0.00  0.00    -0.468 OA
ATOM     31  C   UNL     1      30.106 -10.544 -20.324  0.00  0.00    +0.253 C 
ENDBRANCH  26  30
BRANCH  27  32
ATOM     32  O   UNL     1      32.026  -7.949 -23.002  0.00  0.00    -0.465 OA
ATOM     33  C   UNL     1      32.790  -7.118 -22.130  0.00  0.00    +0.253 C 
ENDBRANCH  27  32
ENDBRANCH   2  22
TORSDOF 5
ENDMDL
MODEL 8
REMARK VINA RESULT:      -9.3      7.735     12.032
REMARK  Name = 24941243
REMARK  5 active torsions:
REMARK  status: ('A' for Active; 'I' for Inactive)
REMARK    1  A    between atoms: N_1  and  C_14
REMARK    2  A    between atoms: N_2  and  C_22
REMARK    3  A    between atoms: C_25  and  O_28
REMARK    4  A    between atoms: C_26  and  O_30
REMARK    5  A    between atoms: C_27  and  O_32
REMARK                            x       y       z     vdW  Elec       q    Type
REMARK                         _______ _______ _______ _____ _____    ______ ____
ROOT
ATOM      1  N   UNL     1      31.679  -7.660 -21.198  0.00  0.00    -0.260 N 
ATOM      2  N   UNL     1      32.339 -12.266 -22.045  0.00  0.00    -0.247 N 
ATOM      3  N   UNL     1      32.000  -9.986 -21.606  0.00  0.00    -0.322 NA
ATOM      4  N   UNL     1      33.233 -10.702 -23.550  0.00  0.00    -0.170 NA
ATOM      5  C   UNL     1      32.206  -8.709 -21.994  0.00  0.00    +0.201 C 
ATOM      6  C   UNL     1      31.291  -7.975 -19.819  0.00  0.00    +0.120 C 
ATOM      7  C   UNL     1      32.904  -8.355 -23.129  0.00  0.00    +0.070 C 
ATOM      8  C   UNL     1      32.534 -10.918 -22.418  0.00  0.00    +0.150 C 
ATOM      9  C   UNL     1      33.401  -9.404 -23.876  0.00  0.00    +0.116 C 
ATOM     10  H   UNL     1      31.823 -12.375 -21.213  0.00  0.00    +0.165 HD
ENDROOT
BRANCH   1  14
ATOM     11  N   UNL     1      29.168  -2.509 -21.925  0.00  0.00    -0.280 N 
ATOM     12  N   UNL     1      29.102  -3.492 -21.006  0.00  0.00    -0.173 NA
ATOM     13  C   UNL     1      30.557  -3.979 -22.681  0.00  0.00    +0.032 A 
ATOM     14  C   UNL     1      31.258  -6.386 -21.663  0.00  0.00    +0.055 C 
ATOM     15  C   UNL     1      29.960  -4.429 -21.446  0.00  0.00    +0.103 A 
ATOM     16  C   UNL     1      30.028  -2.751 -22.957  0.00  0.00    +0.053 A 
ATOM     17  C   UNL     1      30.308  -5.676 -20.896  0.00  0.00    +0.036 C 
ATOM     18  C   UNL     1      31.492  -4.652 -23.457  0.00  0.00    +0.004 C 
ATOM     19  C   UNL     1      31.822  -5.895 -22.883  0.00  0.00    +0.015 C 
ATOM     20  C   UNL     1      30.223  -1.786 -24.052  0.00  0.00    +0.051 C 
ATOM     21  H   UNL     1      28.637  -1.683 -21.859  0.00  0.00    +0.189 HD
ENDBRANCH   1  14
BRANCH   2  22
ATOM     22  C   UNL     1      32.738 -13.483 -22.627  0.00  0.00    +0.064 C 
ATOM     23  C   UNL     1      32.310 -13.813 -23.912  0.00  0.00    +0.055 C 
ATOM     24  C   UNL     1      33.564 -14.358 -21.920  0.00  0.00    +0.055 C 
ATOM     25  C   UNL     1      33.961 -15.562 -22.499  0.00  0.00    +0.177 C 
ATOM     26  C   UNL     1      32.708 -15.019 -24.491  0.00  0.00    +0.177 C 
ATOM     27  C   UNL     1      33.534 -15.893 -23.785  0.00  0.00    +0.206 C 
BRANCH  25  28
ATOM     28  O   UNL     1      34.768 -16.407 -21.798  0.00  0.00    -0.468 OA
ATOM     29  C   UNL     1      34.215 -17.011 -20.631  0.00  0.00    +0.253 C 
ENDBRANCH  25  28
BRANCH  26  30
ATOM     30  O   UNL     1      32.282 -15.330 -25.748  0.00  0.00    -0.468 OA
ATOM     31  C   UNL     1      31.156 -14.613 -26.246  0.00  0.00    +0.253 C 
ENDBRANCH  26  30
BRANCH  27  32
ATOM     32  O   UNL     1      33.921 -17.072 -24.350  0.00  0.00    -0.465 OA
ATOM     33  C   UNL     1      33.164 -18.232 -24.013  0.00  0.00    +0.253 C 
ENDBRANCH  27  32
ENDBRANCH   2  22
TORSDOF 5
ENDMDL
MODEL 9
REMARK VINA RESULT:      -9.3      7.742     11.878
REMARK  Name = 24941243
REMARK  5 active torsions:
REMARK  status: ('A' for Active; 'I' for Inactive)
REMARK    1  A    between atoms: N_1  and  C_14
REMARK    2  A    between atoms: N_2  and  C_22
REMARK    3  A    between atoms: C_25  and  O_28
REMARK    4  A    between atoms: C_26  and  O_30
REMARK    5  A    between atoms: C_27  and  O_32
REMARK                            x       y       z     vdW  Elec       q    Type
REMARK                         _______ _______ _______ _____ _____    ______ ____
ROOT
ATOM      1  N   UNL     1      31.653  -7.680 -21.234  0.00  0.00    -0.260 N 
ATOM      2  N   UNL     1      32.314 -12.277 -22.121  0.00  0.00    -0.247 N 
ATOM      3  N   UNL     1      31.974 -10.001 -21.663  0.00  0.00    -0.322 NA
ATOM      4  N   UNL     1      33.203 -10.700 -23.615  0.00  0.00    -0.170 NA
ATOM      5  C   UNL     1      32.178  -8.722 -22.040  0.00  0.00    +0.201 C 
ATOM      6  C   UNL     1      31.268  -8.006 -19.857  0.00  0.00    +0.120 C 
ATOM      7  C   UNL     1      32.874  -8.357 -23.174  0.00  0.00    +0.070 C 
ATOM      8  C   UNL     1      32.506 -10.926 -22.484  0.00  0.00    +0.150 C 
ATOM      9  C   UNL     1      33.369  -9.399 -23.931  0.00  0.00    +0.116 C 
ATOM     10  H   UNL     1      31.799 -12.394 -21.289  0.00  0.00    +0.165 HD
ENDROOT
BRANCH   1  14
ATOM     11  N   UNL     1      29.146  -2.519 -21.905  0.00  0.00    -0.280 N 
ATOM     12  N   UNL     1      29.088  -3.506 -20.991  0.00  0.00    -0.173 NA
ATOM     13  C   UNL     1      30.522  -3.988 -22.684  0.00  0.00    +0.032 A 
ATOM     14  C   UNL     1      31.230  -6.402 -21.688  0.00  0.00    +0.055 C 
ATOM     15  C   UNL     1      29.938  -4.443 -21.445  0.00  0.00    +0.103 A 
ATOM     16  C   UNL     1      29.994  -2.756 -22.948  0.00  0.00    +0.053 A 
ATOM     17  C   UNL     1      30.290  -5.694 -20.906  0.00  0.00    +0.036 C 
ATOM     18  C   UNL     1      31.448  -4.658 -23.474  0.00  0.00    +0.004 C 
ATOM     19  C   UNL     1      31.781  -5.905 -22.911  0.00  0.00    +0.015 C 
ATOM     20  C   UNL     1      30.179  -1.786 -24.039  0.00  0.00    +0.051 C 
ATOM     21  H   UNL     1      28.618  -1.692 -21.828  0.00  0.00    +0.189 HD
ENDBRANCH   1  14
BRANCH   2  22
ATOM     22  C   UNL     1      32.712 -13.489 -22.715  0.00  0.00    +0.064 C 
ATOM     23  C   UNL     1      33.501 -14.389 -22.000  0.00  0.00    +0.055 C 
ATOM     24  C   UNL     1      32.315 -13.792 -24.018  0.00  0.00    +0.055 C 
ATOM     25  C   UNL     1      32.707 -14.994 -24.605  0.00  0.00    +0.177 C 
ATOM     26  C   UNL     1      33.894 -15.592 -22.588  0.00  0.00    +0.177 C 
ATOM     27  C   UNL     1      33.497 -15.894 -23.890  0.00  0.00    +0.206 C 
BRANCH  25  28
ATOM     28  O   UNL     1      32.313 -15.277 -25.878  0.00  0.00    -0.468 OA
ATOM     29  C   UNL     1      30.951 -15.655 -26.065  0.00  0.00    +0.253 C 
ENDBRANCH  25  28
BRANCH  26  30
ATOM     30  O   UNL     1      34.667 -16.462 -21.878  0.00  0.00    -0.468 OA
ATOM     31  C   UNL     1      34.236 -16.782 -20.558  0.00  0.00    +0.253 C 
ENDBRANCH  26  30
BRANCH  27  32
ATOM     32  O   UNL     1      33.882 -17.069 -24.465  0.00  0.00    -0.465 OA
ATOM     33  C   UNL     1      33.229 -18.254 -24.016  0.00  0.00    +0.253 C 
ENDBRANCH  27  32
ENDBRANCH   2  22
TORSDOF 5
ENDMDL
