MODEL 1
REMARK VINA RESULT:     -11.5      0.000      0.000
REMARK  Name = 70798655
REMARK  2 active torsions:
REMARK  status: ('A' for Active; 'I' for Inactive)
REMARK    1  A    between atoms: C_3  and  C_29
REMARK    2  A    between atoms: C_5  and  C_13
REMARK                            x       y       z     vdW  Elec       q    Type
REMARK                         _______ _______ _______ _____ _____    ______ ____
ROOT
ATOM      1  N   UNL     1      32.935 -23.363 -14.349  0.00  0.00    -0.245 N 
ATOM      2  N   UNL     1      31.343 -24.341 -13.121  0.00  0.00    -0.227 NA
ATOM      3  C   UNL     1      33.541 -23.787 -13.194  0.00  0.00    +0.130 C 
ATOM      4  C   UNL     1      31.596 -23.725 -14.257  0.00  0.00    +0.139 C 
ATOM      5  C   UNL     1      32.698 -22.368 -16.489  0.00  0.00    +0.012 C 
ATOM      6  C   UNL     1      33.485 -22.697 -15.442  0.00  0.00    +0.071 C 
ATOM      7  C   UNL     1      32.544 -24.382 -12.458  0.00  0.00    +0.120 C 
ATOM      8  C   UNL     1      30.760 -23.384 -15.356  0.00  0.00    +0.035 C 
ATOM      9  C   UNL     1      31.281 -22.740 -16.418  0.00  0.00    +0.004 C 
ENDROOT
BRANCH   5  13
ATOM     10  O   UNL     1      34.746 -19.687 -20.904  0.00  0.00    -0.414 OA
ATOM     11  N   UNL     1      32.490 -19.648 -20.686  0.00  0.00    -0.356 NA
ATOM     12  N   UNL     1      33.583 -18.548 -22.526  0.00  0.00    -0.302 N 
ATOM     13  C   UNL     1      33.290 -21.670 -17.647  0.00  0.00    -0.014 C 
ATOM     14  C   UNL     1      32.448 -21.015 -18.558  0.00  0.00    +0.089 C 
ATOM     15  C   UNL     1      34.681 -21.672 -17.815  0.00  0.00    -0.001 C 
ATOM     16  C   UNL     1      33.039 -20.360 -19.648  0.00  0.00    +0.152 C 
ATOM     17  C   UNL     1      34.420 -20.387 -19.777  0.00  0.00    +0.175 C 
ATOM     18  C   UNL     1      35.286 -21.022 -18.897  0.00  0.00    +0.040 C 
ATOM     19  C   UNL     1      33.540 -19.279 -21.388  0.00  0.00    +0.341 C 
ATOM     20  H   UNL     1      34.450 -18.346 -22.947  0.00  0.00    +0.148 HD
ATOM     21  H   UNL     1      32.749 -18.220 -22.932  0.00  0.00    +0.148 HD
ENDBRANCH   5  13
BRANCH   3  29
ATOM     22  O   UNL     1      37.661 -26.650 -13.808  0.00  0.00    -0.350 OA
ATOM     23  O   UNL     1      35.228 -22.704 -12.074  0.00  0.00    -0.268 OA
ATOM     24  N   UNL     1      35.883 -24.501 -13.416  0.00  0.00    -0.270 N 
ATOM     25  C   UNL     1      37.304 -24.363 -13.102  0.00  0.00    +0.126 C 
ATOM     26  C   UNL     1      35.577 -25.551 -14.395  0.00  0.00    +0.126 C 
ATOM     27  C   UNL     1      36.259 -26.855 -13.999  0.00  0.00    +0.164 C 
ATOM     28  C   UNL     1      37.903 -25.717 -12.752  0.00  0.00    +0.164 C 
ATOM     29  C   UNL     1      34.959 -23.622 -12.847  0.00  0.00    +0.265 C 
ENDBRANCH   3  29
TORSDOF 2
ENDMDL
MODEL 2
REMARK VINA RESULT:     -11.1      1.194      1.827
REMARK  Name = 70798655
REMARK  2 active torsions:
REMARK  status: ('A' for Active; 'I' for Inactive)
REMARK    1  A    between atoms: C_3  and  C_29
REMARK    2  A    between atoms: C_5  and  C_13
REMARK                            x       y       z     vdW  Elec       q    Type
REMARK                         _______ _______ _______ _____ _____    ______ ____
ROOT
ATOM      1  N   UNL     1      32.665 -23.625 -14.804  0.00  0.00    -0.245 N 
ATOM      2  N   UNL     1      30.981 -24.291 -13.492  0.00  0.00    -0.227 NA
ATOM      3  C   UNL     1      33.221 -24.405 -13.822  0.00  0.00    +0.130 C 
ATOM      4  C   UNL     1      31.297 -23.587 -14.559  0.00  0.00    +0.139 C 
ATOM      5  C   UNL     1      32.535 -22.244 -16.727  0.00  0.00    +0.012 C 
ATOM      6  C   UNL     1      33.281 -22.969 -15.866  0.00  0.00    +0.071 C 
ATOM      7  C   UNL     1      32.169 -24.800 -13.031  0.00  0.00    +0.120 C 
ATOM      8  C   UNL     1      30.502 -22.827 -15.462  0.00  0.00    +0.035 C 
ATOM      9  C   UNL     1      31.088 -22.189 -16.494  0.00  0.00    +0.004 C 
ENDROOT
BRANCH   5  13
ATOM     10  O   UNL     1      34.842 -19.603 -21.037  0.00  0.00    -0.414 OA
ATOM     11  N   UNL     1      32.583 -19.482 -20.902  0.00  0.00    -0.356 NA
ATOM     12  N   UNL     1      33.783 -18.408 -22.689  0.00  0.00    -0.302 N 
ATOM     13  C   UNL     1      33.194 -21.558 -17.856  0.00  0.00    -0.014 C 
ATOM     14  C   UNL     1      32.411 -20.865 -18.790  0.00  0.00    +0.089 C 
ATOM     15  C   UNL     1      34.590 -21.611 -17.974  0.00  0.00    -0.001 C 
ATOM     16  C   UNL     1      33.066 -20.223 -19.851  0.00  0.00    +0.152 C 
ATOM     17  C   UNL     1      34.449 -20.300 -19.931  0.00  0.00    +0.175 C 
ATOM     18  C   UNL     1      35.258 -20.975 -19.026  0.00  0.00    +0.040 C 
ATOM     19  C   UNL     1      33.670 -19.146 -21.561  0.00  0.00    +0.341 C 
ATOM     20  H   UNL     1      34.672 -18.234 -23.077  0.00  0.00    +0.148 HD
ATOM     21  H   UNL     1      32.977 -18.046 -23.122  0.00  0.00    +0.148 HD
ENDBRANCH   5  13
BRANCH   3  29
ATOM     22  O   UNL     1      36.603 -23.761 -10.121  0.00  0.00    -0.350 OA
ATOM     23  O   UNL     1      35.242 -25.050 -14.703  0.00  0.00    -0.268 OA
ATOM     24  N   UNL     1      35.210 -24.658 -12.400  0.00  0.00    -0.270 N 
ATOM     25  C   UNL     1      36.623 -24.982 -12.210  0.00  0.00    +0.126 C 
ATOM     26  C   UNL     1      34.488 -24.348 -11.159  0.00  0.00    +0.126 C 
ATOM     27  C   UNL     1      35.261 -23.320 -10.343  0.00  0.00    +0.164 C 
ATOM     28  C   UNL     1      37.302 -23.919 -11.359  0.00  0.00    +0.164 C 
ATOM     29  C   UNL     1      34.646 -24.729 -13.675  0.00  0.00    +0.265 C 
ENDBRANCH   3  29
TORSDOF 2
ENDMDL
MODEL 3
REMARK VINA RESULT:     -10.6      1.380      1.873
REMARK  Name = 70798655
REMARK  2 active torsions:
REMARK  status: ('A' for Active; 'I' for Inactive)
REMARK    1  A    between atoms: C_3  and  C_29
REMARK    2  A    between atoms: C_5  and  C_13
REMARK                            x       y       z     vdW  Elec       q    Type
REMARK                         _______ _______ _______ _____ _____    ______ ____
ROOT
ATOM      1  N   UNL     1      33.780 -22.619 -16.017  0.00  0.00    -0.245 N 
ATOM      2  N   UNL     1      32.247 -23.693 -14.794  0.00  0.00    -0.227 NA
ATOM      3  C   UNL     1      34.449 -23.181 -14.959  0.00  0.00    +0.130 C 
ATOM      4  C   UNL     1      32.441 -22.961 -15.871  0.00  0.00    +0.139 C 
ATOM      5  C   UNL     1      33.429 -21.390 -18.014  0.00  0.00    +0.012 C 
ATOM      6  C   UNL     1      34.275 -21.849 -17.066  0.00  0.00    +0.071 C 
ATOM      7  C   UNL     1      33.487 -23.832 -14.225  0.00  0.00    +0.120 C 
ATOM      8  C   UNL     1      31.542 -22.484 -16.866  0.00  0.00    +0.035 C 
ATOM      9  C   UNL     1      32.010 -21.738 -17.886  0.00  0.00    +0.004 C 
ENDROOT
BRANCH   5  13
ATOM     10  O   UNL     1      35.252 -18.322 -22.273  0.00  0.00    -0.414 OA
ATOM     11  N   UNL     1      33.014 -18.672 -22.197  0.00  0.00    -0.356 NA
ATOM     12  N   UNL     1      34.012 -17.370 -23.957  0.00  0.00    -0.302 N 
ATOM     13  C   UNL     1      33.962 -20.581 -19.128  0.00  0.00    -0.014 C 
ATOM     14  C   UNL     1      33.077 -20.064 -20.085  0.00  0.00    +0.089 C 
ATOM     15  C   UNL     1      35.340 -20.343 -19.209  0.00  0.00    -0.001 C 
ATOM     16  C   UNL     1      33.612 -19.298 -21.131  0.00  0.00    +0.152 C 
ATOM     17  C   UNL     1      34.983 -19.087 -21.174  0.00  0.00    +0.175 C 
ATOM     18  C   UNL     1      35.890 -19.581 -20.246  0.00  0.00    +0.040 C 
ATOM     19  C   UNL     1      34.025 -18.117 -22.829  0.00  0.00    +0.341 C 
ATOM     20  H   UNL     1      34.856 -17.015 -24.322  0.00  0.00    +0.148 HD
ATOM     21  H   UNL     1      33.161 -17.182 -24.412  0.00  0.00    +0.148 HD
ENDBRANCH   5  13
BRANCH   3  29
ATOM     22  O   UNL     1      37.834 -26.253 -12.802  0.00  0.00    -0.350 OA
ATOM     23  O   UNL     1      36.398 -21.973 -14.832  0.00  0.00    -0.268 OA
ATOM     24  N   UNL     1      36.572 -24.247 -14.324  0.00  0.00    -0.270 N 
ATOM     25  C   UNL     1      38.009 -24.194 -14.062  0.00  0.00    +0.126 C 
ATOM     26  C   UNL     1      35.987 -25.590 -14.232  0.00  0.00    +0.126 C 
ATOM     27  C   UNL     1      36.410 -26.261 -12.931  0.00  0.00    +0.164 C 
ATOM     28  C   UNL     1      38.338 -24.915 -12.763  0.00  0.00    +0.164 C 
ATOM     29  C   UNL     1      35.891 -23.085 -14.696  0.00  0.00    +0.265 C 
ENDBRANCH   3  29
TORSDOF 2
ENDMDL
MODEL 4
REMARK VINA RESULT:      -9.9      4.422     10.649
REMARK  Name = 70798655
REMARK  2 active torsions:
REMARK  status: ('A' for Active; 'I' for Inactive)
REMARK    1  A    between atoms: C_3  and  C_29
REMARK    2  A    between atoms: C_5  and  C_13
REMARK                            x       y       z     vdW  Elec       q    Type
REMARK                         _______ _______ _______ _____ _____    ______ ____
ROOT
ATOM      1  N   UNL     1      33.868 -16.482 -21.791  0.00  0.00    -0.245 N 
ATOM      2  N   UNL     1      34.206 -15.626 -23.829  0.00  0.00    -0.227 NA
ATOM      3  C   UNL     1      33.592 -15.141 -21.700  0.00  0.00    +0.130 C 
ATOM      4  C   UNL     1      34.237 -16.728 -23.108  0.00  0.00    +0.139 C 
ATOM      5  C   UNL     1      34.129 -18.740 -21.113  0.00  0.00    +0.012 C 
ATOM      6  C   UNL     1      33.811 -17.463 -20.805  0.00  0.00    +0.071 C 
ATOM      7  C   UNL     1      33.808 -14.640 -22.962  0.00  0.00    +0.120 C 
ATOM      8  C   UNL     1      34.571 -18.070 -23.443  0.00  0.00    +0.035 C 
ATOM      9  C   UNL     1      34.520 -19.027 -22.497  0.00  0.00    +0.004 C 
ENDROOT
BRANCH   5  13
ATOM     10  O   UNL     1      33.672 -22.628 -17.171  0.00  0.00    -0.414 OA
ATOM     11  N   UNL     1      31.719 -21.774 -17.944  0.00  0.00    -0.356 NA
ATOM     12  N   UNL     1      31.748 -23.470 -16.237  0.00  0.00    -0.302 N 
ATOM     13  C   UNL     1      34.059 -19.776 -20.065  0.00  0.00    -0.014 C 
ATOM     14  C   UNL     1      32.806 -20.190 -19.591  0.00  0.00    +0.089 C 
ATOM     15  C   UNL     1      35.245 -20.328 -19.561  0.00  0.00    -0.001 C 
ATOM     16  C   UNL     1      32.771 -21.177 -18.595  0.00  0.00    +0.152 C 
ATOM     17  C   UNL     1      33.968 -21.696 -18.124  0.00  0.00    +0.175 C 
ATOM     18  C   UNL     1      35.227 -21.313 -18.568  0.00  0.00    +0.040 C 
ATOM     19  C   UNL     1      32.310 -22.616 -17.123  0.00  0.00    +0.341 C 
ATOM     20  H   UNL     1      32.320 -24.047 -15.681  0.00  0.00    +0.148 HD
ATOM     21  H   UNL     1      30.769 -23.514 -16.149  0.00  0.00    +0.148 HD
ENDBRANCH   5  13
BRANCH   3  29
ATOM     22  O   UNL     1      30.885 -10.951 -20.887  0.00  0.00    -0.350 OA
ATOM     23  O   UNL     1      33.701 -14.755 -19.439  0.00  0.00    -0.268 OA
ATOM     24  N   UNL     1      32.180 -13.439 -20.627  0.00  0.00    -0.270 N 
ATOM     25  C   UNL     1      31.717 -12.709 -19.448  0.00  0.00    +0.126 C 
ATOM     26  C   UNL     1      31.479 -13.090 -21.869  0.00  0.00    +0.126 C 
ATOM     27  C   UNL     1      31.441 -11.578 -22.046  0.00  0.00    +0.164 C 
ATOM     28  C   UNL     1      31.682 -11.214 -19.730  0.00  0.00    +0.164 C 
ATOM     29  C   UNL     1      33.161 -14.423 -20.493  0.00  0.00    +0.265 C 
ENDBRANCH   3  29
TORSDOF 2
ENDMDL
MODEL 5
REMARK VINA RESULT:      -9.9      2.834      4.708
REMARK  Name = 70798655
REMARK  2 active torsions:
REMARK  status: ('A' for Active; 'I' for Inactive)
REMARK    1  A    between atoms: C_3  and  C_29
REMARK    2  A    between atoms: C_5  and  C_13
REMARK                            x       y       z     vdW  Elec       q    Type
REMARK                         _______ _______ _______ _____ _____    ______ ____
ROOT
ATOM      1  N   UNL     1      34.021 -22.332 -16.229  0.00  0.00    -0.245 N 
ATOM      2  N   UNL     1      34.905 -23.352 -14.447  0.00  0.00    -0.227 NA
ATOM      3  C   UNL     1      32.983 -22.952 -15.582  0.00  0.00    +0.130 C 
ATOM      4  C   UNL     1      35.171 -22.605 -15.498  0.00  0.00    +0.139 C 
ATOM      5  C   UNL     1      35.156 -21.041 -17.862  0.00  0.00    +0.012 C 
ATOM      6  C   UNL     1      34.004 -21.565 -17.391  0.00  0.00    +0.071 C 
ATOM      7  C   UNL     1      33.551 -23.571 -14.493  0.00  0.00    +0.120 C 
ATOM      8  C   UNL     1      36.389 -22.056 -15.986  0.00  0.00    +0.035 C 
ATOM      9  C   UNL     1      36.385 -21.312 -17.108  0.00  0.00    +0.004 C 
ENDROOT
BRANCH   5  13
ATOM     10  O   UNL     1      34.873 -18.019 -22.516  0.00  0.00    -0.414 OA
ATOM     11  N   UNL     1      33.021 -19.224 -22.009  0.00  0.00    -0.356 NA
ATOM     12  N   UNL     1      33.110 -17.846 -23.980  0.00  0.00    -0.302 N 
ATOM     13  C   UNL     1      35.129 -20.222 -19.090  0.00  0.00    -0.014 C 
ATOM     14  C   UNL     1      33.975 -20.217 -19.887  0.00  0.00    +0.089 C 
ATOM     15  C   UNL     1      36.255 -19.463 -19.437  0.00  0.00    -0.001 C 
ATOM     16  C   UNL     1      33.979 -19.429 -21.047  0.00  0.00    +0.152 C 
ATOM     17  C   UNL     1      35.115 -18.694 -21.355  0.00  0.00    +0.175 C 
ATOM     18  C   UNL     1      36.275 -18.672 -20.590  0.00  0.00    +0.040 C 
ATOM     19  C   UNL     1      33.602 -18.388 -22.842  0.00  0.00    +0.341 C 
ATOM     20  H   UNL     1      33.664 -17.228 -24.511  0.00  0.00    +0.148 HD
ATOM     21  H   UNL     1      32.199 -18.068 -24.276  0.00  0.00    +0.148 HD
ENDBRANCH   5  13
BRANCH   3  29
ATOM     22  O   UNL     1      28.695 -24.585 -13.460  0.00  0.00    -0.350 OA
ATOM     23  O   UNL     1      31.349 -22.662 -17.169  0.00  0.00    -0.268 OA
ATOM     24  N   UNL     1      30.603 -23.233 -15.030  0.00  0.00    -0.270 N 
ATOM     25  C   UNL     1      29.188 -23.222 -15.397  0.00  0.00    +0.126 C 
ATOM     26  C   UNL     1      30.858 -23.493 -13.608  0.00  0.00    +0.126 C 
ATOM     27  C   UNL     1      30.085 -24.722 -13.150  0.00  0.00    +0.164 C 
ATOM     28  C   UNL     1      28.494 -24.469 -14.871  0.00  0.00    +0.164 C 
ATOM     29  C   UNL     1      31.572 -22.940 -15.992  0.00  0.00    +0.265 C 
ENDBRANCH   3  29
TORSDOF 2
ENDMDL
MODEL 6
REMARK VINA RESULT:      -9.8      8.774     14.668
REMARK  Name = 70798655
REMARK  2 active torsions:
REMARK  status: ('A' for Active; 'I' for Inactive)
REMARK    1  A    between atoms: C_3  and  C_29
REMARK    2  A    between atoms: C_5  and  C_13
REMARK                            x       y       z     vdW  Elec       q    Type
REMARK                         _______ _______ _______ _____ _____    ______ ____
ROOT
ATOM      1  N   UNL     1      31.742 -10.614 -21.748  0.00  0.00    -0.245 N 
ATOM      2  N   UNL     1      30.376  -9.260 -20.607  0.00  0.00    -0.227 NA
ATOM      3  C   UNL     1      31.749  -9.410 -22.406  0.00  0.00    +0.130 C 
ATOM      4  C   UNL     1      30.891 -10.471 -20.659  0.00  0.00    +0.139 C 
ATOM      5  C   UNL     1      32.273 -12.873 -21.259  0.00  0.00    +0.012 C 
ATOM      6  C   UNL     1      32.425 -11.789 -22.050  0.00  0.00    +0.071 C 
ATOM      7  C   UNL     1      30.904  -8.598 -21.687  0.00  0.00    +0.120 C 
ATOM      8  C   UNL     1      30.725 -11.607 -19.817  0.00  0.00    +0.035 C 
ATOM      9  C   UNL     1      31.381 -12.749 -20.100  0.00  0.00    +0.004 C 
ENDROOT
BRANCH   5  13
ATOM     10  O   UNL     1      35.042 -17.580 -22.280  0.00  0.00    -0.414 OA
ATOM     11  N   UNL     1      34.642 -17.126 -20.096  0.00  0.00    -0.356 NA
ATOM     12  N   UNL     1      35.825 -19.114 -20.759  0.00  0.00    -0.302 N 
ATOM     13  C   UNL     1      33.006 -14.112 -21.581  0.00  0.00    -0.014 C 
ATOM     14  C   UNL     1      33.422 -14.954 -20.539  0.00  0.00    +0.089 C 
ATOM     15  C   UNL     1      33.272 -14.427 -22.920  0.00  0.00    -0.001 C 
ATOM     16  C   UNL     1      34.116 -16.126 -20.876  0.00  0.00    +0.152 C 
ATOM     17  C   UNL     1      34.360 -16.399 -22.214  0.00  0.00    +0.175 C 
ATOM     18  C   UNL     1      33.963 -15.592 -23.272  0.00  0.00    +0.040 C 
ATOM     19  C   UNL     1      35.170 -17.949 -20.975  0.00  0.00    +0.341 C 
ATOM     20  H   UNL     1      36.172 -19.632 -21.521  0.00  0.00    +0.148 HD
ATOM     21  H   UNL     1      35.954 -19.442 -19.840  0.00  0.00    +0.148 HD
ENDBRANCH   5  13
BRANCH   3  29
ATOM     22  O   UNL     1      33.914  -5.203 -24.185  0.00  0.00    -0.350 OA
ATOM     23  O   UNL     1      32.482  -9.929 -24.519  0.00  0.00    -0.268 OA
ATOM     24  N   UNL     1      33.204  -7.879 -23.664  0.00  0.00    -0.270 N 
ATOM     25  C   UNL     1      33.980  -7.528 -24.852  0.00  0.00    +0.126 C 
ATOM     26  C   UNL     1      33.302  -6.907 -22.567  0.00  0.00    +0.126 C 
ATOM     27  C   UNL     1      33.045  -5.499 -23.088  0.00  0.00    +0.164 C 
ATOM     28  C   UNL     1      33.683  -6.098 -25.276  0.00  0.00    +0.164 C 
ATOM     29  C   UNL     1      32.510  -9.090 -23.621  0.00  0.00    +0.265 C 
ENDBRANCH   3  29
TORSDOF 2
ENDMDL
MODEL 7
REMARK VINA RESULT:      -9.7      3.048      5.346
REMARK  Name = 70798655
REMARK  2 active torsions:
REMARK  status: ('A' for Active; 'I' for Inactive)
REMARK    1  A    between atoms: C_3  and  C_29
REMARK    2  A    between atoms: C_5  and  C_13
REMARK                            x       y       z     vdW  Elec       q    Type
REMARK                         _______ _______ _______ _____ _____    ______ ____
ROOT
ATOM      1  N   UNL     1      31.342 -23.291 -14.135  0.00  0.00    -0.245 N 
ATOM      2  N   UNL     1      31.416 -24.728 -12.423  0.00  0.00    -0.227 NA
ATOM      3  C   UNL     1      30.124 -23.213 -13.509  0.00  0.00    +0.130 C 
ATOM      4  C   UNL     1      32.094 -24.227 -13.435  0.00  0.00    +0.139 C 
ATOM      5  C   UNL     1      33.055 -22.834 -15.710  0.00  0.00    +0.012 C 
ATOM      6  C   UNL     1      31.806 -22.602 -15.252  0.00  0.00    +0.071 C 
ATOM      7  C   UNL     1      30.194 -24.103 -12.464  0.00  0.00    +0.120 C 
ATOM      8  C   UNL     1      33.412 -24.478 -13.908  0.00  0.00    +0.035 C 
ATOM      9  C   UNL     1      33.872 -23.817 -14.988  0.00  0.00    +0.004 C 
ENDROOT
BRANCH   5  13
ATOM     10  O   UNL     1      34.707 -20.021 -20.207  0.00  0.00    -0.414 OA
ATOM     11  N   UNL     1      32.466 -20.260 -19.961  0.00  0.00    -0.356 NA
ATOM     12  N   UNL     1      33.394 -19.074 -21.838  0.00  0.00    -0.302 N 
ATOM     13  C   UNL     1      33.543 -22.094 -16.889  0.00  0.00    -0.014 C 
ATOM     14  C   UNL     1      32.617 -21.572 -17.803  0.00  0.00    +0.089 C 
ATOM     15  C   UNL     1      34.922 -21.926 -17.076  0.00  0.00    -0.001 C 
ATOM     16  C   UNL     1      33.110 -20.873 -18.915  0.00  0.00    +0.152 C 
ATOM     17  C   UNL     1      34.482 -20.730 -19.062  0.00  0.00    +0.175 C 
ATOM     18  C   UNL     1      35.430 -21.232 -18.179  0.00  0.00    +0.040 C 
ATOM     19  C   UNL     1      33.454 -19.778 -20.684  0.00  0.00    +0.341 C 
ATOM     20  H   UNL     1      34.225 -18.775 -22.275  0.00  0.00    +0.148 HD
ATOM     21  H   UNL     1      32.522 -18.863 -22.241  0.00  0.00    +0.148 HD
ENDBRANCH   5  13
BRANCH   3  29
ATOM     22  O   UNL     1      26.332 -23.670 -16.820  0.00  0.00    -0.350 OA
ATOM     23  O   UNL     1      29.051 -21.183 -13.514  0.00  0.00    -0.268 OA
ATOM     24  N   UNL     1      27.973 -22.910 -14.659  0.00  0.00    -0.270 N 
ATOM     25  C   UNL     1      26.833 -22.087 -15.060  0.00  0.00    +0.126 C 
ATOM     26  C   UNL     1      27.871 -24.320 -15.058  0.00  0.00    +0.126 C 
ATOM     27  C   UNL     1      27.513 -24.424 -16.535  0.00  0.00    +0.164 C 
ATOM     28  C   UNL     1      26.531 -22.282 -16.538  0.00  0.00    +0.164 C 
ATOM     29  C   UNL     1      29.001 -22.350 -13.899  0.00  0.00    +0.265 C 
ENDBRANCH   3  29
TORSDOF 2
ENDMDL
MODEL 8
REMARK VINA RESULT:      -9.6      8.288     13.206
REMARK  Name = 70798655
REMARK  2 active torsions:
REMARK  status: ('A' for Active; 'I' for Inactive)
REMARK    1  A    between atoms: C_3  and  C_29
REMARK    2  A    between atoms: C_5  and  C_13
REMARK                            x       y       z     vdW  Elec       q    Type
REMARK                         _______ _______ _______ _____ _____    ______ ____
ROOT
ATOM      1  N   UNL     1      32.874 -13.557 -24.054  0.00  0.00    -0.245 N 
ATOM      2  N   UNL     1      32.441 -14.954 -25.746  0.00  0.00    -0.227 NA
ATOM      3  C   UNL     1      33.083 -14.826 -23.575  0.00  0.00    +0.130 C 
ATOM      4  C   UNL     1      32.484 -13.689 -25.382  0.00  0.00    +0.139 C 
ATOM      5  C   UNL     1      32.745 -11.190 -24.070  0.00  0.00    +0.012 C 
ATOM      6  C   UNL     1      33.005 -12.334 -23.402  0.00  0.00    +0.071 C 
ATOM      7  C   UNL     1      32.810 -15.663 -24.630  0.00  0.00    +0.120 C 
ATOM      8  C   UNL     1      32.211 -12.489 -26.095  0.00  0.00    +0.035 C 
ATOM      9  C   UNL     1      32.335 -11.300 -25.474  0.00  0.00    +0.004 C 
ENDROOT
BRANCH   5  13
ATOM     10  O   UNL     1      33.138  -6.356 -21.359  0.00  0.00    -0.414 OA
ATOM     11  N   UNL     1      31.303  -7.603 -20.891  0.00  0.00    -0.356 NA
ATOM     12  N   UNL     1      31.669  -5.476 -19.827  0.00  0.00    -0.302 N 
ATOM     13  C   UNL     1      32.894  -9.897 -23.375  0.00  0.00    -0.014 C 
ATOM     14  C   UNL     1      31.910  -9.491 -22.462  0.00  0.00    +0.089 C 
ATOM     15  C   UNL     1      34.015  -9.097 -23.638  0.00  0.00    -0.001 C 
ATOM     16  C   UNL     1      32.079  -8.257 -21.816  0.00  0.00    +0.152 C 
ATOM     17  C   UNL     1      33.203  -7.497 -22.106  0.00  0.00    +0.175 C 
ATOM     18  C   UNL     1      34.198  -7.865 -23.002  0.00  0.00    +0.040 C 
ATOM     19  C   UNL     1      31.975  -6.495 -20.661  0.00  0.00    +0.341 C 
ATOM     20  H   UNL     1      32.272  -4.700 -19.755  0.00  0.00    +0.148 HD
ATOM     21  H   UNL     1      30.844  -5.509 -19.291  0.00  0.00    +0.148 HD
ENDBRANCH   5  13
BRANCH   3  29
ATOM     22  O   UNL     1      34.556 -19.126 -21.365  0.00  0.00    -0.350 OA
ATOM     23  O   UNL     1      33.296 -14.339 -21.341  0.00  0.00    -0.268 OA
ATOM     24  N   UNL     1      34.115 -16.421 -22.015  0.00  0.00    -0.270 N 
ATOM     25  C   UNL     1      34.560 -16.806 -20.677  0.00  0.00    +0.126 C 
ATOM     26  C   UNL     1      34.436 -17.396 -23.064  0.00  0.00    +0.126 C 
ATOM     27  C   UNL     1      33.997 -18.792 -22.638  0.00  0.00    +0.164 C 
ATOM     28  C   UNL     1      34.104 -18.221 -20.354  0.00  0.00    +0.164 C 
ATOM     29  C   UNL     1      33.507 -15.180 -22.214  0.00  0.00    +0.265 C 
ENDBRANCH   3  29
TORSDOF 2
ENDMDL
MODEL 9
REMARK VINA RESULT:      -9.1      9.661     15.468
REMARK  Name = 70798655
REMARK  2 active torsions:
REMARK  status: ('A' for Active; 'I' for Inactive)
REMARK    1  A    between atoms: C_3  and  C_29
REMARK    2  A    between atoms: C_5  and  C_13
REMARK                            x       y       z     vdW  Elec       q    Type
REMARK                         _______ _______ _______ _____ _____    ______ ____
ROOT
ATOM      1  N   UNL     1      31.666  -9.516 -21.446  0.00  0.00    -0.245 N 
ATOM      2  N   UNL     1      30.506  -8.285 -19.982  0.00  0.00    -0.227 NA
ATOM      3  C   UNL     1      31.837  -8.206 -21.816  0.00  0.00    +0.130 C 
ATOM      4  C   UNL     1      30.847  -9.511 -20.323  0.00  0.00    +0.139 C 
ATOM      5  C   UNL     1      31.879 -11.877 -21.496  0.00  0.00    +0.012 C 
ATOM      6  C   UNL     1      32.178 -10.672 -22.028  0.00  0.00    +0.071 C 
ATOM      7  C   UNL     1      31.116  -7.472 -20.904  0.00  0.00    +0.120 C 
ATOM      8  C   UNL     1      30.528 -10.775 -19.753  0.00  0.00    +0.035 C 
ATOM      9  C   UNL     1      31.018 -11.901 -20.308  0.00  0.00    +0.004 C 
ENDROOT
BRANCH   5  13
ATOM     10  O   UNL     1      34.026 -16.528 -23.648  0.00  0.00    -0.414 OA
ATOM     11  N   UNL     1      34.343 -16.233 -21.423  0.00  0.00    -0.356 NA
ATOM     12  N   UNL     1      35.190 -18.180 -22.555  0.00  0.00    -0.302 N 
ATOM     13  C   UNL     1      32.431 -13.098 -22.114  0.00  0.00    -0.014 C 
ATOM     14  C   UNL     1      33.122 -14.020 -21.314  0.00  0.00    +0.089 C 
ATOM     15  C   UNL     1      32.255 -13.315 -23.487  0.00  0.00    -0.001 C 
ATOM     16  C   UNL     1      33.636 -15.171 -21.930  0.00  0.00    +0.152 C 
ATOM     17  C   UNL     1      33.440 -15.347 -23.292  0.00  0.00    +0.175 C 
ATOM     18  C   UNL     1      32.761 -14.458 -24.115  0.00  0.00    +0.040 C 
ATOM     19  C   UNL     1      34.542 -16.995 -22.476  0.00  0.00    +0.341 C 
ATOM     20  H   UNL     1      35.264 -18.644 -23.421  0.00  0.00    +0.148 HD
ATOM     21  H   UNL     1      35.589 -18.577 -21.748  0.00  0.00    +0.148 HD
ENDBRANCH   5  13
BRANCH   3  29
ATOM     22  O   UNL     1      30.705  -5.790 -26.109  0.00  0.00    -0.350 OA
ATOM     23  O   UNL     1      33.789  -8.130 -23.024  0.00  0.00    -0.268 OA
ATOM     24  N   UNL     1      32.024  -6.844 -23.854  0.00  0.00    -0.270 N 
ATOM     25  C   UNL     1      32.783  -6.333 -24.994  0.00  0.00    +0.126 C 
ATOM     26  C   UNL     1      30.667  -6.296 -23.735  0.00  0.00    +0.126 C 
ATOM     27  C   UNL     1      29.938  -6.401 -25.068  0.00  0.00    +0.164 C 
ATOM     28  C   UNL     1      31.964  -6.449 -26.271  0.00  0.00    +0.164 C 
ATOM     29  C   UNL     1      32.630  -7.722 -22.954  0.00  0.00    +0.265 C 
ENDBRANCH   3  29
TORSDOF 2
ENDMDL
