MODEL 1
REMARK VINA RESULT:     -11.2      0.000      0.000
REMARK  Name = 10050566
REMARK  9 active torsions:
REMARK  status: ('A' for Active; 'I' for Inactive)
REMARK    1  A    between atoms: C_2  and  N_11
REMARK    2  A    between atoms: C_3  and  O_22
REMARK    3  A    between atoms: C_12  and  C_14
REMARK    4  A    between atoms: C_19  and  O_20
REMARK    5  A    between atoms: O_22  and  C_24
REMARK    6  A    between atoms: C_24  and  C_25
REMARK    7  A    between atoms: C_30  and  C_32
REMARK    8  A    between atoms: C_32  and  C_33
REMARK    9  A    between atoms: C_34  and  O_39
REMARK                            x       y       z     vdW  Elec       q    Type
REMARK                         _______ _______ _______ _____ _____    ______ ____
ROOT
ATOM      1  N   UNL     1      31.338 -21.752 -13.639  0.00  0.00    +0.385 N 
ATOM      2  C   UNL     1      33.438 -22.731 -14.582  0.00  0.00    +0.091 C 
ATOM      3  C   UNL     1      32.720 -23.498 -15.706  0.00  0.00    +0.185 C 
ATOM      4  C   UNL     1      31.507 -24.338 -15.292  0.00  0.00    +0.043 C 
ATOM      5  C   UNL     1      32.608 -22.408 -13.334  0.00  0.00    -0.058 C 
ATOM      6  C   UNL     1      30.228 -23.547 -15.007  0.00  0.00    -0.020 C 
ATOM      7  C   UNL     1      30.243 -22.719 -13.727  0.00  0.00    -0.082 C 
ATOM      8  H   UNL     1      31.422 -21.264 -14.531  0.00  0.00    -0.084 HD
ATOM      9  H   UNL     1      31.127 -21.097 -12.886  0.00  0.00    -0.084 HD
ENDROOT
BRANCH   2  11
ATOM     10  O   UNL     1      36.139 -22.162 -15.364  0.00  0.00    -0.270 OA
ATOM     11  N   UNL     1      34.627 -23.456 -14.176  0.00  0.00    -0.301 N 
ATOM     12  C   UNL     1      35.889 -23.099 -14.612  0.00  0.00    +0.246 C 
ATOM     13  H   UNL     1      34.532 -24.228 -13.572  0.00  0.00    +0.150 HD
BRANCH  12  14
ATOM     14  C   UNL     1      37.001 -23.959 -14.128  0.00  0.00    +0.054 C 
ATOM     15  C   UNL     1      36.813 -24.709 -12.985  0.00  0.00    +0.008 C 
ATOM     16  C   UNL     1      38.184 -23.981 -14.836  0.00  0.00    +0.008 C 
ATOM     17  C   UNL     1      37.855 -25.516 -12.531  0.00  0.00    +0.037 C 
ATOM     18  C   UNL     1      39.226 -24.788 -14.382  0.00  0.00    +0.037 C 
ATOM     19  C   UNL     1      39.062 -25.556 -13.229  0.00  0.00    +0.134 C 
BRANCH  19  20
ATOM     20  O   UNL     1      40.079 -26.346 -12.787  0.00  0.00    -0.506 OA
ATOM     21  H   UNL     1      40.176 -27.215 -13.124  0.00  0.00    +0.292 HD
ENDBRANCH  19  20
ENDBRANCH  12  14
ENDBRANCH   2  11
BRANCH   3  22
ATOM     22  O   UNL     1      32.351 -22.583 -16.743  0.00  0.00    -0.448 OA
BRANCH  22  24
ATOM     23  O   UNL     1      32.678 -24.025 -18.506  0.00  0.00    -0.245 OA
ATOM     24  C   UNL     1      32.756 -22.920 -17.993  0.00  0.00    +0.341 C 
BRANCH  24  25
ATOM     25  C   UNL     1      33.328 -21.739 -18.685  0.00  0.00    +0.076 C 
ATOM     26  C   UNL     1      34.699 -21.572 -18.697  0.00  0.00    +0.007 C 
ATOM     27  C   UNL     1      32.474 -20.843 -19.295  0.00  0.00    +0.007 C 
ATOM     28  C   UNL     1      35.237 -20.461 -19.347  0.00  0.00    +0.003 C 
ATOM     29  C   UNL     1      33.012 -19.733 -19.945  0.00  0.00    +0.003 C 
ATOM     30  C   UNL     1      34.394 -19.541 -19.971  0.00  0.00    +0.039 C 
BRANCH  30  32
ATOM     31  O   UNL     1      35.979 -17.839 -20.211  0.00  0.00    -0.286 OA
ATOM     32  C   UNL     1      34.955 -18.384 -20.648  0.00  0.00    +0.198 C 
BRANCH  32  33
ATOM     33  C   UNL     1      34.339 -17.800 -21.879  0.00  0.00    +0.073 C 
ATOM     34  C   UNL     1      34.030 -16.460 -21.913  0.00  0.00    +0.137 C 
ATOM     35  C   UNL     1      34.107 -18.644 -22.941  0.00  0.00    +0.006 C 
ATOM     36  C   UNL     1      33.456 -15.936 -23.070  0.00  0.00    +0.037 C 
ATOM     37  C   UNL     1      33.534 -18.120 -24.100  0.00  0.00    +0.000 C 
ATOM     38  C   UNL     1      33.208 -16.766 -24.164  0.00  0.00    +0.003 C 
BRANCH  34  39
ATOM     39  O   UNL     1      34.264 -15.633 -20.855  0.00  0.00    -0.505 OA
ATOM     40  H   UNL     1      34.377 -14.713 -20.995  0.00  0.00    +0.292 HD
ENDBRANCH  34  39
ENDBRANCH  32  33
ENDBRANCH  30  32
ENDBRANCH  24  25
ENDBRANCH  22  24
ENDBRANCH   3  22
TORSDOF 9
ENDMDL
MODEL 2
REMARK VINA RESULT:     -10.2      7.312     14.340
REMARK  Name = 10050566
REMARK  9 active torsions:
REMARK  status: ('A' for Active; 'I' for Inactive)
REMARK    1  A    between atoms: C_2  and  N_11
REMARK    2  A    between atoms: C_3  and  O_22
REMARK    3  A    between atoms: C_12  and  C_14
REMARK    4  A    between atoms: C_19  and  O_20
REMARK    5  A    between atoms: O_22  and  C_24
REMARK    6  A    between atoms: C_24  and  C_25
REMARK    7  A    between atoms: C_30  and  C_32
REMARK    8  A    between atoms: C_32  and  C_33
REMARK    9  A    between atoms: C_34  and  O_39
REMARK                            x       y       z     vdW  Elec       q    Type
REMARK                         _______ _______ _______ _____ _____    ______ ____
ROOT
ATOM      1  N   UNL     1      35.160  -9.958 -24.699  0.00  0.00    +0.385 N 
ATOM      2  C   UNL     1      33.387  -9.489 -22.997  0.00  0.00    +0.091 C 
ATOM      3  C   UNL     1      32.645 -10.818 -23.225  0.00  0.00    +0.185 C 
ATOM      4  C   UNL     1      32.343 -11.190 -24.681  0.00  0.00    +0.043 C 
ATOM      5  C   UNL     1      34.228  -8.965 -24.166  0.00  0.00    -0.058 C 
ATOM      6  C   UNL     1      33.536 -11.710 -25.487  0.00  0.00    -0.020 C 
ATOM      7  C   UNL     1      34.588 -10.667 -25.844  0.00  0.00    -0.082 C 
ATOM      8  H   UNL     1      35.379 -10.634 -23.966  0.00  0.00    -0.084 HD
ATOM      9  H   UNL     1      36.002  -9.473 -25.009  0.00  0.00    -0.084 HD
ENDROOT
BRANCH   2  11
ATOM     10  O   UNL     1      34.005  -6.972 -21.766  0.00  0.00    -0.270 OA
ATOM     11  N   UNL     1      32.440  -8.462 -22.606  0.00  0.00    -0.301 N 
ATOM     12  C   UNL     1      32.842  -7.278 -22.017  0.00  0.00    +0.246 C 
ATOM     13  H   UNL     1      31.480  -8.613 -22.765  0.00  0.00    +0.150 HD
BRANCH  12  14
ATOM     14  C   UNL     1      31.749  -6.341 -21.651  0.00  0.00    +0.054 C 
ATOM     15  C   UNL     1      31.451  -6.155 -20.317  0.00  0.00    +0.008 C 
ATOM     16  C   UNL     1      31.066  -5.687 -22.655  0.00  0.00    +0.008 C 
ATOM     17  C   UNL     1      30.425  -5.275 -19.972  0.00  0.00    +0.037 C 
ATOM     18  C   UNL     1      30.041  -4.807 -22.311  0.00  0.00    +0.037 C 
ATOM     19  C   UNL     1      29.720  -4.601 -20.968  0.00  0.00    +0.134 C 
BRANCH  19  20
ATOM     20  O   UNL     1      28.720  -3.741 -20.633  0.00  0.00    -0.506 OA
ATOM     21  H   UNL     1      28.454  -3.075 -21.236  0.00  0.00    +0.292 HD
ENDBRANCH  19  20
ENDBRANCH  12  14
ENDBRANCH   2  11
BRANCH   3  22
ATOM     22  O   UNL     1      33.366 -11.878 -22.589  0.00  0.00    -0.448 OA
BRANCH  22  24
ATOM     23  O   UNL     1      31.654 -12.334 -21.120  0.00  0.00    -0.245 OA
ATOM     24  C   UNL     1      32.638 -12.669 -21.763  0.00  0.00    +0.341 C 
BRANCH  24  25
ATOM     25  C   UNL     1      33.203 -14.041 -21.731  0.00  0.00    +0.076 C 
ATOM     26  C   UNL     1      33.447 -14.690 -22.924  0.00  0.00    +0.007 C 
ATOM     27  C   UNL     1      33.467 -14.626 -20.509  0.00  0.00    +0.007 C 
ATOM     28  C   UNL     1      33.978 -15.980 -22.894  0.00  0.00    +0.003 C 
ATOM     29  C   UNL     1      33.997 -15.915 -20.478  0.00  0.00    +0.003 C 
ATOM     30  C   UNL     1      34.253 -16.593 -21.672  0.00  0.00    +0.039 C 
BRANCH  30  32
ATOM     31  O   UNL     1      35.727 -18.252 -22.407  0.00  0.00    -0.286 OA
ATOM     32  C   UNL     1      34.806 -17.937 -21.640  0.00  0.00    +0.198 C 
BRANCH  32  33
ATOM     33  C   UNL     1      34.303 -18.987 -20.703  0.00  0.00    +0.073 C 
ATOM     34  C   UNL     1      35.177 -19.596 -19.833  0.00  0.00    +0.137 C 
ATOM     35  C   UNL     1      32.963 -19.302 -20.754  0.00  0.00    +0.006 C 
ATOM     36  C   UNL     1      34.688 -20.573 -18.967  0.00  0.00    +0.037 C 
ATOM     37  C   UNL     1      32.473 -20.279 -19.887  0.00  0.00    +0.000 C 
ATOM     38  C   UNL     1      33.336 -20.915 -18.995  0.00  0.00    +0.003 C 
BRANCH  34  39
ATOM     39  O   UNL     1      36.502 -19.276 -19.791  0.00  0.00    -0.505 OA
ATOM     40  H   UNL     1      36.908 -18.864 -20.529  0.00  0.00    +0.292 HD
ENDBRANCH  34  39
ENDBRANCH  32  33
ENDBRANCH  30  32
ENDBRANCH  24  25
ENDBRANCH  22  24
ENDBRANCH   3  22
TORSDOF 9
ENDMDL
MODEL 3
REMARK VINA RESULT:     -10.0      6.549     13.572
REMARK  Name = 10050566
REMARK  9 active torsions:
REMARK  status: ('A' for Active; 'I' for Inactive)
REMARK    1  A    between atoms: C_2  and  N_11
REMARK    2  A    between atoms: C_3  and  O_22
REMARK    3  A    between atoms: C_12  and  C_14
REMARK    4  A    between atoms: C_19  and  O_20
REMARK    5  A    between atoms: O_22  and  C_24
REMARK    6  A    between atoms: C_24  and  C_25
REMARK    7  A    between atoms: C_30  and  C_32
REMARK    8  A    between atoms: C_32  and  C_33
REMARK    9  A    between atoms: C_34  and  O_39
REMARK                            x       y       z     vdW  Elec       q    Type
REMARK                         _______ _______ _______ _____ _____    ______ ____
ROOT
ATOM      1  N   UNL     1      33.484 -12.223 -25.774  0.00  0.00    +0.385 N 
ATOM      2  C   UNL     1      33.288 -10.937 -23.637  0.00  0.00    +0.091 C 
ATOM      3  C   UNL     1      32.780 -12.137 -22.819  0.00  0.00    +0.185 C 
ATOM      4  C   UNL     1      31.628 -12.942 -23.431  0.00  0.00    +0.043 C 
ATOM      5  C   UNL     1      33.034 -10.980 -25.148  0.00  0.00    -0.058 C 
ATOM      6  C   UNL     1      32.018 -13.879 -24.577  0.00  0.00    -0.020 C 
ATOM      7  C   UNL     1      32.394 -13.192 -25.885  0.00  0.00    -0.082 C 
ATOM      8  H   UNL     1      34.231 -12.628 -25.209  0.00  0.00    -0.084 HD
ATOM      9  H   UNL     1      33.817 -12.006 -26.713  0.00  0.00    -0.084 HD
ENDROOT
BRANCH   2  11
ATOM     10  O   UNL     1      34.677  -8.461 -23.216  0.00  0.00    -0.270 OA
ATOM     11  N   UNL     1      32.727  -9.710 -23.105  0.00  0.00    -0.301 N 
ATOM     12  C   UNL     1      33.485  -8.566 -22.941  0.00  0.00    +0.246 C 
ATOM     13  H   UNL     1      31.776  -9.691 -22.852  0.00  0.00    +0.150 HD
BRANCH  12  14
ATOM     14  C   UNL     1      32.769  -7.401 -22.358  0.00  0.00    +0.054 C 
ATOM     15  C   UNL     1      32.635  -6.256 -23.116  0.00  0.00    +0.008 C 
ATOM     16  C   UNL     1      32.262  -7.500 -21.079  0.00  0.00    +0.008 C 
ATOM     17  C   UNL     1      31.963  -5.162 -22.571  0.00  0.00    +0.037 C 
ATOM     18  C   UNL     1      31.590  -6.407 -20.534  0.00  0.00    +0.037 C 
ATOM     19  C   UNL     1      31.441  -5.238 -21.280  0.00  0.00    +0.134 C 
BRANCH  19  20
ATOM     20  O   UNL     1      30.783  -4.172 -20.748  0.00  0.00    -0.506 OA
ATOM     21  H   UNL     1      30.020  -4.308 -20.221  0.00  0.00    +0.292 HD
ENDBRANCH  19  20
ENDBRANCH  12  14
ENDBRANCH   2  11
BRANCH   3  22
ATOM     22  O   UNL     1      33.878 -13.005 -22.520  0.00  0.00    -0.448 OA
BRANCH  22  24
ATOM     23  O   UNL     1      33.868 -12.887 -20.222  0.00  0.00    -0.245 OA
ATOM     24  C   UNL     1      33.893 -13.521 -21.266  0.00  0.00    +0.341 C 
BRANCH  24  25
ATOM     25  C   UNL     1      33.948 -15.003 -21.318  0.00  0.00    +0.076 C 
ATOM     26  C   UNL     1      34.056 -15.624 -22.546  0.00  0.00    +0.007 C 
ATOM     27  C   UNL     1      33.888 -15.715 -20.137  0.00  0.00    +0.007 C 
ATOM     28  C   UNL     1      34.106 -17.017 -22.594  0.00  0.00    +0.003 C 
ATOM     29  C   UNL     1      33.938 -17.107 -20.186  0.00  0.00    +0.003 C 
ATOM     30  C   UNL     1      34.048 -17.759 -21.415  0.00  0.00    +0.039 C 
BRANCH  30  32
ATOM     31  O   UNL     1      34.168 -19.797 -22.557  0.00  0.00    -0.286 OA
ATOM     32  C   UNL     1      34.100 -19.211 -21.466  0.00  0.00    +0.198 C 
BRANCH  32  33
ATOM     33  C   UNL     1      34.074 -20.057 -20.234  0.00  0.00    +0.073 C 
ATOM     34  C   UNL     1      32.867 -20.474 -19.722  0.00  0.00    +0.137 C 
ATOM     35  C   UNL     1      35.280 -20.386 -19.657  0.00  0.00    +0.006 C 
ATOM     36  C   UNL     1      32.865 -21.262 -18.573  0.00  0.00    +0.037 C 
ATOM     37  C   UNL     1      35.278 -21.175 -18.507  0.00  0.00    +0.000 C 
ATOM     38  C   UNL     1      34.070 -21.613 -17.965  0.00  0.00    +0.003 C 
BRANCH  34  39
ATOM     39  O   UNL     1      31.679 -20.142 -20.302  0.00  0.00    -0.505 OA
ATOM     40  H   UNL     1      31.576 -20.204 -21.232  0.00  0.00    +0.292 HD
ENDBRANCH  34  39
ENDBRANCH  32  33
ENDBRANCH  30  32
ENDBRANCH  24  25
ENDBRANCH  22  24
ENDBRANCH   3  22
TORSDOF 9
ENDMDL
MODEL 4
REMARK VINA RESULT:      -9.5      1.473      2.230
REMARK  Name = 10050566
REMARK  9 active torsions:
REMARK  status: ('A' for Active; 'I' for Inactive)
REMARK    1  A    between atoms: C_2  and  N_11
REMARK    2  A    between atoms: C_3  and  O_22
REMARK    3  A    between atoms: C_12  and  C_14
REMARK    4  A    between atoms: C_19  and  O_20
REMARK    5  A    between atoms: O_22  and  C_24
REMARK    6  A    between atoms: C_24  and  C_25
REMARK    7  A    between atoms: C_30  and  C_32
REMARK    8  A    between atoms: C_32  and  C_33
REMARK    9  A    between atoms: C_34  and  O_39
REMARK                            x       y       z     vdW  Elec       q    Type
REMARK                         _______ _______ _______ _____ _____    ______ ____
ROOT
ATOM      1  N   UNL     1      31.974 -21.927 -14.444  0.00  0.00    +0.385 N 
ATOM      2  C   UNL     1      34.263 -22.659 -15.137  0.00  0.00    +0.091 C 
ATOM      3  C   UNL     1      33.848 -23.009 -16.578  0.00  0.00    +0.185 C 
ATOM      4  C   UNL     1      32.598 -23.881 -16.734  0.00  0.00    +0.043 C 
ATOM      5  C   UNL     1      33.159 -22.701 -14.077  0.00  0.00    -0.058 C 
ATOM      6  C   UNL     1      31.264 -23.162 -16.518  0.00  0.00    -0.020 C 
ATOM      7  C   UNL     1      30.959 -22.771 -15.076  0.00  0.00    -0.082 C 
ATOM      8  H   UNL     1      32.247 -21.192 -15.097  0.00  0.00    -0.084 HD
ATOM      9  H   UNL     1      31.575 -21.528 -13.595  0.00  0.00    -0.084 HD
ENDROOT
BRANCH   2  11
ATOM     10  O   UNL     1      36.847 -21.835 -14.200  0.00  0.00    -0.270 OA
ATOM     11  N   UNL     1      35.348 -23.525 -14.717  0.00  0.00    -0.301 N 
ATOM     12  C   UNL     1      36.560 -23.026 -14.279  0.00  0.00    +0.246 C 
ATOM     13  H   UNL     1      35.217 -24.501 -14.744  0.00  0.00    +0.150 HD
BRANCH  12  14
ATOM     14  C   UNL     1      37.577 -24.045 -13.910  0.00  0.00    +0.054 C 
ATOM     15  C   UNL     1      37.449 -24.705 -12.705  0.00  0.00    +0.008 C 
ATOM     16  C   UNL     1      38.616 -24.297 -14.781  0.00  0.00    +0.008 C 
ATOM     17  C   UNL     1      38.403 -25.662 -12.357  0.00  0.00    +0.037 C 
ATOM     18  C   UNL     1      39.569 -25.253 -14.434  0.00  0.00    +0.037 C 
ATOM     19  C   UNL     1      39.463 -25.936 -13.221  0.00  0.00    +0.134 C 
BRANCH  19  20
ATOM     20  O   UNL     1      40.393 -26.870 -12.884  0.00  0.00    -0.506 OA
ATOM     21  H   UNL     1      40.821 -26.825 -12.051  0.00  0.00    +0.292 HD
ENDBRANCH  19  20
ENDBRANCH  12  14
ENDBRANCH   2  11
BRANCH   3  22
ATOM     22  O   UNL     1      33.701 -21.803 -17.334  0.00  0.00    -0.448 OA
BRANCH  22  24
ATOM     23  O   UNL     1      35.969 -21.412 -17.333  0.00  0.00    -0.245 OA
ATOM     24  C   UNL     1      34.853 -21.264 -17.806  0.00  0.00    +0.341 C 
BRANCH  24  25
ATOM     25  C   UNL     1      34.581 -20.437 -19.008  0.00  0.00    +0.076 C 
ATOM     26  C   UNL     1      33.294 -20.385 -19.504  0.00  0.00    +0.007 C 
ATOM     27  C   UNL     1      35.623 -19.748 -19.594  0.00  0.00    +0.007 C 
ATOM     28  C   UNL     1      33.038 -19.609 -20.635  0.00  0.00    +0.003 C 
ATOM     29  C   UNL     1      35.367 -18.972 -20.724  0.00  0.00    +0.003 C 
ATOM     30  C   UNL     1      34.074 -18.902 -21.246  0.00  0.00    +0.039 C 
BRANCH  30  32
ATOM     31  O   UNL     1      33.591 -18.636 -23.518  0.00  0.00    -0.286 OA
ATOM     32  C   UNL     1      33.808 -18.094 -22.424  0.00  0.00    +0.198 C 
BRANCH  32  33
ATOM     33  C   UNL     1      33.784 -16.601 -22.382  0.00  0.00    +0.073 C 
ATOM     34  C   UNL     1      33.780 -15.888 -23.559  0.00  0.00    +0.137 C 
ATOM     35  C   UNL     1      33.767 -15.995 -21.146  0.00  0.00    +0.006 C 
ATOM     36  C   UNL     1      33.757 -14.496 -23.498  0.00  0.00    +0.037 C 
ATOM     37  C   UNL     1      33.743 -14.602 -21.084  0.00  0.00    +0.000 C 
ATOM     38  C   UNL     1      33.739 -13.852 -22.260  0.00  0.00    +0.003 C 
BRANCH  34  39
ATOM     39  O   UNL     1      33.797 -16.498 -24.778  0.00  0.00    -0.505 OA
ATOM     40  H   UNL     1      33.652 -15.997 -25.556  0.00  0.00    +0.292 HD
ENDBRANCH  34  39
ENDBRANCH  32  33
ENDBRANCH  30  32
ENDBRANCH  24  25
ENDBRANCH  22  24
ENDBRANCH   3  22
TORSDOF 9
ENDMDL
MODEL 5
REMARK VINA RESULT:      -9.5      9.464     16.802
REMARK  Name = 10050566
REMARK  9 active torsions:
REMARK  status: ('A' for Active; 'I' for Inactive)
REMARK    1  A    between atoms: C_2  and  N_11
REMARK    2  A    between atoms: C_3  and  O_22
REMARK    3  A    between atoms: C_12  and  C_14
REMARK    4  A    between atoms: C_19  and  O_20
REMARK    5  A    between atoms: O_22  and  C_24
REMARK    6  A    between atoms: C_24  and  C_25
REMARK    7  A    between atoms: C_30  and  C_32
REMARK    8  A    between atoms: C_32  and  C_33
REMARK    9  A    between atoms: C_34  and  O_39
REMARK                            x       y       z     vdW  Elec       q    Type
REMARK                         _______ _______ _______ _____ _____    ______ ____
ROOT
ATOM      1  N   UNL     1      30.102  -7.131 -21.141  0.00  0.00    +0.385 N 
ATOM      2  C   UNL     1      30.899  -7.005 -23.509  0.00  0.00    +0.091 C 
ATOM      3  C   UNL     1      32.352  -7.382 -23.169  0.00  0.00    +0.185 C 
ATOM      4  C   UNL     1      33.003  -6.612 -22.015  0.00  0.00    +0.043 C 
ATOM      5  C   UNL     1      30.076  -6.364 -22.387  0.00  0.00    -0.058 C 
ATOM      6  C   UNL     1      32.559  -7.032 -20.612  0.00  0.00    -0.020 C 
ATOM      7  C   UNL     1      31.136  -6.638 -20.231  0.00  0.00    -0.082 C 
ATOM      8  H   UNL     1      30.290  -8.110 -21.358  0.00  0.00    -0.084 HD
ATOM      9  H   UNL     1      29.197  -7.028 -20.683  0.00  0.00    -0.084 HD
ENDROOT
BRANCH   2  11
ATOM     10  O   UNL     1      30.603  -7.787 -26.254  0.00  0.00    -0.270 OA
ATOM     11  N   UNL     1      30.880  -6.125 -24.663  0.00  0.00    -0.301 N 
ATOM     12  C   UNL     1      30.731  -6.604 -25.950  0.00  0.00    +0.246 C 
ATOM     13  H   UNL     1      30.976  -5.155 -24.524  0.00  0.00    +0.150 HD
BRANCH  12  14
ATOM     14  C   UNL     1      30.759  -5.577 -27.023  0.00  0.00    +0.054 C 
ATOM     15  C   UNL     1      30.424  -4.276 -26.708  0.00  0.00    +0.008 C 
ATOM     16  C   UNL     1      31.117  -5.956 -28.300  0.00  0.00    +0.008 C 
ATOM     17  C   UNL     1      30.450  -3.311 -27.715  0.00  0.00    +0.037 C 
ATOM     18  C   UNL     1      31.143  -4.991 -29.307  0.00  0.00    +0.037 C 
ATOM     19  C   UNL     1      30.810  -3.668 -29.014  0.00  0.00    +0.134 C 
BRANCH  19  20
ATOM     20  O   UNL     1      30.837  -2.727 -29.996  0.00  0.00    -0.506 OA
ATOM     21  H   UNL     1      30.884  -2.990 -30.895  0.00  0.00    +0.292 HD
ENDBRANCH  19  20
ENDBRANCH  12  14
ENDBRANCH   2  11
BRANCH   3  22
ATOM     22  O   UNL     1      32.431  -8.789 -22.924  0.00  0.00    -0.448 OA
BRANCH  22  24
ATOM     23  O   UNL     1      34.695  -8.892 -23.326  0.00  0.00    -0.245 OA
ATOM     24  C   UNL     1      33.579  -9.390 -23.325  0.00  0.00    +0.341 C 
BRANCH  24  25
ATOM     25  C   UNL     1      33.305 -10.775 -23.780  0.00  0.00    +0.076 C 
ATOM     26  C   UNL     1      33.294 -11.042 -25.134  0.00  0.00    +0.007 C 
ATOM     27  C   UNL     1      33.068 -11.754 -22.836  0.00  0.00    +0.007 C 
ATOM     28  C   UNL     1      33.035 -12.345 -25.563  0.00  0.00    +0.003 C 
ATOM     29  C   UNL     1      32.810 -13.056 -23.264  0.00  0.00    +0.003 C 
ATOM     30  C   UNL     1      32.793 -13.352 -24.628  0.00  0.00    +0.039 C 
BRANCH  30  32
ATOM     31  O   UNL     1      31.871 -14.908 -26.109  0.00  0.00    -0.286 OA
ATOM     32  C   UNL     1      32.523 -14.709 -25.074  0.00  0.00    +0.198 C 
BRANCH  32  33
ATOM     33  C   UNL     1      33.006 -15.908 -24.325  0.00  0.00    +0.073 C 
ATOM     34  C   UNL     1      32.296 -17.085 -24.397  0.00  0.00    +0.137 C 
ATOM     35  C   UNL     1      34.160 -15.781 -23.586  0.00  0.00    +0.006 C 
ATOM     36  C   UNL     1      32.763 -18.192 -23.691  0.00  0.00    +0.037 C 
ATOM     37  C   UNL     1      34.628 -16.888 -22.880  0.00  0.00    +0.000 C 
ATOM     38  C   UNL     1      33.929 -18.094 -22.932  0.00  0.00    +0.003 C 
BRANCH  34  39
ATOM     39  O   UNL     1      31.154 -17.200 -25.133  0.00  0.00    -0.505 OA
ATOM     40  H   UNL     1      31.066 -16.729 -25.939  0.00  0.00    +0.292 HD
ENDBRANCH  34  39
ENDBRANCH  32  33
ENDBRANCH  30  32
ENDBRANCH  24  25
ENDBRANCH  22  24
ENDBRANCH   3  22
TORSDOF 9
ENDMDL
MODEL 6
REMARK VINA RESULT:      -9.4      6.020     13.058
REMARK  Name = 10050566
REMARK  9 active torsions:
REMARK  status: ('A' for Active; 'I' for Inactive)
REMARK    1  A    between atoms: C_2  and  N_11
REMARK    2  A    between atoms: C_3  and  O_22
REMARK    3  A    between atoms: C_12  and  C_14
REMARK    4  A    between atoms: C_19  and  O_20
REMARK    5  A    between atoms: O_22  and  C_24
REMARK    6  A    between atoms: C_24  and  C_25
REMARK    7  A    between atoms: C_30  and  C_32
REMARK    8  A    between atoms: C_32  and  C_33
REMARK    9  A    between atoms: C_34  and  O_39
REMARK                            x       y       z     vdW  Elec       q    Type
REMARK                         _______ _______ _______ _____ _____    ______ ____
ROOT
ATOM      1  N   UNL     1      30.490 -12.366 -20.530  0.00  0.00    +0.385 N 
ATOM      2  C   UNL     1      31.842 -11.561 -22.475  0.00  0.00    +0.091 C 
ATOM      3  C   UNL     1      32.886 -12.688 -22.371  0.00  0.00    +0.185 C 
ATOM      4  C   UNL     1      33.475 -12.946 -20.979  0.00  0.00    +0.043 C 
ATOM      5  C   UNL     1      31.088 -11.206 -21.189  0.00  0.00    -0.058 C 
ATOM      6  C   UNL     1      32.560 -13.695 -20.008  0.00  0.00    -0.020 C 
ATOM      7  C   UNL     1      31.367 -12.901 -19.488  0.00  0.00    -0.082 C 
ATOM      8  H   UNL     1      30.320 -13.092 -21.226  0.00  0.00    -0.084 HD
ATOM      9  H   UNL     1      29.616 -12.071 -20.093  0.00  0.00    -0.084 HD
ENDROOT
BRANCH   2  11
ATOM     10  O   UNL     1      30.935  -8.863 -22.114  0.00  0.00    -0.270 OA
ATOM     11  N   UNL     1      32.469 -10.361 -22.996  0.00  0.00    -0.301 N 
ATOM     12  C   UNL     1      31.949  -9.102 -22.764  0.00  0.00    +0.246 C 
ATOM     13  H   UNL     1      33.290 -10.446 -23.532  0.00  0.00    +0.150 HD
BRANCH  12  14
ATOM     14  C   UNL     1      32.693  -7.977 -23.388  0.00  0.00    +0.054 C 
ATOM     15  C   UNL     1      32.399  -7.627 -24.690  0.00  0.00    +0.008 C 
ATOM     16  C   UNL     1      33.653  -7.319 -22.649  0.00  0.00    +0.008 C 
ATOM     17  C   UNL     1      33.096  -6.571 -25.277  0.00  0.00    +0.037 C 
ATOM     18  C   UNL     1      34.350  -6.263 -23.235  0.00  0.00    +0.037 C 
ATOM     19  C   UNL     1      34.071  -5.889 -24.550  0.00  0.00    +0.134 C 
BRANCH  19  20
ATOM     20  O   UNL     1      34.750  -4.858 -25.122  0.00  0.00    -0.506 OA
ATOM     21  H   UNL     1      34.294  -4.235 -25.654  0.00  0.00    +0.292 HD
ENDBRANCH  19  20
ENDBRANCH  12  14
ENDBRANCH   2  11
BRANCH   3  22
ATOM     22  O   UNL     1      32.333 -13.897 -22.899  0.00  0.00    -0.448 OA
BRANCH  22  24
ATOM     23  O   UNL     1      33.501 -14.440 -24.806  0.00  0.00    -0.245 OA
ATOM     24  C   UNL     1      33.177 -14.649 -23.647  0.00  0.00    +0.341 C 
BRANCH  24  25
ATOM     25  C   UNL     1      33.677 -15.803 -22.858  0.00  0.00    +0.076 C 
ATOM     26  C   UNL     1      33.749 -17.042 -23.462  0.00  0.00    +0.007 C 
ATOM     27  C   UNL     1      34.051 -15.602 -21.546  0.00  0.00    +0.007 C 
ATOM     28  C   UNL     1      34.218 -18.127 -22.720  0.00  0.00    +0.003 C 
ATOM     29  C   UNL     1      34.520 -16.686 -20.804  0.00  0.00    +0.003 C 
ATOM     30  C   UNL     1      34.603 -17.949 -21.391  0.00  0.00    +0.039 C 
BRANCH  30  32
ATOM     31  O   UNL     1      36.305 -19.325 -20.567  0.00  0.00    -0.286 OA
ATOM     32  C   UNL     1      35.091 -19.080 -20.618  0.00  0.00    +0.198 C 
BRANCH  32  33
ATOM     33  C   UNL     1      34.175 -19.986 -19.861  0.00  0.00    +0.073 C 
ATOM     34  C   UNL     1      34.704 -20.927 -19.007  0.00  0.00    +0.137 C 
ATOM     35  C   UNL     1      32.821 -19.836 -20.055  0.00  0.00    +0.006 C 
ATOM     36  C   UNL     1      33.833 -21.762 -18.310  0.00  0.00    +0.037 C 
ATOM     37  C   UNL     1      31.948 -20.671 -19.357  0.00  0.00    +0.000 C 
ATOM     38  C   UNL     1      32.455 -21.635 -18.486  0.00  0.00    +0.003 C 
BRANCH  34  39
ATOM     39  O   UNL     1      36.047 -21.067 -18.823  0.00  0.00    -0.505 OA
ATOM     40  H   UNL     1      36.530 -20.405 -18.365  0.00  0.00    +0.292 HD
ENDBRANCH  34  39
ENDBRANCH  32  33
ENDBRANCH  30  32
ENDBRANCH  24  25
ENDBRANCH  22  24
ENDBRANCH   3  22
TORSDOF 9
ENDMDL
MODEL 7
REMARK VINA RESULT:      -9.3     11.359     16.736
REMARK  Name = 10050566
REMARK  9 active torsions:
REMARK  status: ('A' for Active; 'I' for Inactive)
REMARK    1  A    between atoms: C_2  and  N_11
REMARK    2  A    between atoms: C_3  and  O_22
REMARK    3  A    between atoms: C_12  and  C_14
REMARK    4  A    between atoms: C_19  and  O_20
REMARK    5  A    between atoms: O_22  and  C_24
REMARK    6  A    between atoms: C_24  and  C_25
REMARK    7  A    between atoms: C_30  and  C_32
REMARK    8  A    between atoms: C_32  and  C_33
REMARK    9  A    between atoms: C_34  and  O_39
REMARK                            x       y       z     vdW  Elec       q    Type
REMARK                         _______ _______ _______ _____ _____    ______ ____
ROOT
ATOM      1  N   UNL     1      32.679  -6.442 -21.224  0.00  0.00    +0.385 N 
ATOM      2  C   UNL     1      32.377  -8.061 -23.107  0.00  0.00    +0.091 C 
ATOM      3  C   UNL     1      31.153  -7.336 -23.695  0.00  0.00    +0.185 C 
ATOM      4  C   UNL     1      30.039  -6.969 -22.708  0.00  0.00    +0.043 C 
ATOM      5  C   UNL     1      32.646  -7.851 -21.613  0.00  0.00    -0.058 C 
ATOM      6  C   UNL     1      30.329  -5.764 -21.809  0.00  0.00    -0.020 C 
ATOM      7  C   UNL     1      31.378  -5.993 -20.727  0.00  0.00    -0.082 C 
ATOM      8  H   UNL     1      32.937  -5.880 -22.035  0.00  0.00    -0.084 HD
ATOM      9  H   UNL     1      33.363  -6.333 -20.475  0.00  0.00    -0.084 HD
ENDROOT
BRANCH   2  11
ATOM     10  O   UNL     1      34.359  -9.719 -24.354  0.00  0.00    -0.270 OA
ATOM     11  N   UNL     1      32.274  -9.484 -23.368  0.00  0.00    -0.301 N 
ATOM     12  C   UNL     1      33.291 -10.194 -23.977  0.00  0.00    +0.246 C 
ATOM     13  H   UNL     1      31.454  -9.959 -23.103  0.00  0.00    +0.150 HD
BRANCH  12  14
ATOM     14  C   UNL     1      33.021 -11.639 -24.198  0.00  0.00    +0.054 C 
ATOM     15  C   UNL     1      32.724 -12.073 -25.473  0.00  0.00    +0.008 C 
ATOM     16  C   UNL     1      33.075 -12.500 -23.122  0.00  0.00    +0.008 C 
ATOM     17  C   UNL     1      32.470 -13.428 -25.682  0.00  0.00    +0.037 C 
ATOM     18  C   UNL     1      32.822 -13.855 -23.330  0.00  0.00    +0.037 C 
ATOM     19  C   UNL     1      32.519 -14.319 -24.610  0.00  0.00    +0.134 C 
BRANCH  19  20
ATOM     20  O   UNL     1      32.274 -15.642 -24.813  0.00  0.00    -0.506 OA
ATOM     21  H   UNL     1      32.987 -16.251 -24.847  0.00  0.00    +0.292 HD
ENDBRANCH  19  20
ENDBRANCH  12  14
ENDBRANCH   2  11
BRANCH   3  22
ATOM     22  O   UNL     1      31.586  -6.169 -24.399  0.00  0.00    -0.448 OA
BRANCH  22  24
ATOM     23  O   UNL     1      30.847  -6.830 -26.476  0.00  0.00    -0.245 OA
ATOM     24  C   UNL     1      31.667  -6.294 -25.747  0.00  0.00    +0.341 C 
BRANCH  24  25
ATOM     25  C   UNL     1      32.923  -5.681 -26.248  0.00  0.00    +0.076 C 
ATOM     26  C   UNL     1      33.094  -5.527 -27.609  0.00  0.00    +0.007 C 
ATOM     27  C   UNL     1      33.882  -5.285 -25.337  0.00  0.00    +0.007 C 
ATOM     28  C   UNL     1      34.275  -4.952 -28.079  0.00  0.00    +0.003 C 
ATOM     29  C   UNL     1      35.062  -4.710 -25.807  0.00  0.00    +0.003 C 
ATOM     30  C   UNL     1      35.259  -4.543 -27.179  0.00  0.00    +0.039 C 
BRANCH  30  32
ATOM     31  O   UNL     1      36.535  -2.731 -27.926  0.00  0.00    -0.286 OA
ATOM     32  C   UNL     1      36.489  -3.944 -27.669  0.00  0.00    +0.198 C 
BRANCH  32  33
ATOM     33  C   UNL     1      37.735  -4.739 -27.886  0.00  0.00    +0.073 C 
ATOM     34  C   UNL     1      38.886  -4.395 -27.214  0.00  0.00    +0.137 C 
ATOM     35  C   UNL     1      37.675  -5.799 -28.763  0.00  0.00    +0.006 C 
ATOM     36  C   UNL     1      40.037  -5.150 -27.431  0.00  0.00    +0.037 C 
ATOM     37  C   UNL     1      38.826  -6.555 -28.980  0.00  0.00    +0.000 C 
ATOM     38  C   UNL     1      40.008  -6.230 -28.314  0.00  0.00    +0.003 C 
BRANCH  34  39
ATOM     39  O   UNL     1      38.935  -3.344 -26.348  0.00  0.00    -0.505 OA
ATOM     40  H   UNL     1      39.413  -2.571 -26.575  0.00  0.00    +0.292 HD
ENDBRANCH  34  39
ENDBRANCH  32  33
ENDBRANCH  30  32
ENDBRANCH  24  25
ENDBRANCH  22  24
ENDBRANCH   3  22
TORSDOF 9
ENDMDL
MODEL 8
REMARK VINA RESULT:      -9.2      7.442     11.939
REMARK  Name = 10050566
REMARK  9 active torsions:
REMARK  status: ('A' for Active; 'I' for Inactive)
REMARK    1  A    between atoms: C_2  and  N_11
REMARK    2  A    between atoms: C_3  and  O_22
REMARK    3  A    between atoms: C_12  and  C_14
REMARK    4  A    between atoms: C_19  and  O_20
REMARK    5  A    between atoms: O_22  and  C_24
REMARK    6  A    between atoms: C_24  and  C_25
REMARK    7  A    between atoms: C_30  and  C_32
REMARK    8  A    between atoms: C_32  and  C_33
REMARK    9  A    between atoms: C_34  and  O_39
REMARK                            x       y       z     vdW  Elec       q    Type
REMARK                         _______ _______ _______ _____ _____    ______ ____
ROOT
ATOM      1  N   UNL     1      32.399 -13.653 -25.118  0.00  0.00    +0.385 N 
ATOM      2  C   UNL     1      32.625 -14.639 -22.830  0.00  0.00    +0.091 C 
ATOM      3  C   UNL     1      32.777 -13.279 -22.127  0.00  0.00    +0.185 C 
ATOM      4  C   UNL     1      33.795 -12.307 -22.734  0.00  0.00    +0.043 C 
ATOM      5  C   UNL     1      33.028 -14.695 -24.307  0.00  0.00    -0.058 C 
ATOM      6  C   UNL     1      33.346 -11.601 -24.015  0.00  0.00    -0.020 C 
ATOM      7  C   UNL     1      33.268 -12.484 -25.255  0.00  0.00    -0.082 C 
ATOM      8  H   UNL     1      31.526 -13.368 -24.673  0.00  0.00    -0.084 HD
ATOM      9  H   UNL     1      32.225 -14.033 -26.049  0.00  0.00    -0.084 HD
ENDROOT
BRANCH   2  11
ATOM     10  O   UNL     1      32.961 -17.387 -23.585  0.00  0.00    -0.270 OA
ATOM     11  N   UNL     1      33.370 -15.651 -22.104  0.00  0.00    -0.301 N 
ATOM     12  C   UNL     1      33.471 -16.953 -22.556  0.00  0.00    +0.246 C 
ATOM     13  H   UNL     1      33.817 -15.402 -21.263  0.00  0.00    +0.150 HD
BRANCH  12  14
ATOM     14  C   UNL     1      34.246 -17.874 -21.685  0.00  0.00    +0.054 C 
ATOM     15  C   UNL     1      33.589 -18.923 -21.075  0.00  0.00    +0.008 C 
ATOM     16  C   UNL     1      35.596 -17.652 -21.512  0.00  0.00    +0.008 C 
ATOM     17  C   UNL     1      34.315 -19.789 -20.257  0.00  0.00    +0.037 C 
ATOM     18  C   UNL     1      36.323 -18.518 -20.695  0.00  0.00    +0.037 C 
ATOM     19  C   UNL     1      35.682 -19.586 -20.068  0.00  0.00    +0.134 C 
BRANCH  19  20
ATOM     20  O   UNL     1      36.392 -20.432 -19.272  0.00  0.00    -0.506 OA
ATOM     21  H   UNL     1      35.976 -20.846 -18.541  0.00  0.00    +0.292 HD
ENDBRANCH  19  20
ENDBRANCH  12  14
ENDBRANCH   2  11
BRANCH   3  22
ATOM     22  O   UNL     1      31.496 -12.648 -22.032  0.00  0.00    -0.448 OA
BRANCH  22  24
ATOM     23  O   UNL     1      30.785 -13.151 -19.902  0.00  0.00    -0.245 OA
ATOM     24  C   UNL     1      31.081 -12.351 -20.776  0.00  0.00    +0.341 C 
BRANCH  24  25
ATOM     25  C   UNL     1      31.026 -10.880 -20.585  0.00  0.00    +0.076 C 
ATOM     26  C   UNL     1      31.151 -10.060 -21.689  0.00  0.00    +0.007 C 
ATOM     27  C   UNL     1      30.854 -10.377 -19.312  0.00  0.00    +0.007 C 
ATOM     28  C   UNL     1      31.101  -8.677 -21.509  0.00  0.00    +0.003 C 
ATOM     29  C   UNL     1      30.804  -8.995 -19.133  0.00  0.00    +0.003 C 
ATOM     30  C   UNL     1      30.927  -8.144 -20.232  0.00  0.00    +0.039 C 
BRANCH  30  32
ATOM     31  O   UNL     1      30.733  -6.225 -18.911  0.00  0.00    -0.286 OA
ATOM     32  C   UNL     1      30.875  -6.704 -20.046  0.00  0.00    +0.198 C 
BRANCH  32  33
ATOM     33  C   UNL     1      30.985  -5.744 -21.186  0.00  0.00    +0.073 C 
ATOM     34  C   UNL     1      29.984  -4.825 -21.399  0.00  0.00    +0.137 C 
ATOM     35  C   UNL     1      32.104  -5.825 -21.985  0.00  0.00    +0.006 C 
ATOM     36  C   UNL     1      30.107  -3.939 -22.468  0.00  0.00    +0.037 C 
ATOM     37  C   UNL     1      32.227  -4.938 -23.055  0.00  0.00    +0.000 C 
ATOM     38  C   UNL     1      31.228  -3.996 -23.297  0.00  0.00    +0.003 C 
BRANCH  34  39
ATOM     39  O   UNL     1      28.881  -4.754 -20.602  0.00  0.00    -0.505 OA
ATOM     40  H   UNL     1      28.239  -5.437 -20.627  0.00  0.00    +0.292 HD
ENDBRANCH  34  39
ENDBRANCH  32  33
ENDBRANCH  30  32
ENDBRANCH  24  25
ENDBRANCH  22  24
ENDBRANCH   3  22
TORSDOF 9
ENDMDL
MODEL 9
REMARK VINA RESULT:      -9.0      2.477      8.282
REMARK  Name = 10050566
REMARK  9 active torsions:
REMARK  status: ('A' for Active; 'I' for Inactive)
REMARK    1  A    between atoms: C_2  and  N_11
REMARK    2  A    between atoms: C_3  and  O_22
REMARK    3  A    between atoms: C_12  and  C_14
REMARK    4  A    between atoms: C_19  and  O_20
REMARK    5  A    between atoms: O_22  and  C_24
REMARK    6  A    between atoms: C_24  and  C_25
REMARK    7  A    between atoms: C_30  and  C_32
REMARK    8  A    between atoms: C_32  and  C_33
REMARK    9  A    between atoms: C_34  and  O_39
REMARK                            x       y       z     vdW  Elec       q    Type
REMARK                         _______ _______ _______ _____ _____    ______ ____
ROOT
ATOM      1  N   UNL     1      27.837 -23.086 -15.848  0.00  0.00    +0.385 N 
ATOM      2  C   UNL     1      30.288 -22.903 -16.309  0.00  0.00    +0.091 C 
ATOM      3  C   UNL     1      30.696 -22.958 -14.826  0.00  0.00    +0.185 C 
ATOM      4  C   UNL     1      29.941 -22.021 -13.876  0.00  0.00    +0.043 C 
ATOM      5  C   UNL     1      28.875 -22.396 -16.613  0.00  0.00    -0.058 C 
ATOM      6  C   UNL     1      28.522 -22.462 -13.509  0.00  0.00    -0.020 C 
ATOM      7  C   UNL     1      27.493 -22.352 -14.629  0.00  0.00    -0.082 C 
ATOM      8  H   UNL     1      28.174 -24.014 -15.592  0.00  0.00    -0.084 HD
ATOM      9  H   UNL     1      27.001 -23.151 -16.429  0.00  0.00    -0.084 HD
ENDROOT
BRANCH   2  11
ATOM     10  O   UNL     1      32.683 -23.829 -17.590  0.00  0.00    -0.270 OA
ATOM     11  N   UNL     1      31.242 -22.096 -17.048  0.00  0.00    -0.301 N 
ATOM     12  C   UNL     1      32.370 -22.642 -17.630  0.00  0.00    +0.246 C 
ATOM     13  H   UNL     1      31.080 -21.129 -17.137  0.00  0.00    +0.150 HD
BRANCH  12  14
ATOM     14  C   UNL     1      33.260 -21.679 -18.328  0.00  0.00    +0.054 C 
ATOM     15  C   UNL     1      34.615 -21.716 -18.067  0.00  0.00    +0.008 C 
ATOM     16  C   UNL     1      32.706 -20.779 -19.215  0.00  0.00    +0.008 C 
ATOM     17  C   UNL     1      35.451 -20.812 -18.722  0.00  0.00    +0.037 C 
ATOM     18  C   UNL     1      33.543 -19.877 -19.870  0.00  0.00    +0.037 C 
ATOM     19  C   UNL     1      34.916 -19.893 -19.623  0.00  0.00    +0.134 C 
BRANCH  19  20
ATOM     20  O   UNL     1      35.732 -19.013 -20.265  0.00  0.00    -0.506 OA
ATOM     21  H   UNL     1      36.659 -19.152 -20.269  0.00  0.00    +0.292 HD
ENDBRANCH  19  20
ENDBRANCH  12  14
ENDBRANCH   2  11
BRANCH   3  22
ATOM     22  O   UNL     1      30.601 -24.307 -14.359  0.00  0.00    -0.448 OA
BRANCH  22  24
ATOM     23  O   UNL     1      30.344 -24.914 -12.154  0.00  0.00    -0.245 OA
ATOM     24  C   UNL     1      31.024 -24.518 -13.088  0.00  0.00    +0.341 C 
BRANCH  24  25
ATOM     25  C   UNL     1      32.468 -24.195 -12.964  0.00  0.00    +0.076 C 
ATOM     26  C   UNL     1      33.262 -24.251 -14.091  0.00  0.00    +0.007 C 
ATOM     27  C   UNL     1      32.971 -23.850 -11.727  0.00  0.00    +0.007 C 
ATOM     28  C   UNL     1      34.619 -23.948 -13.975  0.00  0.00    +0.003 C 
ATOM     29  C   UNL     1      34.327 -23.547 -11.610  0.00  0.00    +0.003 C 
ATOM     30  C   UNL     1      35.152 -23.596 -12.735  0.00  0.00    +0.039 C 
BRANCH  30  32
ATOM     31  O   UNL     1      36.928 -22.241 -12.043  0.00  0.00    -0.286 OA
ATOM     32  C   UNL     1      36.566 -23.281 -12.613  0.00  0.00    +0.198 C 
BRANCH  32  33
ATOM     33  C   UNL     1      37.634 -24.172 -13.158  0.00  0.00    +0.073 C 
ATOM     34  C   UNL     1      38.143 -23.934 -14.414  0.00  0.00    +0.137 C 
ATOM     35  C   UNL     1      38.070 -25.209 -12.364  0.00  0.00    +0.006 C 
ATOM     36  C   UNL     1      39.139 -24.777 -14.903  0.00  0.00    +0.037 C 
ATOM     37  C   UNL     1      39.067 -26.053 -12.853  0.00  0.00    +0.000 C 
ATOM     38  C   UNL     1      39.601 -25.837 -14.123  0.00  0.00    +0.003 C 
BRANCH  34  39
ATOM     39  O   UNL     1      37.704 -22.904 -15.192  0.00  0.00    -0.505 OA
ATOM     40  H   UNL     1      37.090 -22.285 -14.847  0.00  0.00    +0.292 HD
ENDBRANCH  34  39
ENDBRANCH  32  33
ENDBRANCH  30  32
ENDBRANCH  24  25
ENDBRANCH  22  24
ENDBRANCH   3  22
TORSDOF 9
ENDMDL
