MODEL 1
REMARK VINA RESULT:     -12.0      0.000      0.000
REMARK  Name = 5287739
REMARK  3 active torsions:
REMARK  status: ('A' for Active; 'I' for Inactive)
REMARK    1  A    between atoms: C_2  and  O_21
REMARK    2  A    between atoms: C_3  and  O_23
REMARK    3  A    between atoms: C_4  and  O_25
REMARK                            x       y       z     vdW  Elec       q    Type
REMARK                         _______ _______ _______ _____ _____    ______ ____
ROOT
ATOM      1  C   UNL     1      34.722 -23.533 -12.806  0.00  0.00    -0.021 C 
ATOM      2  C   UNL     1      36.296 -24.620 -10.600  0.00  0.00    +0.168 C 
ATOM      3  C   UNL     1      36.974 -23.661 -11.580  0.00  0.00    +0.162 C 
ATOM      4  C   UNL     1      34.866 -24.161 -10.327  0.00  0.00    +0.144 C 
ATOM      5  C   UNL     1      34.032 -24.158 -11.607  0.00  0.00    +0.058 C 
ATOM      6  C   UNL     1      36.115 -23.315 -12.779  0.00  0.00    +0.003 C 
ATOM      7  C   UNL     1      33.974 -23.209 -13.978  0.00  0.00    -0.004 C 
ATOM      8  C   UNL     1      34.639 -22.628 -15.089  0.00  0.00    -0.000 C 
ATOM      9  C   UNL     1      36.029 -22.388 -15.037  0.00  0.00    -0.000 C 
ATOM     10  C   UNL     1      36.747 -22.735 -13.890  0.00  0.00    -0.002 C 
ATOM     11  C   UNL     1      33.922 -22.284 -16.269  0.00  0.00    -0.000 C 
ATOM     12  C   UNL     1      32.586 -23.440 -14.105  0.00  0.00    -0.000 C 
ATOM     13  C   UNL     1      32.533 -22.524 -16.352  0.00  0.00    -0.000 C 
ATOM     14  C   UNL     1      34.593 -21.700 -17.370  0.00  0.00    -0.000 C 
ATOM     15  C   UNL     1      36.679 -21.810 -16.136  0.00  0.00    -0.000 C 
ATOM     16  C   UNL     1      31.881 -23.104 -15.263  0.00  0.00    -0.000 C 
ATOM     17  C   UNL     1      35.970 -21.468 -17.288  0.00  0.00    -0.000 C 
ATOM     18  C   UNL     1      31.836 -22.180 -17.518  0.00  0.00    -0.000 C 
ATOM     19  C   UNL     1      33.871 -21.365 -18.526  0.00  0.00    -0.000 C 
ATOM     20  C   UNL     1      32.501 -21.604 -18.597  0.00  0.00    +0.000 C 
ENDROOT
BRANCH   2  21
ATOM     21  O   UNL     1      36.281 -25.939 -11.147  0.00  0.00    -0.379 OA
ATOM     22  H   UNL     1      36.196 -25.886 -12.111  0.00  0.00    +0.211 HD
ENDBRANCH   2  21
BRANCH   3  23
ATOM     23  O   UNL     1      37.288 -22.441 -10.911  0.00  0.00    -0.377 OA
ATOM     24  H   UNL     1      36.565 -21.807 -11.041  0.00  0.00    +0.211 HD
ENDBRANCH   3  23
BRANCH   4  25
ATOM     25  O   UNL     1      34.245 -25.026  -9.381  0.00  0.00    -0.382 OA
ATOM     26  H   UNL     1      33.390 -25.325  -9.728  0.00  0.00    +0.210 HD
ENDBRANCH   4  25
TORSDOF 3
ENDMDL
MODEL 2
REMARK VINA RESULT:     -11.0      0.924      3.150
REMARK  Name = 5287739
REMARK  3 active torsions:
REMARK  status: ('A' for Active; 'I' for Inactive)
REMARK    1  A    between atoms: C_2  and  O_21
REMARK    2  A    between atoms: C_3  and  O_23
REMARK    3  A    between atoms: C_4  and  O_25
REMARK                            x       y       z     vdW  Elec       q    Type
REMARK                         _______ _______ _______ _____ _____    ______ ____
ROOT
ATOM      1  C   UNL     1      35.610 -22.927 -13.359  0.00  0.00    -0.021 C 
ATOM      2  C   UNL     1      35.946 -23.401 -10.497  0.00  0.00    +0.168 C 
ATOM      3  C   UNL     1      34.656 -23.874 -11.171  0.00  0.00    +0.162 C 
ATOM      4  C   UNL     1      37.134 -23.635 -11.426  0.00  0.00    +0.144 C 
ATOM      5  C   UNL     1      36.987 -22.842 -12.724  0.00  0.00    +0.058 C 
ATOM      6  C   UNL     1      34.518 -23.407 -12.606  0.00  0.00    +0.003 C 
ATOM      7  C   UNL     1      35.407 -22.477 -14.699  0.00  0.00    -0.004 C 
ATOM      8  C   UNL     1      34.111 -22.562 -15.272  0.00  0.00    -0.000 C 
ATOM      9  C   UNL     1      33.034 -23.073 -14.517  0.00  0.00    -0.000 C 
ATOM     10  C   UNL     1      33.249 -23.484 -13.199  0.00  0.00    -0.002 C 
ATOM     11  C   UNL     1      33.876 -22.133 -16.608  0.00  0.00    -0.000 C 
ATOM     12  C   UNL     1      36.434 -21.938 -15.503  0.00  0.00    -0.000 C 
ATOM     13  C   UNL     1      34.934 -21.607 -17.382  0.00  0.00    -0.000 C 
ATOM     14  C   UNL     1      32.581 -22.226 -17.173  0.00  0.00    -0.000 C 
ATOM     15  C   UNL     1      31.758 -23.158 -15.090  0.00  0.00    -0.000 C 
ATOM     16  C   UNL     1      36.205 -21.514 -16.815  0.00  0.00    -0.000 C 
ATOM     17  C   UNL     1      31.534 -22.742 -16.402  0.00  0.00    -0.000 C 
ATOM     18  C   UNL     1      34.692 -21.187 -18.697  0.00  0.00    -0.000 C 
ATOM     19  C   UNL     1      32.367 -21.799 -18.492  0.00  0.00    -0.000 C 
ATOM     20  C   UNL     1      33.416 -21.284 -19.248  0.00  0.00    +0.000 C 
ENDROOT
BRANCH   2  21
ATOM     21  O   UNL     1      35.846 -22.012 -10.184  0.00  0.00    -0.379 OA
ATOM     22  H   UNL     1      36.419 -21.809  -9.429  0.00  0.00    +0.211 HD
ENDBRANCH   2  21
BRANCH   3  23
ATOM     23  O   UNL     1      34.618 -25.300 -11.179  0.00  0.00    -0.377 OA
ATOM     24  H   UNL     1      34.958 -25.627 -12.026  0.00  0.00    +0.211 HD
ENDBRANCH   3  23
BRANCH   4  25
ATOM     25  O   UNL     1      38.343 -23.237 -10.786  0.00  0.00    -0.382 OA
ATOM     26  H   UNL     1      38.464 -22.280 -10.889  0.00  0.00    +0.210 HD
ENDBRANCH   4  25
TORSDOF 3
ENDMDL
MODEL 3
REMARK VINA RESULT:     -10.7      3.050      4.972
REMARK  Name = 5287739
REMARK  3 active torsions:
REMARK  status: ('A' for Active; 'I' for Inactive)
REMARK    1  A    between atoms: C_2  and  O_21
REMARK    2  A    between atoms: C_3  and  O_23
REMARK    3  A    between atoms: C_4  and  O_25
REMARK                            x       y       z     vdW  Elec       q    Type
REMARK                         _______ _______ _______ _____ _____    ______ ____
ROOT
ATOM      1  C   UNL     1      30.820 -23.373 -14.857  0.00  0.00    -0.021 C 
ATOM      2  C   UNL     1      28.859 -24.848 -13.275  0.00  0.00    +0.168 C 
ATOM      3  C   UNL     1      30.172 -24.432 -12.610  0.00  0.00    +0.162 C 
ATOM      4  C   UNL     1      28.371 -23.739 -14.203  0.00  0.00    +0.144 C 
ATOM      5  C   UNL     1      29.377 -23.469 -15.320  0.00  0.00    +0.058 C 
ATOM      6  C   UNL     1      31.179 -23.842 -13.576  0.00  0.00    +0.003 C 
ATOM      7  C   UNL     1      31.823 -22.853 -15.731  0.00  0.00    -0.004 C 
ATOM      8  C   UNL     1      33.166 -22.774 -15.279  0.00  0.00    -0.000 C 
ATOM      9  C   UNL     1      33.506 -23.220 -13.984  0.00  0.00    -0.000 C 
ATOM     10  C   UNL     1      32.514 -23.749 -13.154  0.00  0.00    -0.002 C 
ATOM     11  C   UNL     1      34.188 -22.252 -16.120  0.00  0.00    -0.000 C 
ATOM     12  C   UNL     1      31.556 -22.407 -17.044  0.00  0.00    -0.000 C 
ATOM     13  C   UNL     1      33.878 -21.809 -17.424  0.00  0.00    -0.000 C 
ATOM     14  C   UNL     1      35.524 -22.172 -15.659  0.00  0.00    -0.000 C 
ATOM     15  C   UNL     1      34.833 -23.135 -13.542  0.00  0.00    -0.000 C 
ATOM     16  C   UNL     1      32.559 -21.896 -17.872  0.00  0.00    -0.000 C 
ATOM     17  C   UNL     1      35.830 -22.616 -14.368  0.00  0.00    -0.000 C 
ATOM     18  C   UNL     1      34.892 -21.295 -18.245  0.00  0.00    -0.000 C 
ATOM     19  C   UNL     1      36.520 -21.654 -16.500  0.00  0.00    -0.000 C 
ATOM     20  C   UNL     1      36.204 -21.217 -17.784  0.00  0.00    +0.000 C 
ENDROOT
BRANCH   2  21
ATOM     21  O   UNL     1      29.056 -26.048 -14.022  0.00  0.00    -0.379 OA
ATOM     22  H   UNL     1      29.076 -25.840 -14.968  0.00  0.00    +0.211 HD
ENDBRANCH   2  21
BRANCH   3  23
ATOM     23  O   UNL     1      29.909 -23.447 -11.612  0.00  0.00    -0.377 OA
ATOM     24  H   UNL     1      30.470 -23.614 -10.838  0.00  0.00    +0.211 HD
ENDBRANCH   3  23
BRANCH   4  25
ATOM     25  O   UNL     1      27.126 -24.104 -14.791  0.00  0.00    -0.382 OA
ATOM     26  H   UNL     1      26.909 -23.481 -15.502  0.00  0.00    +0.210 HD
ENDBRANCH   4  25
TORSDOF 3
ENDMDL
MODEL 4
REMARK VINA RESULT:     -10.1      2.093      4.452
REMARK  Name = 5287739
REMARK  3 active torsions:
REMARK  status: ('A' for Active; 'I' for Inactive)
REMARK    1  A    between atoms: C_2  and  O_21
REMARK    2  A    between atoms: C_3  and  O_23
REMARK    3  A    between atoms: C_4  and  O_25
REMARK                            x       y       z     vdW  Elec       q    Type
REMARK                         _______ _______ _______ _____ _____    ______ ____
ROOT
ATOM      1  C   UNL     1      34.375 -23.675 -14.103  0.00  0.00    -0.021 C 
ATOM      2  C   UNL     1      36.900 -23.977 -12.669  0.00  0.00    +0.168 C 
ATOM      3  C   UNL     1      35.646 -24.634 -12.089  0.00  0.00    +0.162 C 
ATOM      4  C   UNL     1      36.898 -24.104 -14.190  0.00  0.00    +0.144 C 
ATOM      5  C   UNL     1      35.692 -23.394 -14.803  0.00  0.00    +0.058 C 
ATOM      6  C   UNL     1      34.372 -24.252 -12.816  0.00  0.00    +0.003 C 
ATOM      7  C   UNL     1      33.140 -23.313 -14.723  0.00  0.00    -0.004 C 
ATOM      8  C   UNL     1      31.920 -23.582 -14.049  0.00  0.00    -0.000 C 
ATOM      9  C   UNL     1      31.931 -24.188 -12.774  0.00  0.00    -0.000 C 
ATOM     10  C   UNL     1      33.151 -24.511 -12.175  0.00  0.00    -0.002 C 
ATOM     11  C   UNL     1      30.671 -23.244 -14.642  0.00  0.00    -0.000 C 
ATOM     12  C   UNL     1      33.056 -22.689 -15.986  0.00  0.00    -0.000 C 
ATOM     13  C   UNL     1      30.631 -22.628 -15.912  0.00  0.00    -0.000 C 
ATOM     14  C   UNL     1      29.458 -23.521 -13.965  0.00  0.00    -0.000 C 
ATOM     15  C   UNL     1      30.722 -24.454 -12.117  0.00  0.00    -0.000 C 
ATOM     16  C   UNL     1      31.831 -22.354 -16.569  0.00  0.00    -0.000 C 
ATOM     17  C   UNL     1      29.501 -24.127 -12.705  0.00  0.00    -0.000 C 
ATOM     18  C   UNL     1      29.395 -22.300 -16.488  0.00  0.00    -0.000 C 
ATOM     19  C   UNL     1      28.236 -23.182 -14.564  0.00  0.00    -0.000 C 
ATOM     20  C   UNL     1      28.206 -22.576 -15.818  0.00  0.00    +0.000 C 
ENDROOT
BRANCH   2  21
ATOM     21  O   UNL     1      36.937 -22.599 -12.301  0.00  0.00    -0.379 OA
ATOM     22  H   UNL     1      37.602 -22.140 -12.836  0.00  0.00    +0.211 HD
ENDBRANCH   2  21
BRANCH   3  23
ATOM     23  O   UNL     1      35.773 -26.053 -12.165  0.00  0.00    -0.377 OA
ATOM     24  H   UNL     1      35.601 -26.344 -13.074  0.00  0.00    +0.211 HD
ENDBRANCH   3  23
BRANCH   4  25
ATOM     25  O   UNL     1      38.086 -23.533 -14.731  0.00  0.00    -0.382 OA
ATOM     26  H   UNL     1      38.279 -23.940 -15.590  0.00  0.00    +0.210 HD
ENDBRANCH   4  25
TORSDOF 3
ENDMDL
MODEL 5
REMARK VINA RESULT:     -10.1      2.137      3.804
REMARK  Name = 5287739
REMARK  3 active torsions:
REMARK  status: ('A' for Active; 'I' for Inactive)
REMARK    1  A    between atoms: C_2  and  O_21
REMARK    2  A    between atoms: C_3  and  O_23
REMARK    3  A    between atoms: C_4  and  O_25
REMARK                            x       y       z     vdW  Elec       q    Type
REMARK                         _______ _______ _______ _____ _____    ______ ____
ROOT
ATOM      1  C   UNL     1      34.196 -23.975 -13.608  0.00  0.00    -0.021 C 
ATOM      2  C   UNL     1      37.096 -24.259 -13.801  0.00  0.00    +0.168 C 
ATOM      3  C   UNL     1      36.396 -23.259 -14.723  0.00  0.00    +0.162 C 
ATOM      4  C   UNL     1      36.450 -24.234 -12.418  0.00  0.00    +0.144 C 
ATOM      5  C   UNL     1      34.978 -24.638 -12.488  0.00  0.00    +0.058 C 
ATOM      6  C   UNL     1      34.884 -23.336 -14.662  0.00  0.00    +0.003 C 
ATOM      7  C   UNL     1      32.770 -24.036 -13.624  0.00  0.00    -0.004 C 
ATOM      8  C   UNL     1      32.059 -23.411 -14.682  0.00  0.00    -0.000 C 
ATOM      9  C   UNL     1      32.759 -22.750 -15.714  0.00  0.00    -0.000 C 
ATOM     10  C   UNL     1      34.156 -22.723 -15.693  0.00  0.00    -0.002 C 
ATOM     11  C   UNL     1      30.637 -23.444 -14.724  0.00  0.00    -0.000 C 
ATOM     12  C   UNL     1      32.007 -24.695 -12.635  0.00  0.00    -0.000 C 
ATOM     13  C   UNL     1      29.912 -24.108 -13.710  0.00  0.00    -0.000 C 
ATOM     14  C   UNL     1      29.936 -22.814 -15.780  0.00  0.00    -0.000 C 
ATOM     15  C   UNL     1      32.051 -22.132 -16.753  0.00  0.00    -0.000 C 
ATOM     16  C   UNL     1      30.611 -24.730 -12.675  0.00  0.00    -0.000 C 
ATOM     17  C   UNL     1      30.657 -22.162 -16.786  0.00  0.00    -0.000 C 
ATOM     18  C   UNL     1      28.511 -24.134 -13.759  0.00  0.00    -0.000 C 
ATOM     19  C   UNL     1      28.534 -22.855 -15.805  0.00  0.00    -0.000 C 
ATOM     20  C   UNL     1      27.828 -23.510 -14.800  0.00  0.00    +0.000 C 
ENDROOT
BRANCH   2  21
ATOM     21  O   UNL     1      37.000 -25.572 -14.353  0.00  0.00    -0.379 OA
ATOM     22  H   UNL     1      36.435 -26.120 -13.786  0.00  0.00    +0.211 HD
ENDBRANCH   2  21
BRANCH   3  23
ATOM     23  O   UNL     1      36.772 -21.932 -14.358  0.00  0.00    -0.377 OA
ATOM     24  H   UNL     1      37.517 -21.967 -13.737  0.00  0.00    +0.211 HD
ENDBRANCH   3  23
BRANCH   4  25
ATOM     25  O   UNL     1      37.126 -25.132 -11.544  0.00  0.00    -0.382 OA
ATOM     26  H   UNL     1      37.747 -25.675 -12.055  0.00  0.00    +0.210 HD
ENDBRANCH   4  25
TORSDOF 3
ENDMDL
MODEL 6
REMARK VINA RESULT:     -10.0      1.373      3.450
REMARK  Name = 5287739
REMARK  3 active torsions:
REMARK  status: ('A' for Active; 'I' for Inactive)
REMARK    1  A    between atoms: C_2  and  O_21
REMARK    2  A    between atoms: C_3  and  O_23
REMARK    3  A    between atoms: C_4  and  O_25
REMARK                            x       y       z     vdW  Elec       q    Type
REMARK                         _______ _______ _______ _____ _____    ______ ____
ROOT
ATOM      1  C   UNL     1      35.947 -23.367 -14.629  0.00  0.00    -0.021 C 
ATOM      2  C   UNL     1      36.923 -24.391 -12.075  0.00  0.00    +0.168 C 
ATOM      3  C   UNL     1      35.481 -24.698 -12.483  0.00  0.00    +0.162 C 
ATOM      4  C   UNL     1      37.837 -24.465 -13.295  0.00  0.00    +0.144 C 
ATOM      5  C   UNL     1      37.437 -23.435 -14.350  0.00  0.00    +0.058 C 
ATOM      6  C   UNL     1      35.036 -23.961 -13.730  0.00  0.00    +0.003 C 
ATOM      7  C   UNL     1      35.460 -22.664 -15.773  0.00  0.00    -0.004 C 
ATOM      8  C   UNL     1      34.062 -22.610 -16.014  0.00  0.00    -0.000 C 
ATOM      9  C   UNL     1      33.164 -23.235 -15.122  0.00  0.00    -0.000 C 
ATOM     10  C   UNL     1      33.659 -23.897 -13.995  0.00  0.00    -0.002 C 
ATOM     11  C   UNL     1      33.544 -21.927 -17.149  0.00  0.00    -0.000 C 
ATOM     12  C   UNL     1      36.299 -22.002 -16.695  0.00  0.00    -0.000 C 
ATOM     13  C   UNL     1      34.419 -21.284 -18.051  0.00  0.00    -0.000 C 
ATOM     14  C   UNL     1      32.148 -21.883 -17.384  0.00  0.00    -0.000 C 
ATOM     15  C   UNL     1      31.786 -23.182 -15.368  0.00  0.00    -0.000 C 
ATOM     16  C   UNL     1      35.793 -21.328 -17.809  0.00  0.00    -0.000 C 
ATOM     17  C   UNL     1      31.283 -22.516 -16.485  0.00  0.00    -0.000 C 
ATOM     18  C   UNL     1      33.899 -20.614 -19.168  0.00  0.00    -0.000 C 
ATOM     19  C   UNL     1      31.654 -21.206 -18.509  0.00  0.00    -0.000 C 
ATOM     20  C   UNL     1      32.525 -20.576 -19.394  0.00  0.00    +0.000 C 
ENDROOT
BRANCH   2  21
ATOM     21  O   UNL     1      36.994 -23.086 -11.500  0.00  0.00    -0.379 OA
ATOM     22  H   UNL     1      37.838 -22.984 -11.035  0.00  0.00    +0.211 HD
ENDBRANCH   2  21
BRANCH   3  23
ATOM     23  O   UNL     1      35.347 -26.095 -12.740  0.00  0.00    -0.377 OA
ATOM     24  H   UNL     1      34.803 -26.500 -12.046  0.00  0.00    +0.211 HD
ENDBRANCH   3  23
BRANCH   4  25
ATOM     25  O   UNL     1      39.187 -24.223 -12.912  0.00  0.00    -0.382 OA
ATOM     26  H   UNL     1      39.599 -23.614 -13.545  0.00  0.00    +0.210 HD
ENDBRANCH   4  25
TORSDOF 3
ENDMDL
MODEL 7
REMARK VINA RESULT:      -9.2      1.998      4.280
REMARK  Name = 5287739
REMARK  3 active torsions:
REMARK  status: ('A' for Active; 'I' for Inactive)
REMARK    1  A    between atoms: C_2  and  O_21
REMARK    2  A    between atoms: C_3  and  O_23
REMARK    3  A    between atoms: C_4  and  O_25
REMARK                            x       y       z     vdW  Elec       q    Type
REMARK                         _______ _______ _______ _____ _____    ______ ____
ROOT
ATOM      1  C   UNL     1      33.185 -23.108 -14.668  0.00  0.00    -0.021 C 
ATOM      2  C   UNL     1      31.550 -23.976 -12.410  0.00  0.00    +0.168 C 
ATOM      3  C   UNL     1      30.884 -23.821 -13.779  0.00  0.00    +0.162 C 
ATOM      4  C   UNL     1      32.948 -24.564 -12.575  0.00  0.00    +0.144 C 
ATOM      5  C   UNL     1      33.840 -23.647 -13.409  0.00  0.00    +0.058 C 
ATOM      6  C   UNL     1      31.785 -23.189 -14.821  0.00  0.00    +0.003 C 
ATOM      7  C   UNL     1      33.974 -22.476 -15.677  0.00  0.00    -0.004 C 
ATOM      8  C   UNL     1      33.341 -21.977 -16.844  0.00  0.00    -0.000 C 
ATOM      9  C   UNL     1      31.943 -22.093 -16.998  0.00  0.00    -0.000 C 
ATOM     10  C   UNL     1      31.185 -22.692 -15.988  0.00  0.00    -0.002 C 
ATOM     11  C   UNL     1      34.099 -21.351 -17.873  0.00  0.00    -0.000 C 
ATOM     12  C   UNL     1      35.373 -22.310 -15.580  0.00  0.00    -0.000 C 
ATOM     13  C   UNL     1      35.498 -21.212 -17.741  0.00  0.00    -0.000 C 
ATOM     14  C   UNL     1      33.459 -20.861 -19.037  0.00  0.00    -0.000 C 
ATOM     15  C   UNL     1      31.324 -21.601 -18.155  0.00  0.00    -0.000 C 
ATOM     16  C   UNL     1      36.119 -21.694 -16.588  0.00  0.00    -0.000 C 
ATOM     17  C   UNL     1      32.073 -20.995 -19.164  0.00  0.00    -0.000 C 
ATOM     18  C   UNL     1      36.236 -20.595 -18.761  0.00  0.00    -0.000 C 
ATOM     19  C   UNL     1      34.221 -20.247 -20.043  0.00  0.00    -0.000 C 
ATOM     20  C   UNL     1      35.601 -20.117 -19.904  0.00  0.00    +0.000 C 
ENDROOT
BRANCH   2  21
ATOM     21  O   UNL     1      31.636 -22.703 -11.769  0.00  0.00    -0.379 OA
ATOM     22  H   UNL     1      31.709 -22.829 -10.811  0.00  0.00    +0.211 HD
ENDBRANCH   2  21
BRANCH   3  23
ATOM     23  O   UNL     1      30.497 -25.104 -14.268  0.00  0.00    -0.377 OA
ATOM     24  H   UNL     1      30.795 -25.789 -13.648  0.00  0.00    +0.211 HD
ENDBRANCH   3  23
BRANCH   4  25
ATOM     25  O   UNL     1      33.555 -24.750 -11.299  0.00  0.00    -0.382 OA
ATOM     26  H   UNL     1      34.022 -25.600 -11.284  0.00  0.00    +0.210 HD
ENDBRANCH   4  25
TORSDOF 3
ENDMDL
MODEL 8
REMARK VINA RESULT:      -9.1     14.161     17.153
REMARK  Name = 5287739
REMARK  3 active torsions:
REMARK  status: ('A' for Active; 'I' for Inactive)
REMARK    1  A    between atoms: C_2  and  O_21
REMARK    2  A    between atoms: C_3  and  O_23
REMARK    3  A    between atoms: C_4  and  O_25
REMARK                            x       y       z     vdW  Elec       q    Type
REMARK                         _______ _______ _______ _____ _____    ______ ____
ROOT
ATOM      1  C   UNL     1      31.198  -7.997 -22.545  0.00  0.00    -0.021 C 
ATOM      2  C   UNL     1      31.591  -5.432 -23.884  0.00  0.00    +0.168 C 
ATOM      3  C   UNL     1      32.052  -6.706 -24.594  0.00  0.00    +0.162 C 
ATOM      4  C   UNL     1      30.274  -5.689 -23.158  0.00  0.00    +0.144 C 
ATOM      5  C   UNL     1      30.432  -6.769 -22.089  0.00  0.00    +0.058 C 
ATOM      6  C   UNL     1      31.968  -7.946 -23.727  0.00  0.00    +0.003 C 
ATOM      7  C   UNL     1      31.182  -9.189 -21.758  0.00  0.00    -0.004 C 
ATOM      8  C   UNL     1      31.908 -10.324 -22.202  0.00  0.00    -0.000 C 
ATOM      9  C   UNL     1      32.649 -10.269 -23.402  0.00  0.00    -0.000 C 
ATOM     10  C   UNL     1      32.672  -9.086 -24.144  0.00  0.00    -0.002 C 
ATOM     11  C   UNL     1      31.905 -11.531 -21.448  0.00  0.00    -0.000 C 
ATOM     12  C   UNL     1      30.478  -9.308 -20.540  0.00  0.00    -0.000 C 
ATOM     13  C   UNL     1      31.181 -11.611 -20.238  0.00  0.00    -0.000 C 
ATOM     14  C   UNL     1      32.628 -12.661 -21.900  0.00  0.00    -0.000 C 
ATOM     15  C   UNL     1      33.360 -11.396 -23.836  0.00  0.00    -0.000 C 
ATOM     16  C   UNL     1      30.476 -10.490 -19.797  0.00  0.00    -0.000 C 
ATOM     17  C   UNL     1      33.349 -12.578 -23.096  0.00  0.00    -0.000 C 
ATOM     18  C   UNL     1      31.184 -12.804 -19.502  0.00  0.00    -0.000 C 
ATOM     19  C   UNL     1      32.614 -13.843 -21.145  0.00  0.00    -0.000 C 
ATOM     20  C   UNL     1      31.895 -13.913 -19.954  0.00  0.00    +0.000 C 
ENDROOT
BRANCH   2  21
ATOM     21  O   UNL     1      32.584  -5.016 -22.947  0.00  0.00    -0.379 OA
ATOM     22  H   UNL     1      33.014  -4.209 -23.269  0.00  0.00    +0.211 HD
ENDBRANCH   2  21
BRANCH   3  23
ATOM     23  O   UNL     1      31.239  -6.932 -25.744  0.00  0.00    -0.377 OA
ATOM     24  H   UNL     1      31.662  -7.592 -26.315  0.00  0.00    +0.211 HD
ENDBRANCH   3  23
BRANCH   4  25
ATOM     25  O   UNL     1      29.818  -4.493 -22.532  0.00  0.00    -0.382 OA
ATOM     26  H   UNL     1      30.288  -3.732 -22.906  0.00  0.00    +0.210 HD
ENDBRANCH   4  25
TORSDOF 3
ENDMDL
