MODEL 1
REMARK VINA RESULT:     -12.5      0.000      0.000
REMARK  Name = 10157080
REMARK  5 active torsions:
REMARK  status: ('A' for Active; 'I' for Inactive)
REMARK    1  A    between atoms: C_3  and  O_8
REMARK    2  A    between atoms: C_6  and  O_18
REMARK    3  A    between atoms: O_8  and  C_13
REMARK    4  A    between atoms: O_18  and  C_20
REMARK    5  A    between atoms: C_19  and  N_25
REMARK                            x       y       z     vdW  Elec       q    Type
REMARK                         _______ _______ _______ _____ _____    ______ ____
ROOT
ATOM      1  N   UNL     1      33.666 -22.942 -15.801  0.00  0.00    -0.277 NA
ATOM      2  N   UNL     1      31.300 -22.922 -16.264  0.00  0.00    -0.319 NA
ATOM      3  C   UNL     1      33.363 -22.788 -14.502  0.00  0.00    +0.278 C 
ATOM      4  C   UNL     1      32.088 -22.692 -14.001  0.00  0.00    +0.156 C 
ATOM      5  C   UNL     1      31.081 -22.767 -14.941  0.00  0.00    +0.113 C 
ATOM      6  C   UNL     1      32.598 -23.001 -16.619  0.00  0.00    +0.317 C 
ATOM      7  C   UNL     1      29.658 -22.674 -14.504  0.00  0.00    +0.063 C 
ENDROOT
BRANCH   3   8
ATOM      8  O   UNL     1      34.429 -22.725 -13.622  0.00  0.00    -0.429 OA
BRANCH   8  13
ATOM      9  O   UNL     1      38.979 -24.239 -14.132  0.00  0.00    -0.435 OA
ATOM     10  O   UNL     1      38.319 -26.551 -13.966  0.00  0.00    -0.435 OA
ATOM     11  C   UNL     1      37.637 -24.382 -13.960  0.00  0.00    +0.179 C 
ATOM     12  C   UNL     1      37.260 -25.702 -13.865  0.00  0.00    +0.177 C 
ATOM     13  C   UNL     1      35.375 -23.703 -13.705  0.00  0.00    +0.151 C 
ATOM     14  C   UNL     1      36.716 -23.358 -13.883  0.00  0.00    +0.078 C 
ATOM     15  C   UNL     1      35.941 -26.071 -13.689  0.00  0.00    +0.043 C 
ATOM     16  C   UNL     1      34.989 -25.052 -13.608  0.00  0.00    +0.041 C 
ATOM     17  C   UNL     1      39.404 -25.617 -14.134  0.00  0.00    +0.429 C 
ENDBRANCH   8  13
ENDBRANCH   3   8
BRANCH   6  18
ATOM     18  O   UNL     1      32.859 -23.156 -17.960  0.00  0.00    -0.375 OA
BRANCH  18  20
ATOM     19  C   UNL     1      33.692 -19.722 -20.137  0.00  0.00    +0.057 C 
ATOM     20  C   UNL     1      33.136 -22.016 -18.683  0.00  0.00    +0.161 C 
ATOM     21  C   UNL     1      32.369 -20.078 -19.875  0.00  0.00    +0.018 C 
ATOM     22  C   UNL     1      34.735 -20.520 -19.667  0.00  0.00    +0.018 C 
ATOM     23  C   UNL     1      32.088 -21.232 -19.143  0.00  0.00    +0.040 C 
ATOM     24  C   UNL     1      34.456 -21.673 -18.935  0.00  0.00    +0.040 C 
BRANCH  19  25
ATOM     25  N   UNL     1      33.969 -18.578 -20.863  0.00  0.00    -0.246 N 
ATOM     26  N   UNL     1      34.121 -17.192 -22.603  0.00  0.00    -0.224 NA
ATOM     27  C   UNL     1      34.510 -17.412 -20.381  0.00  0.00    +0.092 C 
ATOM     28  C   UNL     1      33.755 -18.391 -22.206  0.00  0.00    +0.172 C 
ATOM     29  C   UNL     1      34.593 -16.578 -21.470  0.00  0.00    +0.117 C 
ENDBRANCH  19  25
ENDBRANCH  18  20
ENDBRANCH   6  18
TORSDOF 5
ENDMDL
MODEL 2
REMARK VINA RESULT:     -11.7      3.666      7.306
REMARK  Name = 10157080
REMARK  5 active torsions:
REMARK  status: ('A' for Active; 'I' for Inactive)
REMARK    1  A    between atoms: C_3  and  O_8
REMARK    2  A    between atoms: C_6  and  O_18
REMARK    3  A    between atoms: O_8  and  C_13
REMARK    4  A    between atoms: O_18  and  C_20
REMARK    5  A    between atoms: C_19  and  N_25
REMARK                            x       y       z     vdW  Elec       q    Type
REMARK                         _______ _______ _______ _____ _____    ______ ____
ROOT
ATOM      1  N   UNL     1      33.449 -23.954 -13.784  0.00  0.00    -0.277 NA
ATOM      2  N   UNL     1      33.950 -23.596 -11.454  0.00  0.00    -0.319 NA
ATOM      3  C   UNL     1      34.666 -23.465 -14.070  0.00  0.00    +0.278 C 
ATOM      4  C   UNL     1      35.574 -23.026 -13.137  0.00  0.00    +0.156 C 
ATOM      5  C   UNL     1      35.156 -23.117 -11.825  0.00  0.00    +0.113 C 
ATOM      6  C   UNL     1      33.159 -23.991 -12.470  0.00  0.00    +0.317 C 
ATOM      7  C   UNL     1      36.065 -22.667 -10.732  0.00  0.00    +0.063 C 
ENDROOT
BRANCH   3   8
ATOM      8  O   UNL     1      35.010 -23.410 -15.409  0.00  0.00    -0.429 OA
BRANCH   8  13
ATOM      9  O   UNL     1      33.991 -20.580 -19.178  0.00  0.00    -0.435 OA
ATOM     10  O   UNL     1      31.620 -20.911 -18.894  0.00  0.00    -0.435 OA
ATOM     11  C   UNL     1      33.705 -21.396 -18.127  0.00  0.00    +0.179 C 
ATOM     12  C   UNL     1      32.351 -21.586 -17.966  0.00  0.00    +0.177 C 
ATOM     13  C   UNL     1      34.139 -22.800 -16.261  0.00  0.00    +0.151 C 
ATOM     14  C   UNL     1      34.626 -21.991 -17.290  0.00  0.00    +0.078 C 
ATOM     15  C   UNL     1      31.844 -22.380 -16.957  0.00  0.00    +0.043 C 
ATOM     16  C   UNL     1      32.756 -22.994 -16.096  0.00  0.00    +0.041 C 
ATOM     17  C   UNL     1      32.665 -20.277 -19.659  0.00  0.00    +0.429 C 
ENDBRANCH   8  13
ENDBRANCH   3   8
BRANCH   6  18
ATOM     18  O   UNL     1      31.920 -24.482 -12.128  0.00  0.00    -0.375 OA
BRANCH  18  20
ATOM     19  C   UNL     1      28.697 -23.269 -14.443  0.00  0.00    +0.057 C 
ATOM     20  C   UNL     1      30.850 -24.079 -12.896  0.00  0.00    +0.161 C 
ATOM     21  C   UNL     1      28.921 -24.627 -14.219  0.00  0.00    +0.018 C 
ATOM     22  C   UNL     1      29.554 -22.319 -13.889  0.00  0.00    +0.018 C 
ATOM     23  C   UNL     1      30.005 -25.035 -13.440  0.00  0.00    +0.040 C 
ATOM     24  C   UNL     1      30.637 -22.726 -13.111  0.00  0.00    +0.040 C 
BRANCH  19  25
ATOM     25  N   UNL     1      27.623 -22.865 -15.216  0.00  0.00    -0.246 N 
ATOM     26  N   UNL     1      26.236 -22.721 -16.956  0.00  0.00    -0.224 NA
ATOM     27  C   UNL     1      26.650 -21.966 -14.859  0.00  0.00    +0.092 C 
ATOM     28  C   UNL     1      27.326 -23.288 -16.488  0.00  0.00    +0.172 C 
ATOM     29  C   UNL     1      25.811 -21.895 -15.946  0.00  0.00    +0.117 C 
ENDBRANCH  19  25
ENDBRANCH  18  20
ENDBRANCH   6  18
TORSDOF 5
ENDMDL
MODEL 3
REMARK VINA RESULT:     -10.9      4.311      8.477
REMARK  Name = 10157080
REMARK  5 active torsions:
REMARK  status: ('A' for Active; 'I' for Inactive)
REMARK    1  A    between atoms: C_3  and  O_8
REMARK    2  A    between atoms: C_6  and  O_18
REMARK    3  A    between atoms: O_8  and  C_13
REMARK    4  A    between atoms: O_18  and  C_20
REMARK    5  A    between atoms: C_19  and  N_25
REMARK                            x       y       z     vdW  Elec       q    Type
REMARK                         _______ _______ _______ _____ _____    ______ ____
ROOT
ATOM      1  N   UNL     1      34.816 -17.172 -21.961  0.00  0.00    -0.277 NA
ATOM      2  N   UNL     1      33.296 -16.858 -23.805  0.00  0.00    -0.319 NA
ATOM      3  C   UNL     1      34.395 -18.446 -21.896  0.00  0.00    +0.278 C 
ATOM      4  C   UNL     1      33.450 -19.002 -22.722  0.00  0.00    +0.156 C 
ATOM      5  C   UNL     1      32.927 -18.149 -23.672  0.00  0.00    +0.113 C 
ATOM      6  C   UNL     1      34.232 -16.442 -22.929  0.00  0.00    +0.317 C 
ATOM      7  C   UNL     1      31.893 -18.652 -24.622  0.00  0.00    +0.063 C 
ENDROOT
BRANCH   3   8
ATOM      8  O   UNL     1      34.971 -19.237 -20.917  0.00  0.00    -0.429 OA
BRANCH   8  13
ATOM      9  O   UNL     1      34.107 -22.467 -17.442  0.00  0.00    -0.435 OA
ATOM     10  O   UNL     1      31.728 -22.096 -17.570  0.00  0.00    -0.435 OA
ATOM     11  C   UNL     1      33.778 -21.537 -18.379  0.00  0.00    +0.179 C 
ATOM     12  C   UNL     1      32.421 -21.325 -18.452  0.00  0.00    +0.177 C 
ATOM     13  C   UNL     1      34.136 -19.935 -20.097  0.00  0.00    +0.151 C 
ATOM     14  C   UNL     1      34.663 -20.856 -19.189  0.00  0.00    +0.078 C 
ATOM     15  C   UNL     1      31.873 -20.421 -19.340  0.00  0.00    +0.043 C 
ATOM     16  C   UNL     1      32.748 -19.718 -20.171  0.00  0.00    +0.041 C 
ATOM     17  C   UNL     1      32.803 -22.816 -16.933  0.00  0.00    +0.429 C 
ENDBRANCH   8  13
ENDBRANCH   3   8
BRANCH   6  18
ATOM     18  O   UNL     1      34.630 -15.129 -23.033  0.00  0.00    -0.375 OA
BRANCH  18  20
ATOM     19  C   UNL     1      32.135 -12.256 -21.376  0.00  0.00    +0.057 C 
ATOM     20  C   UNL     1      33.801 -14.175 -22.483  0.00  0.00    +0.161 C 
ATOM     21  C   UNL     1      32.617 -12.095 -22.675  0.00  0.00    +0.018 C 
ATOM     22  C   UNL     1      32.490 -13.382 -20.635  0.00  0.00    +0.018 C 
ATOM     23  C   UNL     1      33.456 -13.061 -23.232  0.00  0.00    +0.040 C 
ATOM     24  C   UNL     1      33.327 -14.348 -21.191  0.00  0.00    +0.040 C 
BRANCH  19  25
ATOM     25  N   UNL     1      31.304 -11.297 -20.824  0.00  0.00    -0.246 N 
ATOM     26  N   UNL     1      30.252  -9.351 -20.549  0.00  0.00    -0.224 NA
ATOM     27  C   UNL     1      30.520 -11.439 -19.707  0.00  0.00    +0.092 C 
ATOM     28  C   UNL     1      31.105 -10.022 -21.291  0.00  0.00    +0.172 C 
ATOM     29  C   UNL     1      29.885 -10.228 -19.560  0.00  0.00    +0.117 C 
ENDBRANCH  19  25
ENDBRANCH  18  20
ENDBRANCH   6  18
TORSDOF 5
ENDMDL
MODEL 4
REMARK VINA RESULT:     -10.4      6.059     12.105
REMARK  Name = 10157080
REMARK  5 active torsions:
REMARK  status: ('A' for Active; 'I' for Inactive)
REMARK    1  A    between atoms: C_3  and  O_8
REMARK    2  A    between atoms: C_6  and  O_18
REMARK    3  A    between atoms: O_8  and  C_13
REMARK    4  A    between atoms: O_18  and  C_20
REMARK    5  A    between atoms: C_19  and  N_25
REMARK                            x       y       z     vdW  Elec       q    Type
REMARK                         _______ _______ _______ _____ _____    ______ ____
ROOT
ATOM      1  N   UNL     1      33.705 -15.299 -22.114  0.00  0.00    -0.277 NA
ATOM      2  N   UNL     1      33.514 -15.488 -24.509  0.00  0.00    -0.319 NA
ATOM      3  C   UNL     1      32.879 -14.242 -22.181  0.00  0.00    +0.278 C 
ATOM      4  C   UNL     1      32.334 -13.746 -23.340  0.00  0.00    +0.156 C 
ATOM      5  C   UNL     1      32.691 -14.419 -24.491  0.00  0.00    +0.113 C 
ATOM      6  C   UNL     1      33.978 -15.869 -23.303  0.00  0.00    +0.317 C 
ATOM      7  C   UNL     1      32.155 -13.962 -25.806  0.00  0.00    +0.063 C 
ENDROOT
BRANCH   3   8
ATOM      8  O   UNL     1      32.567 -13.625 -20.983  0.00  0.00    -0.429 OA
BRANCH   8  13
ATOM      9  O   UNL     1      32.151  -9.151 -22.734  0.00  0.00    -0.435 OA
ATOM     10  O   UNL     1      30.270  -8.675 -21.304  0.00  0.00    -0.435 OA
ATOM     11  C   UNL     1      31.821 -10.209 -21.944  0.00  0.00    +0.179 C 
ATOM     12  C   UNL     1      30.747  -9.937 -21.128  0.00  0.00    +0.177 C 
ATOM     13  C   UNL     1      31.973 -12.400 -21.039  0.00  0.00    +0.151 C 
ATOM     14  C   UNL     1      32.456 -11.433 -21.923  0.00  0.00    +0.078 C 
ATOM     15  C   UNL     1      30.249 -10.874 -20.245  0.00  0.00    +0.043 C 
ATOM     16  C   UNL     1      30.875 -12.122 -20.205  0.00  0.00    +0.041 C 
ATOM     17  C   UNL     1      31.163  -8.183 -22.324  0.00  0.00    +0.429 C 
ENDBRANCH   8  13
ENDBRANCH   3   8
BRANCH   6  18
ATOM     18  O   UNL     1      34.823 -16.954 -23.285  0.00  0.00    -0.375 OA
BRANCH  18  20
ATOM     19  C   UNL     1      34.279 -19.724 -20.242  0.00  0.00    +0.057 C 
ATOM     20  C   UNL     1      34.643 -17.874 -22.275  0.00  0.00    +0.161 C 
ATOM     21  C   UNL     1      33.274 -19.520 -21.187  0.00  0.00    +0.018 C 
ATOM     22  C   UNL     1      35.468 -18.998 -20.320  0.00  0.00    +0.018 C 
ATOM     23  C   UNL     1      33.456 -18.589 -22.210  0.00  0.00    +0.040 C 
ATOM     24  C   UNL     1      35.651 -18.068 -21.343  0.00  0.00    +0.040 C 
BRANCH  19  25
ATOM     25  N   UNL     1      34.098 -20.647 -19.228  0.00  0.00    -0.246 N 
ATOM     26  N   UNL     1      34.587 -22.042 -17.559  0.00  0.00    -0.224 NA
ATOM     27  C   UNL     1      32.906 -21.191 -18.819  0.00  0.00    +0.092 C 
ATOM     28  C   UNL     1      35.077 -21.194 -18.436  0.00  0.00    +0.172 C 
ATOM     29  C   UNL     1      33.235 -22.044 -17.793  0.00  0.00    +0.117 C 
ENDBRANCH  19  25
ENDBRANCH  18  20
ENDBRANCH   6  18
TORSDOF 5
ENDMDL
MODEL 5
REMARK VINA RESULT:     -10.3      7.100     13.176
REMARK  Name = 10157080
REMARK  5 active torsions:
REMARK  status: ('A' for Active; 'I' for Inactive)
REMARK    1  A    between atoms: C_3  and  O_8
REMARK    2  A    between atoms: C_6  and  O_18
REMARK    3  A    between atoms: O_8  and  C_13
REMARK    4  A    between atoms: O_18  and  C_20
REMARK    5  A    between atoms: C_19  and  N_25
REMARK                            x       y       z     vdW  Elec       q    Type
REMARK                         _______ _______ _______ _____ _____    ______ ____
ROOT
ATOM      1  N   UNL     1      33.694 -13.530 -23.774  0.00  0.00    -0.277 NA
ATOM      2  N   UNL     1      33.050 -14.562 -21.693  0.00  0.00    -0.319 NA
ATOM      3  C   UNL     1      33.041 -12.428 -23.372  0.00  0.00    +0.278 C 
ATOM      4  C   UNL     1      32.377 -12.302 -22.177  0.00  0.00    +0.156 C 
ATOM      5  C   UNL     1      32.416 -13.417 -21.364  0.00  0.00    +0.113 C 
ATOM      6  C   UNL     1      33.659 -14.549 -22.894  0.00  0.00    +0.317 C 
ATOM      7  C   UNL     1      31.727 -13.387 -20.042  0.00  0.00    +0.063 C 
ENDROOT
BRANCH   3   8
ATOM      8  O   UNL     1      33.052 -11.352 -24.243  0.00  0.00    -0.429 OA
BRANCH   8  13
ATOM      9  O   UNL     1      31.279  -7.621 -21.755  0.00  0.00    -0.435 OA
ATOM     10  O   UNL     1      33.314  -6.359 -22.031  0.00  0.00    -0.435 OA
ATOM     11  C   UNL     1      32.216  -8.301 -22.469  0.00  0.00    +0.179 C 
ATOM     12  C   UNL     1      33.378  -7.581 -22.627  0.00  0.00    +0.177 C 
ATOM     13  C   UNL     1      33.149 -10.104 -23.704  0.00  0.00    +0.151 C 
ATOM     14  C   UNL     1      32.070  -9.568 -22.997  0.00  0.00    +0.078 C 
ATOM     15  C   UNL     1      34.458  -8.088 -23.321  0.00  0.00    +0.043 C 
ATOM     16  C   UNL     1      34.336  -9.368 -23.865  0.00  0.00    +0.041 C 
ATOM     17  C   UNL     1      31.982  -6.391 -21.481  0.00  0.00    +0.429 C 
ENDBRANCH   8  13
ENDBRANCH   3   8
BRANCH   6  18
ATOM     18  O   UNL     1      34.312 -15.702 -23.264  0.00  0.00    -0.375 OA
BRANCH  18  20
ATOM     19  C   UNL     1      33.978 -18.966 -20.722  0.00  0.00    +0.057 C 
ATOM     20  C   UNL     1      34.202 -16.786 -22.420  0.00  0.00    +0.161 C 
ATOM     21  C   UNL     1      33.448 -19.029 -22.011  0.00  0.00    +0.018 C 
ATOM     22  C   UNL     1      34.621 -17.807 -20.288  0.00  0.00    +0.018 C 
ATOM     23  C   UNL     1      33.561 -17.932 -22.866  0.00  0.00    +0.040 C 
ATOM     24  C   UNL     1      34.734 -16.710 -21.142  0.00  0.00    +0.040 C 
BRANCH  19  25
ATOM     25  N   UNL     1      33.866 -20.053 -19.875  0.00  0.00    -0.246 N 
ATOM     26  N   UNL     1      34.469 -21.772 -18.589  0.00  0.00    -0.224 NA
ATOM     27  C   UNL     1      32.704 -20.589 -19.380  0.00  0.00    +0.092 C 
ATOM     28  C   UNL     1      34.898 -20.804 -19.368  0.00  0.00    +0.172 C 
ATOM     29  C   UNL     1      33.103 -21.644 -18.593  0.00  0.00    +0.117 C 
ENDBRANCH  19  25
ENDBRANCH  18  20
ENDBRANCH   6  18
TORSDOF 5
ENDMDL
MODEL 6
REMARK VINA RESULT:     -10.2      1.418      2.057
REMARK  Name = 10157080
REMARK  5 active torsions:
REMARK  status: ('A' for Active; 'I' for Inactive)
REMARK    1  A    between atoms: C_3  and  O_8
REMARK    2  A    between atoms: C_6  and  O_18
REMARK    3  A    between atoms: O_8  and  C_13
REMARK    4  A    between atoms: O_18  and  C_20
REMARK    5  A    between atoms: C_19  and  N_25
REMARK                            x       y       z     vdW  Elec       q    Type
REMARK                         _______ _______ _______ _____ _____    ______ ____
ROOT
ATOM      1  N   UNL     1      32.921 -23.317 -15.258  0.00  0.00    -0.277 NA
ATOM      2  N   UNL     1      31.170 -22.655 -16.776  0.00  0.00    -0.319 NA
ATOM      3  C   UNL     1      32.035 -23.187 -14.258  0.00  0.00    +0.278 C 
ATOM      4  C   UNL     1      30.726 -22.803 -14.415  0.00  0.00    +0.156 C 
ATOM      5  C   UNL     1      30.343 -22.547 -15.716  0.00  0.00    +0.113 C 
ATOM      6  C   UNL     1      32.427 -23.039 -16.479  0.00  0.00    +0.317 C 
ATOM      7  C   UNL     1      28.941 -22.124 -16.000  0.00  0.00    +0.063 C 
ENDROOT
BRANCH   3   8
ATOM      8  O   UNL     1      32.497 -23.465 -12.983  0.00  0.00    -0.429 OA
BRANCH   8  13
ATOM      9  O   UNL     1      36.733 -22.781 -10.783  0.00  0.00    -0.435 OA
ATOM     10  O   UNL     1      37.849 -24.317 -12.268  0.00  0.00    -0.435 OA
ATOM     11  C   UNL     1      35.886 -23.318 -11.704  0.00  0.00    +0.179 C 
ATOM     12  C   UNL     1      36.524 -24.195 -12.551  0.00  0.00    +0.177 C 
ATOM     13  C   UNL     1      33.830 -23.698 -12.831  0.00  0.00    +0.151 C 
ATOM     14  C   UNL     1      34.538 -23.048 -11.818  0.00  0.00    +0.078 C 
ATOM     15  C   UNL     1      35.848 -24.850 -13.561  0.00  0.00    +0.043 C 
ATOM     16  C   UNL     1      34.482 -24.595 -13.698  0.00  0.00    +0.041 C 
ATOM     17  C   UNL     1      37.974 -23.420 -11.146  0.00  0.00    +0.429 C 
ENDBRANCH   8  13
ENDBRANCH   3   8
BRANCH   6  18
ATOM     18  O   UNL     1      33.300 -23.156 -17.536  0.00  0.00    -0.375 OA
BRANCH  18  20
ATOM     19  C   UNL     1      33.765 -19.838 -19.985  0.00  0.00    +0.057 C 
ATOM     20  C   UNL     1      33.454 -22.054 -18.349  0.00  0.00    +0.161 C 
ATOM     21  C   UNL     1      34.887 -20.512 -19.505  0.00  0.00    +0.018 C 
ATOM     22  C   UNL     1      32.486 -20.278 -19.643  0.00  0.00    +0.018 C 
ATOM     23  C   UNL     1      34.731 -21.628 -18.682  0.00  0.00    +0.040 C 
ATOM     24  C   UNL     1      32.330 -21.394 -18.821  0.00  0.00    +0.040 C 
BRANCH  19  25
ATOM     25  N   UNL     1      33.920 -18.731 -20.801  0.00  0.00    -0.246 N 
ATOM     26  N   UNL     1      34.443 -16.659 -21.435  0.00  0.00    -0.224 NA
ATOM     27  C   UNL     1      33.605 -18.646 -22.134  0.00  0.00    +0.092 C 
ATOM     28  C   UNL     1      34.420 -17.507 -20.431  0.00  0.00    +0.172 C 
ATOM     29  C   UNL     1      33.936 -17.362 -22.498  0.00  0.00    +0.117 C 
ENDBRANCH  19  25
ENDBRANCH  18  20
ENDBRANCH   6  18
TORSDOF 5
ENDMDL
MODEL 7
REMARK VINA RESULT:     -10.0      3.541      7.181
REMARK  Name = 10157080
REMARK  5 active torsions:
REMARK  status: ('A' for Active; 'I' for Inactive)
REMARK    1  A    between atoms: C_3  and  O_8
REMARK    2  A    between atoms: C_6  and  O_18
REMARK    3  A    between atoms: O_8  and  C_13
REMARK    4  A    between atoms: O_18  and  C_20
REMARK    5  A    between atoms: C_19  and  N_25
REMARK                            x       y       z     vdW  Elec       q    Type
REMARK                         _______ _______ _______ _____ _____    ______ ____
ROOT
ATOM      1  N   UNL     1      34.552 -22.946 -13.420  0.00  0.00    -0.277 NA
ATOM      2  N   UNL     1      34.731 -25.150 -12.463  0.00  0.00    -0.319 NA
ATOM      3  C   UNL     1      35.734 -23.164 -14.019  0.00  0.00    +0.278 C 
ATOM      4  C   UNL     1      36.472 -24.316 -13.900  0.00  0.00    +0.156 C 
ATOM      5  C   UNL     1      35.913 -25.290 -13.098  0.00  0.00    +0.113 C 
ATOM      6  C   UNL     1      34.113 -23.970 -12.665  0.00  0.00    +0.317 C 
ATOM      7  C   UNL     1      36.632 -26.582 -12.902  0.00  0.00    +0.063 C 
ENDROOT
BRANCH   3   8
ATOM      8  O   UNL     1      36.224 -22.139 -14.809  0.00  0.00    -0.429 OA
BRANCH   8  13
ATOM      9  O   UNL     1      32.360 -22.302 -17.688  0.00  0.00    -0.435 OA
ATOM     10  O   UNL     1      33.527 -21.160 -19.462  0.00  0.00    -0.435 OA
ATOM     11  C   UNL     1      33.641 -21.993 -17.349  0.00  0.00    +0.179 C 
ATOM     12  C   UNL     1      34.307 -21.341 -18.361  0.00  0.00    +0.177 C 
ATOM     13  C   UNL     1      35.580 -21.881 -15.981  0.00  0.00    +0.151 C 
ATOM     14  C   UNL     1      34.251 -22.277 -16.145  0.00  0.00    +0.078 C 
ATOM     15  C   UNL     1      35.620 -20.939 -18.226  0.00  0.00    +0.043 C 
ATOM     16  C   UNL     1      36.261 -21.214 -17.016  0.00  0.00    +0.041 C 
ATOM     17  C   UNL     1      32.294 -21.770 -19.028  0.00  0.00    +0.429 C 
ENDBRANCH   8  13
ENDBRANCH   3   8
BRANCH   6  18
ATOM     18  O   UNL     1      32.906 -23.792 -12.029  0.00  0.00    -0.375 OA
BRANCH  18  20
ATOM     19  C   UNL     1      29.535 -23.445 -14.424  0.00  0.00    +0.057 C 
ATOM     20  C   UNL     1      31.787 -23.677 -12.824  0.00  0.00    +0.161 C 
ATOM     21  C   UNL     1      30.473 -22.414 -14.387  0.00  0.00    +0.018 C 
ATOM     22  C   UNL     1      29.730 -24.593 -13.657  0.00  0.00    +0.018 C 
ATOM     23  C   UNL     1      31.607 -22.530 -13.582  0.00  0.00    +0.040 C 
ATOM     24  C   UNL     1      30.863 -24.711 -12.852  0.00  0.00    +0.040 C 
BRANCH  19  25
ATOM     25  N   UNL     1      28.411 -23.329 -15.222  0.00  0.00    -0.246 N 
ATOM     26  N   UNL     1      26.712 -23.921 -16.538  0.00  0.00    -0.224 NA
ATOM     27  C   UNL     1      27.744 -22.171 -15.534  0.00  0.00    +0.092 C 
ATOM     28  C   UNL     1      27.748 -24.352 -15.853  0.00  0.00    +0.172 C 
ATOM     29  C   UNL     1      26.705 -22.563 -16.344  0.00  0.00    +0.117 C 
ENDBRANCH  19  25
ENDBRANCH  18  20
ENDBRANCH   6  18
TORSDOF 5
ENDMDL
MODEL 8
REMARK VINA RESULT:      -9.9      3.032      7.682
REMARK  Name = 10157080
REMARK  5 active torsions:
REMARK  status: ('A' for Active; 'I' for Inactive)
REMARK    1  A    between atoms: C_3  and  O_8
REMARK    2  A    between atoms: C_6  and  O_18
REMARK    3  A    between atoms: O_8  and  C_13
REMARK    4  A    between atoms: O_18  and  C_20
REMARK    5  A    between atoms: C_19  and  N_25
REMARK                            x       y       z     vdW  Elec       q    Type
REMARK                         _______ _______ _______ _____ _____    ______ ____
ROOT
ATOM      1  N   UNL     1      32.674 -22.960 -15.403  0.00  0.00    -0.277 NA
ATOM      2  N   UNL     1      30.723 -22.542 -14.052  0.00  0.00    -0.319 NA
ATOM      3  C   UNL     1      31.872 -22.942 -16.480  0.00  0.00    +0.278 C 
ATOM      4  C   UNL     1      30.514 -22.738 -16.442  0.00  0.00    +0.156 C 
ATOM      5  C   UNL     1      29.986 -22.540 -15.182  0.00  0.00    +0.113 C 
ATOM      6  C   UNL     1      32.041 -22.755 -14.233  0.00  0.00    +0.317 C 
ATOM      7  C   UNL     1      28.521 -22.308 -15.028  0.00  0.00    +0.063 C 
ENDROOT
BRANCH   3   8
ATOM      8  O   UNL     1      32.479 -23.145 -17.706  0.00  0.00    -0.429 OA
BRANCH   8  13
ATOM      9  O   UNL     1      35.929 -20.157 -19.262  0.00  0.00    -0.435 OA
ATOM     10  O   UNL     1      34.328 -18.769 -20.410  0.00  0.00    -0.435 OA
ATOM     11  C   UNL     1      34.655 -20.614 -19.123  0.00  0.00    +0.179 C 
ATOM     12  C   UNL     1      33.741 -19.822 -19.779  0.00  0.00    +0.177 C 
ATOM     13  C   UNL     1      32.908 -22.047 -18.389  0.00  0.00    +0.151 C 
ATOM     14  C   UNL     1      34.269 -21.736 -18.418  0.00  0.00    +0.078 C 
ATOM     15  C   UNL     1      32.391 -20.107 -19.766  0.00  0.00    +0.043 C 
ATOM     16  C   UNL     1      31.974 -21.237 -19.059  0.00  0.00    +0.041 C 
ATOM     17  C   UNL     1      35.714 -18.988 -20.079  0.00  0.00    +0.429 C 
ENDBRANCH   8  13
ENDBRANCH   3   8
BRANCH   6  18
ATOM     18  O   UNL     1      32.822 -22.768 -13.101  0.00  0.00    -0.375 OA
BRANCH  18  20
ATOM     19  C   UNL     1      36.644 -24.346 -13.454  0.00  0.00    +0.057 C 
ATOM     20  C   UNL     1      34.091 -23.292 -13.219  0.00  0.00    +0.161 C 
ATOM     21  C   UNL     1      35.646 -25.075 -12.808  0.00  0.00    +0.018 C 
ATOM     22  C   UNL     1      36.358 -23.088 -13.982  0.00  0.00    +0.018 C 
ATOM     23  C   UNL     1      34.361 -24.545 -12.690  0.00  0.00    +0.040 C 
ATOM     24  C   UNL     1      35.074 -22.557 -13.864  0.00  0.00    +0.040 C 
BRANCH  19  25
ATOM     25  N   UNL     1      37.918 -24.872 -13.571  0.00  0.00    -0.246 N 
ATOM     26  N   UNL     1      39.929 -25.308 -14.430  0.00  0.00    -0.224 NA
ATOM     27  C   UNL     1      38.552 -25.691 -12.671  0.00  0.00    +0.092 C 
ATOM     28  C   UNL     1      38.792 -24.674 -14.611  0.00  0.00    +0.172 C 
ATOM     29  C   UNL     1      39.785 -25.944 -13.223  0.00  0.00    +0.117 C 
ENDBRANCH  19  25
ENDBRANCH  18  20
ENDBRANCH   6  18
TORSDOF 5
ENDMDL
MODEL 9
REMARK VINA RESULT:      -9.8      7.355     13.163
REMARK  Name = 10157080
REMARK  5 active torsions:
REMARK  status: ('A' for Active; 'I' for Inactive)
REMARK    1  A    between atoms: C_3  and  O_8
REMARK    2  A    between atoms: C_6  and  O_18
REMARK    3  A    between atoms: O_8  and  C_13
REMARK    4  A    between atoms: O_18  and  C_20
REMARK    5  A    between atoms: C_19  and  N_25
REMARK                            x       y       z     vdW  Elec       q    Type
REMARK                         _______ _______ _______ _____ _____    ______ ____
ROOT
ATOM      1  N   UNL     1      32.001 -13.187 -22.680  0.00  0.00    -0.277 NA
ATOM      2  N   UNL     1      33.590 -12.190 -24.194  0.00  0.00    -0.319 NA
ATOM      3  C   UNL     1      31.807 -11.965 -22.158  0.00  0.00    +0.278 C 
ATOM      4  C   UNL     1      32.444 -10.823 -22.578  0.00  0.00    +0.156 C 
ATOM      5  C   UNL     1      33.338 -10.998 -23.615  0.00  0.00    +0.113 C 
ATOM      6  C   UNL     1      32.897 -13.227 -23.685  0.00  0.00    +0.317 C 
ATOM      7  C   UNL     1      34.084  -9.822 -24.148  0.00  0.00    +0.063 C 
ENDROOT
BRANCH   3   8
ATOM      8  O   UNL     1      30.893 -11.873 -21.123  0.00  0.00    -0.429 OA
BRANCH   8  13
ATOM      9  O   UNL     1      30.677  -7.081 -20.630  0.00  0.00    -0.435 OA
ATOM     10  O   UNL     1      30.893  -7.233 -18.234  0.00  0.00    -0.435 OA
ATOM     11  C   UNL     1      30.783  -8.368 -20.201  0.00  0.00    +0.179 C 
ATOM     12  C   UNL     1      30.907  -8.455 -18.833  0.00  0.00    +0.177 C 
ATOM     13  C   UNL     1      30.897 -10.735 -20.375  0.00  0.00    +0.151 C 
ATOM     14  C   UNL     1      30.775  -9.492 -21.001  0.00  0.00    +0.078 C 
ATOM     15  C   UNL     1      31.029  -9.669 -18.190  0.00  0.00    +0.043 C 
ATOM     16  C   UNL     1      31.023 -10.823 -18.977  0.00  0.00    +0.041 C 
ATOM     17  C   UNL     1      30.746  -6.367 -19.379  0.00  0.00    +0.429 C 
ENDBRANCH   8  13
ENDBRANCH   3   8
BRANCH   6  18
ATOM     18  O   UNL     1      33.131 -14.459 -24.249  0.00  0.00    -0.375 OA
BRANCH  18  20
ATOM     19  C   UNL     1      34.236 -17.536 -21.692  0.00  0.00    +0.057 C 
ATOM     20  C   UNL     1      33.498 -15.481 -23.400  0.00  0.00    +0.161 C 
ATOM     21  C   UNL     1      33.819 -17.825 -22.991  0.00  0.00    +0.018 C 
ATOM     22  C   UNL     1      34.282 -16.213 -21.252  0.00  0.00    +0.018 C 
ATOM     23  C   UNL     1      33.449 -16.791 -23.851  0.00  0.00    +0.040 C 
ATOM     24  C   UNL     1      33.911 -15.179 -22.111  0.00  0.00    +0.040 C 
BRANCH  19  25
ATOM     25  N   UNL     1      34.603 -18.561 -20.839  0.00  0.00    -0.246 N 
ATOM     26  N   UNL     1      35.870 -19.808 -19.494  0.00  0.00    -0.224 NA
ATOM     27  C   UNL     1      33.809 -19.596 -20.413  0.00  0.00    +0.092 C 
ATOM     28  C   UNL     1      35.834 -18.738 -20.257  0.00  0.00    +0.172 C 
ATOM     29  C   UNL     1      34.612 -20.347 -19.588  0.00  0.00    +0.117 C 
ENDBRANCH  19  25
ENDBRANCH  18  20
ENDBRANCH   6  18
TORSDOF 5
ENDMDL
