MODEL 1
REMARK VINA RESULT:     -12.0      0.000      0.000
REMARK  Name = 66599893
REMARK  9 active torsions:
REMARK  status: ('A' for Active; 'I' for Inactive)
REMARK    1  A    between atoms: C_1  and  C_2
REMARK    2  A    between atoms: C_1  and  C_22
REMARK    3  A    between atoms: C_1  and  C_34
REMARK    4  A    between atoms: C_5  and  C_8
REMARK    5  A    between atoms: C_8  and  O_9
REMARK    6  A    between atoms: O_9  and  C_11
REMARK    7  A    between atoms: C_11  and  C_12
REMARK    8  A    between atoms: N_21  and  C_25
REMARK    9  A    between atoms: C_34  and  N_35
REMARK                            x       y       z     vdW  Elec       q    Type
REMARK                         _______ _______ _______ _____ _____    ______ ____
ROOT
ATOM      1  C   UNL     1      34.482 -17.352 -22.286  0.00  0.00    +0.077 C 
ENDROOT
BRANCH   1   2
ATOM      2  C   UNL     1      34.515 -18.449 -21.233  0.00  0.00    -0.016 C 
ATOM      3  C   UNL     1      33.337 -19.102 -20.868  0.00  0.00    -0.004 C 
ATOM      4  C   UNL     1      35.724 -18.803 -20.632  0.00  0.00    -0.004 C 
ATOM      5  C   UNL     1      34.575 -20.461 -19.302  0.00  0.00    +0.021 C 
ATOM      6  C   UNL     1      33.368 -20.107 -19.902  0.00  0.00    -0.001 C 
ATOM      7  C   UNL     1      35.753 -19.809 -19.666  0.00  0.00    -0.001 C 
BRANCH   5   8
ATOM      8  C   UNL     1      34.608 -21.538 -18.269  0.00  0.00    +0.235 C 
BRANCH   8   9
ATOM      9  O   UNL     1      33.357 -21.584 -17.594  0.00  0.00    -0.440 OA
BRANCH   9  11
ATOM     10  O   UNL     1      32.845 -23.727 -18.258  0.00  0.00    -0.245 OA
ATOM     11  C   UNL     1      32.806 -22.819 -17.443  0.00  0.00    +0.341 C 
BRANCH  11  12
ATOM     12  C   UNL     1      32.129 -22.934 -16.126  0.00  0.00    +0.072 C 
ATOM     13  C   UNL     1      32.849 -23.226 -14.968  0.00  0.00    -0.016 C 
ATOM     14  C   UNL     1      30.809 -23.142 -13.677  0.00  0.00    -0.022 C 
ATOM     15  C   UNL     1      32.189 -23.329 -13.744  0.00  0.00    -0.008 C 
ATOM     16  C   UNL     1      30.748 -22.747 -16.061  0.00  0.00    +0.006 C 
ATOM     17  C   UNL     1      30.088 -22.851 -14.836  0.00  0.00    -0.004 C 
ATOM     18  C   UNL     1      34.328 -23.430 -15.010  0.00  0.00    +0.031 C 
ATOM     19  C   UNL     1      30.101 -23.254 -12.370  0.00  0.00    +0.031 C 
ENDBRANCH  11  12
ENDBRANCH   9  11
ENDBRANCH   8   9
ENDBRANCH   5   8
ENDBRANCH   1   2
BRANCH   1  22
ATOM     20  O   UNL     1      34.159 -15.819 -20.445  0.00  0.00    -0.275 OA
ATOM     21  N   UNL     1      33.537 -15.126 -22.604  0.00  0.00    -0.284 N 
ATOM     22  C   UNL     1      34.054 -16.020 -21.652  0.00  0.00    +0.228 C 
ATOM     23  H   UNL     1      33.514 -15.453 -23.532  0.00  0.00    +0.155 HD
BRANCH  21  25
ATOM     24  N   UNL     1      30.733  -9.660 -20.722  0.00  0.00    -0.242 NA
ATOM     25  C   UNL     1      33.053 -13.832 -22.400  0.00  0.00    +0.050 C 
ATOM     26  C   UNL     1      32.196 -13.571 -21.330  0.00  0.00    +0.015 C 
ATOM     27  C   UNL     1      31.699 -12.275 -21.113  0.00  0.00    +0.004 C 
ATOM     28  C   UNL     1      33.426 -12.807 -23.265  0.00  0.00    +0.015 C 
ATOM     29  C   UNL     1      32.079 -11.239 -21.991  0.00  0.00    +0.019 C 
ATOM     30  C   UNL     1      32.943 -11.514 -23.065  0.00  0.00    +0.003 C 
ATOM     31  C   UNL     1      30.838 -11.980 -20.049  0.00  0.00    +0.021 C 
ATOM     32  C   UNL     1      31.566  -9.964 -21.743  0.00  0.00    +0.099 C 
ATOM     33  C   UNL     1      30.392 -10.676 -19.901  0.00  0.00    +0.099 C 
ENDBRANCH  21  25
ENDBRANCH   1  22
BRANCH   1  34
ATOM     34  C   UNL     1      33.569 -17.695 -23.480  0.00  0.00    -0.072 C 
BRANCH  34  35
ATOM     35  N   UNL     1      33.808 -19.047 -23.978  0.00  0.00    +0.381 N 
ATOM     36  H   UNL     1      34.786 -19.295 -23.833  0.00  0.00    -0.089 HD
ATOM     37  H   UNL     1      33.591 -19.086 -24.974  0.00  0.00    -0.089 HD
ATOM     38  H   UNL     1      33.212 -19.704 -23.475  0.00  0.00    -0.089 HD
ENDBRANCH  34  35
ENDBRANCH   1  34
TORSDOF 9
ENDMDL
MODEL 2
REMARK VINA RESULT:     -12.0      1.990      3.527
REMARK  Name = 66599893
REMARK  9 active torsions:
REMARK  status: ('A' for Active; 'I' for Inactive)
REMARK    1  A    between atoms: C_1  and  C_2
REMARK    2  A    between atoms: C_1  and  C_22
REMARK    3  A    between atoms: C_1  and  C_34
REMARK    4  A    between atoms: C_5  and  C_8
REMARK    5  A    between atoms: C_8  and  O_9
REMARK    6  A    between atoms: O_9  and  C_11
REMARK    7  A    between atoms: C_11  and  C_12
REMARK    8  A    between atoms: N_21  and  C_25
REMARK    9  A    between atoms: C_34  and  N_35
REMARK                            x       y       z     vdW  Elec       q    Type
REMARK                         _______ _______ _______ _____ _____    ______ ____
ROOT
ATOM      1  C   UNL     1      34.430 -18.995 -21.650  0.00  0.00    +0.077 C 
ENDROOT
BRANCH   1   2
ATOM      2  C   UNL     1      33.918 -19.843 -20.496  0.00  0.00    -0.016 C 
ATOM      3  C   UNL     1      32.552 -19.895 -20.220  0.00  0.00    -0.004 C 
ATOM      4  C   UNL     1      34.816 -20.571 -19.713  0.00  0.00    -0.004 C 
ATOM      5  C   UNL     1      32.980 -21.399 -18.379  0.00  0.00    +0.021 C 
ATOM      6  C   UNL     1      32.083 -20.672 -19.161  0.00  0.00    -0.001 C 
ATOM      7  C   UNL     1      34.346 -21.348 -18.654  0.00  0.00    -0.001 C 
BRANCH   5   8
ATOM      8  C   UNL     1      32.478 -22.232 -17.248  0.00  0.00    +0.235 C 
BRANCH   8   9
ATOM      9  O   UNL     1      33.569 -22.917 -16.645  0.00  0.00    -0.440 OA
BRANCH   9  11
ATOM     10  O   UNL     1      32.706 -22.507 -14.551  0.00  0.00    -0.245 OA
ATOM     11  C   UNL     1      33.584 -22.935 -15.285  0.00  0.00    +0.341 C 
BRANCH  11  12
ATOM     12  C   UNL     1      34.836 -23.555 -14.781  0.00  0.00    +0.072 C 
ATOM     13  C   UNL     1      36.058 -22.890 -14.874  0.00  0.00    -0.016 C 
ATOM     14  C   UNL     1      37.160 -24.765 -13.822  0.00  0.00    -0.022 C 
ATOM     15  C   UNL     1      37.220 -23.494 -14.394  0.00  0.00    -0.008 C 
ATOM     16  C   UNL     1      34.775 -24.826 -14.209  0.00  0.00    +0.006 C 
ATOM     17  C   UNL     1      35.937 -25.431 -13.729  0.00  0.00    -0.004 C 
ATOM     18  C   UNL     1      36.151 -21.528 -15.481  0.00  0.00    +0.031 C 
ATOM     19  C   UNL     1      38.400 -25.414 -13.309  0.00  0.00    +0.031 C 
ENDBRANCH  11  12
ENDBRANCH   9  11
ENDBRANCH   8   9
ENDBRANCH   5   8
ENDBRANCH   1   2
BRANCH   1  22
ATOM     20  O   UNL     1      34.538 -17.077 -20.182  0.00  0.00    -0.275 OA
ATOM     21  N   UNL     1      33.879 -16.746 -22.415  0.00  0.00    -0.284 N 
ATOM     22  C   UNL     1      34.301 -17.503 -21.310  0.00  0.00    +0.228 C 
ATOM     23  H   UNL     1      33.722 -17.249 -23.246  0.00  0.00    +0.155 HD
BRANCH  21  25
ATOM     24  N   UNL     1      32.757 -10.601 -23.923  0.00  0.00    -0.242 NA
ATOM     25  C   UNL     1      33.653 -15.369 -22.484  0.00  0.00    +0.050 C 
ATOM     26  C   UNL     1      33.434 -14.761 -23.721  0.00  0.00    +0.015 C 
ATOM     27  C   UNL     1      33.208 -13.378 -23.807  0.00  0.00    +0.004 C 
ATOM     28  C   UNL     1      33.647 -14.607 -21.320  0.00  0.00    +0.015 C 
ATOM     29  C   UNL     1      33.203 -12.609 -22.625  0.00  0.00    +0.019 C 
ATOM     30  C   UNL     1      33.424 -13.232 -21.385  0.00  0.00    +0.003 C 
ATOM     31  C   UNL     1      32.985 -12.738 -25.033  0.00  0.00    +0.021 C 
ATOM     32  C   UNL     1      32.973 -11.237 -22.749  0.00  0.00    +0.099 C 
ATOM     33  C   UNL     1      32.769 -11.369 -25.034  0.00  0.00    +0.099 C 
ENDBRANCH  21  25
ENDBRANCH   1  22
BRANCH   1  34
ATOM     34  C   UNL     1      33.719 -19.304 -22.983  0.00  0.00    -0.072 C 
BRANCH  34  35
ATOM     35  N   UNL     1      34.506 -20.202 -23.824  0.00  0.00    +0.381 N 
ATOM     36  H   UNL     1      34.762 -19.722 -24.687  0.00  0.00    -0.089 HD
ATOM     37  H   UNL     1      33.954 -21.030 -24.047  0.00  0.00    -0.089 HD
ATOM     38  H   UNL     1      35.351 -20.481 -23.326  0.00  0.00    -0.089 HD
ENDBRANCH  34  35
ENDBRANCH   1  34
TORSDOF 9
ENDMDL
MODEL 3
REMARK VINA RESULT:     -11.9      1.611      2.721
REMARK  Name = 66599893
REMARK  9 active torsions:
REMARK  status: ('A' for Active; 'I' for Inactive)
REMARK    1  A    between atoms: C_1  and  C_2
REMARK    2  A    between atoms: C_1  and  C_22
REMARK    3  A    between atoms: C_1  and  C_34
REMARK    4  A    between atoms: C_5  and  C_8
REMARK    5  A    between atoms: C_8  and  O_9
REMARK    6  A    between atoms: O_9  and  C_11
REMARK    7  A    between atoms: C_11  and  C_12
REMARK    8  A    between atoms: N_21  and  C_25
REMARK    9  A    between atoms: C_34  and  N_35
REMARK                            x       y       z     vdW  Elec       q    Type
REMARK                         _______ _______ _______ _____ _____    ______ ____
ROOT
ATOM      1  C   UNL     1      34.664 -18.124 -21.532  0.00  0.00    +0.077 C 
ENDROOT
BRANCH   1   2
ATOM      2  C   UNL     1      34.168 -19.197 -20.576  0.00  0.00    -0.016 C 
ATOM      3  C   UNL     1      32.799 -19.418 -20.424  0.00  0.00    -0.004 C 
ATOM      4  C   UNL     1      35.082 -19.962 -19.851  0.00  0.00    -0.004 C 
ATOM      5  C   UNL     1      33.258 -21.166 -18.822  0.00  0.00    +0.021 C 
ATOM      6  C   UNL     1      32.344 -20.402 -19.546  0.00  0.00    -0.001 C 
ATOM      7  C   UNL     1      34.627 -20.946 -18.973  0.00  0.00    -0.001 C 
BRANCH   5   8
ATOM      8  C   UNL     1      32.772 -22.220 -17.884  0.00  0.00    +0.235 C 
BRANCH   8   9
ATOM      9  O   UNL     1      33.842 -22.635 -17.044  0.00  0.00    -0.440 OA
BRANCH   9  11
ATOM     10  O   UNL     1      32.490 -22.473 -15.188  0.00  0.00    -0.245 OA
ATOM     11  C   UNL     1      33.540 -22.789 -15.726  0.00  0.00    +0.341 C 
BRANCH  11  12
ATOM     12  C   UNL     1      34.677 -23.405 -14.996  0.00  0.00    +0.072 C 
ATOM     13  C   UNL     1      35.924 -22.784 -14.948  0.00  0.00    -0.016 C 
ATOM     14  C   UNL     1      36.781 -24.605 -13.611  0.00  0.00    -0.022 C 
ATOM     15  C   UNL     1      36.976 -23.383 -14.255  0.00  0.00    -0.008 C 
ATOM     16  C   UNL     1      34.481 -24.627 -14.352  0.00  0.00    +0.006 C 
ATOM     17  C   UNL     1      35.533 -25.227 -13.660  0.00  0.00    -0.004 C 
ATOM     18  C   UNL     1      36.161 -21.475 -15.627  0.00  0.00    +0.031 C 
ATOM     19  C   UNL     1      37.905 -25.248 -12.872  0.00  0.00    +0.031 C 
ENDBRANCH  11  12
ENDBRANCH   9  11
ENDBRANCH   8   9
ENDBRANCH   5   8
ENDBRANCH   1   2
BRANCH   1  22
ATOM     20  O   UNL     1      34.257 -16.425 -19.862  0.00  0.00    -0.275 OA
ATOM     21  N   UNL     1      33.771 -15.928 -22.108  0.00  0.00    -0.284 N 
ATOM     22  C   UNL     1      34.219 -16.736 -21.049  0.00  0.00    +0.228 C 
ATOM     23  H   UNL     1      33.797 -16.339 -23.002  0.00  0.00    +0.155 HD
BRANCH  21  25
ATOM     24  N   UNL     1      31.073 -10.243 -20.811  0.00  0.00    -0.242 NA
ATOM     25  C   UNL     1      33.295 -14.617 -22.053  0.00  0.00    +0.050 C 
ATOM     26  C   UNL     1      32.513 -14.206 -20.972  0.00  0.00    +0.015 C 
ATOM     27  C   UNL     1      32.024 -12.891 -20.902  0.00  0.00    +0.004 C 
ATOM     28  C   UNL     1      33.600 -13.723 -23.075  0.00  0.00    +0.015 C 
ATOM     29  C   UNL     1      32.336 -11.988 -21.940  0.00  0.00    +0.019 C 
ATOM     30  C   UNL     1      33.125 -12.413 -23.023  0.00  0.00    +0.003 C 
ATOM     31  C   UNL     1      31.238 -12.448 -19.832  0.00  0.00    +0.021 C 
ATOM     32  C   UNL     1      31.834 -10.689 -21.836  0.00  0.00    +0.099 C 
ATOM     33  C   UNL     1      30.795 -11.134 -19.836  0.00  0.00    +0.099 C 
ENDBRANCH  21  25
ENDBRANCH   1  22
BRANCH   1  34
ATOM     34  C   UNL     1      34.206 -18.358 -22.986  0.00  0.00    -0.072 C 
BRANCH  34  35
ATOM     35  N   UNL     1      34.277 -19.767 -23.360  0.00  0.00    +0.381 N 
ATOM     36  H   UNL     1      35.176 -20.152 -23.067  0.00  0.00    -0.089 HD
ATOM     37  H   UNL     1      34.184 -19.856 -24.372  0.00  0.00    -0.089 HD
ATOM     38  H   UNL     1      33.522 -20.279 -22.903  0.00  0.00    -0.089 HD
ENDBRANCH  34  35
ENDBRANCH   1  34
TORSDOF 9
ENDMDL
MODEL 4
REMARK VINA RESULT:     -11.9      3.066     11.624
REMARK  Name = 66599893
REMARK  9 active torsions:
REMARK  status: ('A' for Active; 'I' for Inactive)
REMARK    1  A    between atoms: C_1  and  C_2
REMARK    2  A    between atoms: C_1  and  C_22
REMARK    3  A    between atoms: C_1  and  C_34
REMARK    4  A    between atoms: C_5  and  C_8
REMARK    5  A    between atoms: C_8  and  O_9
REMARK    6  A    between atoms: O_9  and  C_11
REMARK    7  A    between atoms: C_11  and  C_12
REMARK    8  A    between atoms: N_21  and  C_25
REMARK    9  A    between atoms: C_34  and  N_35
REMARK                            x       y       z     vdW  Elec       q    Type
REMARK                         _______ _______ _______ _____ _____    ______ ____
ROOT
ATOM      1  C   UNL     1      35.001 -18.523 -21.570  0.00  0.00    +0.077 C 
ENDROOT
BRANCH   1   2
ATOM      2  C   UNL     1      34.329 -17.223 -21.984  0.00  0.00    -0.016 C 
ATOM      3  C   UNL     1      33.844 -17.070 -23.283  0.00  0.00    -0.004 C 
ATOM      4  C   UNL     1      34.195 -16.183 -21.063  0.00  0.00    -0.004 C 
ATOM      5  C   UNL     1      33.095 -14.838 -22.742  0.00  0.00    +0.021 C 
ATOM      6  C   UNL     1      33.229 -15.877 -23.662  0.00  0.00    -0.001 C 
ATOM      7  C   UNL     1      33.579 -14.991 -21.442  0.00  0.00    -0.001 C 
BRANCH   5   8
ATOM      8  C   UNL     1      32.435 -13.563 -23.146  0.00  0.00    +0.235 C 
BRANCH   8   9
ATOM      9  O   UNL     1      33.419 -12.547 -23.292  0.00  0.00    -0.440 OA
BRANCH   9  11
ATOM     10  O   UNL     1      33.012 -11.883 -25.458  0.00  0.00    -0.245 OA
ATOM     11  C   UNL     1      33.193 -11.634 -24.276  0.00  0.00    +0.341 C 
BRANCH  11  12
ATOM     12  C   UNL     1      33.193 -10.256 -23.723  0.00  0.00    +0.072 C 
ATOM     13  C   UNL     1      34.161  -9.327 -24.103  0.00  0.00    -0.016 C 
ATOM     14  C   UNL     1      33.149  -7.679 -22.655  0.00  0.00    -0.022 C 
ATOM     15  C   UNL     1      34.139  -8.039 -23.569  0.00  0.00    -0.008 C 
ATOM     16  C   UNL     1      32.203  -9.897 -22.809  0.00  0.00    +0.006 C 
ATOM     17  C   UNL     1      32.181  -8.609 -22.274  0.00  0.00    -0.004 C 
ATOM     18  C   UNL     1      35.232  -9.685 -25.081  0.00  0.00    +0.031 C 
ATOM     19  C   UNL     1      33.125  -6.303 -22.082  0.00  0.00    +0.031 C 
ENDBRANCH  11  12
ENDBRANCH   9  11
ENDBRANCH   8   9
ENDBRANCH   5   8
ENDBRANCH   1   2
BRANCH   1  22
ATOM     20  O   UNL     1      32.846 -19.390 -20.902  0.00  0.00    -0.275 OA
ATOM     21  N   UNL     1      34.741 -20.014 -19.658  0.00  0.00    -0.284 N 
ATOM     22  C   UNL     1      34.056 -19.354 -20.691  0.00  0.00    +0.228 C 
ATOM     23  H   UNL     1      35.714 -19.868 -19.626  0.00  0.00    +0.155 HD
BRANCH  21  25
ATOM     24  N   UNL     1      33.435 -23.796 -14.630  0.00  0.00    -0.242 NA
ATOM     25  C   UNL     1      34.218 -20.853 -18.672  0.00  0.00    +0.050 C 
ATOM     26  C   UNL     1      35.021 -21.259 -17.605  0.00  0.00    +0.015 C 
ATOM     27  C   UNL     1      34.510 -22.103 -16.606  0.00  0.00    +0.004 C 
ATOM     28  C   UNL     1      32.896 -21.282 -18.754  0.00  0.00    +0.015 C 
ATOM     29  C   UNL     1      33.170 -22.536 -16.693  0.00  0.00    +0.019 C 
ATOM     30  C   UNL     1      32.371 -22.120 -17.772  0.00  0.00    +0.003 C 
ATOM     31  C   UNL     1      35.290 -22.529 -15.524  0.00  0.00    +0.021 C 
ATOM     32  C   UNL     1      32.697 -23.374 -15.682  0.00  0.00    +0.099 C 
ATOM     33  C   UNL     1      34.712 -23.361 -14.579  0.00  0.00    +0.099 C 
ENDBRANCH  21  25
ENDBRANCH   1  22
BRANCH   1  34
ATOM     34  C   UNL     1      36.345 -18.299 -20.848  0.00  0.00    -0.072 C 
BRANCH  34  35
ATOM     35  N   UNL     1      37.468 -18.275 -21.782  0.00  0.00    +0.381 N 
ATOM     36  H   UNL     1      38.294 -18.668 -21.331  0.00  0.00    -0.089 HD
ATOM     37  H   UNL     1      37.658 -17.312 -22.060  0.00  0.00    -0.089 HD
ATOM     38  H   UNL     1      37.235 -18.827 -22.608  0.00  0.00    -0.089 HD
ENDBRANCH  34  35
ENDBRANCH   1  34
TORSDOF 9
ENDMDL
MODEL 5
REMARK VINA RESULT:     -11.7      2.430      4.497
REMARK  Name = 66599893
REMARK  9 active torsions:
REMARK  status: ('A' for Active; 'I' for Inactive)
REMARK    1  A    between atoms: C_1  and  C_2
REMARK    2  A    between atoms: C_1  and  C_22
REMARK    3  A    between atoms: C_1  and  C_34
REMARK    4  A    between atoms: C_5  and  C_8
REMARK    5  A    between atoms: C_8  and  O_9
REMARK    6  A    between atoms: O_9  and  C_11
REMARK    7  A    between atoms: C_11  and  C_12
REMARK    8  A    between atoms: N_21  and  C_25
REMARK    9  A    between atoms: C_34  and  N_35
REMARK                            x       y       z     vdW  Elec       q    Type
REMARK                         _______ _______ _______ _____ _____    ______ ____
ROOT
ATOM      1  C   UNL     1      32.900 -13.787 -25.028  0.00  0.00    +0.077 C 
ENDROOT
BRANCH   1   2
ATOM      2  C   UNL     1      33.165 -15.166 -24.444  0.00  0.00    -0.016 C 
ATOM      3  C   UNL     1      34.223 -15.357 -23.555  0.00  0.00    -0.004 C 
ATOM      4  C   UNL     1      32.350 -16.242 -24.799  0.00  0.00    -0.004 C 
ATOM      5  C   UNL     1      33.652 -17.697 -23.375  0.00  0.00    +0.021 C 
ATOM      6  C   UNL     1      34.466 -16.622 -23.021  0.00  0.00    -0.001 C 
ATOM      7  C   UNL     1      32.594 -17.507 -24.264  0.00  0.00    -0.001 C 
BRANCH   5   8
ATOM      8  C   UNL     1      33.911 -19.050 -22.802  0.00  0.00    +0.235 C 
BRANCH   8   9
ATOM      9  O   UNL     1      33.260 -19.163 -21.543  0.00  0.00    -0.440 OA
BRANCH   9  11
ATOM     10  O   UNL     1      35.074 -18.540 -20.271  0.00  0.00    -0.245 OA
ATOM     11  C   UNL     1      34.074 -19.216 -20.454  0.00  0.00    +0.341 C 
BRANCH  11  12
ATOM     12  C   UNL     1      33.585 -20.227 -19.482  0.00  0.00    +0.072 C 
ATOM     13  C   UNL     1      34.475 -21.015 -18.752  0.00  0.00    -0.016 C 
ATOM     14  C   UNL     1      32.616 -22.114 -17.670  0.00  0.00    -0.022 C 
ATOM     15  C   UNL     1      33.991 -21.958 -17.846  0.00  0.00    -0.008 C 
ATOM     16  C   UNL     1      32.210 -20.383 -19.306  0.00  0.00    +0.006 C 
ATOM     17  C   UNL     1      31.725 -21.326 -18.400  0.00  0.00    -0.004 C 
ATOM     18  C   UNL     1      35.952 -20.869 -18.921  0.00  0.00    +0.031 C 
ATOM     19  C   UNL     1      32.096 -23.123 -16.702  0.00  0.00    +0.031 C 
ENDBRANCH  11  12
ENDBRANCH   9  11
ENDBRANCH   8   9
ENDBRANCH   5   8
ENDBRANCH   1   2
BRANCH   1  22
ATOM     20  O   UNL     1      33.560 -11.724 -23.955  0.00  0.00    -0.275 OA
ATOM     21  N   UNL     1      31.979 -13.093 -22.879  0.00  0.00    -0.284 N 
ATOM     22  C   UNL     1      32.864 -12.735 -23.909  0.00  0.00    +0.228 C 
ATOM     23  H   UNL     1      31.505 -13.947 -22.996  0.00  0.00    +0.155 HD
BRANCH  21  25
ATOM     24  N   UNL     1      30.660  -8.878 -18.211  0.00  0.00    -0.242 NA
ATOM     25  C   UNL     1      31.686 -12.389 -21.709  0.00  0.00    +0.050 C 
ATOM     26  C   UNL     1      31.541 -11.001 -21.750  0.00  0.00    +0.015 C 
ATOM     27  C   UNL     1      31.249 -10.278 -20.582  0.00  0.00    +0.004 C 
ATOM     28  C   UNL     1      31.540 -13.071 -20.505  0.00  0.00    +0.015 C 
ATOM     29  C   UNL     1      31.101 -10.974 -19.364  0.00  0.00    +0.019 C 
ATOM     30  C   UNL     1      31.249 -12.371 -19.335  0.00  0.00    +0.003 C 
ATOM     31  C   UNL     1      31.097  -8.886 -20.590  0.00  0.00    +0.021 C 
ATOM     32  C   UNL     1      30.810 -10.222 -18.224  0.00  0.00    +0.099 C 
ATOM     33  C   UNL     1      30.808  -8.246 -19.395  0.00  0.00    +0.099 C 
ENDBRANCH  21  25
ENDBRANCH   1  22
BRANCH   1  34
ATOM     34  C   UNL     1      31.604 -13.728 -25.861  0.00  0.00    -0.072 C 
BRANCH  34  35
ATOM     35  N   UNL     1      31.305 -12.370 -26.307  0.00  0.00    +0.381 N 
ATOM     36  H   UNL     1      30.725 -11.903 -25.610  0.00  0.00    -0.089 HD
ATOM     37  H   UNL     1      30.805 -12.407 -27.195  0.00  0.00    -0.089 HD
ATOM     38  H   UNL     1      32.176 -11.853 -26.428  0.00  0.00    -0.089 HD
ENDBRANCH  34  35
ENDBRANCH   1  34
TORSDOF 9
ENDMDL
MODEL 6
REMARK VINA RESULT:     -11.6      3.389     10.651
REMARK  Name = 66599893
REMARK  9 active torsions:
REMARK  status: ('A' for Active; 'I' for Inactive)
REMARK    1  A    between atoms: C_1  and  C_2
REMARK    2  A    between atoms: C_1  and  C_22
REMARK    3  A    between atoms: C_1  and  C_34
REMARK    4  A    between atoms: C_5  and  C_8
REMARK    5  A    between atoms: C_8  and  O_9
REMARK    6  A    between atoms: O_9  and  C_11
REMARK    7  A    between atoms: C_11  and  C_12
REMARK    8  A    between atoms: N_21  and  C_25
REMARK    9  A    between atoms: C_34  and  N_35
REMARK                            x       y       z     vdW  Elec       q    Type
REMARK                         _______ _______ _______ _____ _____    ______ ____
ROOT
ATOM      1  C   UNL     1      35.256 -21.657 -17.950  0.00  0.00    +0.077 C 
ENDROOT
BRANCH   1   2
ATOM      2  C   UNL     1      34.956 -20.594 -18.995  0.00  0.00    -0.016 C 
ATOM      3  C   UNL     1      33.651 -20.413 -19.453  0.00  0.00    -0.004 C 
ATOM      4  C   UNL     1      35.987 -19.798 -19.495  0.00  0.00    -0.004 C 
ATOM      5  C   UNL     1      34.407 -18.643 -20.912  0.00  0.00    +0.021 C 
ATOM      6  C   UNL     1      33.377 -19.439 -20.412  0.00  0.00    -0.001 C 
ATOM      7  C   UNL     1      35.712 -18.823 -20.455  0.00  0.00    -0.001 C 
BRANCH   5   8
ATOM      8  C   UNL     1      34.114 -17.600 -21.937  0.00  0.00    +0.235 C 
BRANCH   8   9
ATOM      9  O   UNL     1      34.111 -16.318 -21.320  0.00  0.00    -0.440 OA
BRANCH   9  11
ATOM     10  O   UNL     1      34.660 -15.123 -23.209  0.00  0.00    -0.245 OA
ATOM     11  C   UNL     1      34.044 -15.251 -22.161  0.00  0.00    +0.341 C 
BRANCH  11  12
ATOM     12  C   UNL     1      33.106 -14.226 -21.637  0.00  0.00    +0.072 C 
ATOM     13  C   UNL     1      32.466 -13.330 -22.492  0.00  0.00    -0.016 C 
ATOM     14  C   UNL     1      31.352 -12.319 -20.602  0.00  0.00    -0.022 C 
ATOM     15  C   UNL     1      31.590 -12.376 -21.975  0.00  0.00    -0.008 C 
ATOM     16  C   UNL     1      32.869 -14.170 -20.264  0.00  0.00    +0.006 C 
ATOM     17  C   UNL     1      31.992 -13.216 -19.745  0.00  0.00    -0.004 C 
ATOM     18  C   UNL     1      32.702 -13.369 -23.967  0.00  0.00    +0.031 C 
ATOM     19  C   UNL     1      30.416 -11.300 -20.046  0.00  0.00    +0.031 C 
ENDBRANCH  11  12
ENDBRANCH   9  11
ENDBRANCH   8   9
ENDBRANCH   5   8
ENDBRANCH   1   2
BRANCH   1  22
ATOM     20  O   UNL     1      33.300 -22.997 -18.420  0.00  0.00    -0.275 OA
ATOM     21  N   UNL     1      33.688 -22.317 -16.202  0.00  0.00    -0.284 N 
ATOM     22  C   UNL     1      33.971 -22.410 -17.575  0.00  0.00    +0.228 C 
ATOM     23  H   UNL     1      34.328 -21.797 -15.665  0.00  0.00    +0.155 HD
BRANCH  21  25
ATOM     24  N   UNL     1      28.068 -24.364 -13.854  0.00  0.00    -0.242 NA
ATOM     25  C   UNL     1      32.613 -22.871 -15.503  0.00  0.00    +0.050 C 
ATOM     26  C   UNL     1      31.311 -22.693 -15.974  0.00  0.00    +0.015 C 
ATOM     27  C   UNL     1      30.220 -23.242 -15.281  0.00  0.00    +0.004 C 
ATOM     28  C   UNL     1      32.842 -23.597 -14.338  0.00  0.00    +0.015 C 
ATOM     29  C   UNL     1      30.456 -23.978 -14.101  0.00  0.00    +0.019 C 
ATOM     30  C   UNL     1      31.771 -24.150 -13.637  0.00  0.00    +0.003 C 
ATOM     31  C   UNL     1      28.902 -23.082 -15.727  0.00  0.00    +0.021 C 
ATOM     32  C   UNL     1      29.347 -24.509 -13.440  0.00  0.00    +0.099 C 
ATOM     33  C   UNL     1      27.879 -23.655 -14.987  0.00  0.00    +0.099 C 
ENDBRANCH  21  25
ENDBRANCH   1  22
BRANCH   1  34
ATOM     34  C   UNL     1      35.928 -21.083 -16.686  0.00  0.00    -0.072 C 
BRANCH  34  35
ATOM     35  N   UNL     1      36.845 -22.041 -16.074  0.00  0.00    +0.381 N 
ATOM     36  H   UNL     1      36.310 -22.747 -15.568  0.00  0.00    -0.089 HD
ATOM     37  H   UNL     1      37.462 -21.553 -15.425  0.00  0.00    -0.089 HD
ATOM     38  H   UNL     1      37.402 -22.490 -16.800  0.00  0.00    -0.089 HD
ENDBRANCH  34  35
ENDBRANCH   1  34
TORSDOF 9
ENDMDL
MODEL 7
REMARK VINA RESULT:     -11.3      2.832     10.578
REMARK  Name = 66599893
REMARK  9 active torsions:
REMARK  status: ('A' for Active; 'I' for Inactive)
REMARK    1  A    between atoms: C_1  and  C_2
REMARK    2  A    between atoms: C_1  and  C_22
REMARK    3  A    between atoms: C_1  and  C_34
REMARK    4  A    between atoms: C_5  and  C_8
REMARK    5  A    between atoms: C_8  and  O_9
REMARK    6  A    between atoms: O_9  and  C_11
REMARK    7  A    between atoms: C_11  and  C_12
REMARK    8  A    between atoms: N_21  and  C_25
REMARK    9  A    between atoms: C_34  and  N_35
REMARK                            x       y       z     vdW  Elec       q    Type
REMARK                         _______ _______ _______ _____ _____    ______ ____
ROOT
ATOM      1  C   UNL     1      35.121 -18.872 -21.663  0.00  0.00    +0.077 C 
ENDROOT
BRANCH   1   2
ATOM      2  C   UNL     1      34.470 -17.661 -22.313  0.00  0.00    -0.016 C 
ATOM      3  C   UNL     1      33.793 -17.800 -23.525  0.00  0.00    -0.004 C 
ATOM      4  C   UNL     1      34.549 -16.412 -21.697  0.00  0.00    -0.004 C 
ATOM      5  C   UNL     1      33.276 -15.440 -23.506  0.00  0.00    +0.021 C 
ATOM      6  C   UNL     1      33.197 -16.689 -24.122  0.00  0.00    -0.001 C 
ATOM      7  C   UNL     1      33.953 -15.301 -22.295  0.00  0.00    -0.001 C 
BRANCH   5   8
ATOM      8  C   UNL     1      32.637 -14.252 -24.144  0.00  0.00    +0.235 C 
BRANCH   8   9
ATOM      9  O   UNL     1      32.012 -13.458 -23.143  0.00  0.00    -0.440 OA
BRANCH   9  11
ATOM     10  O   UNL     1      33.550 -11.778 -23.475  0.00  0.00    -0.245 OA
ATOM     11  C   UNL     1      32.603 -12.263 -22.874  0.00  0.00    +0.341 C 
BRANCH  11  12
ATOM     12  C   UNL     1      31.940 -11.595 -21.725  0.00  0.00    +0.072 C 
ATOM     13  C   UNL     1      31.729 -10.217 -21.716  0.00  0.00    -0.016 C 
ATOM     14  C   UNL     1      30.692 -10.390 -19.540  0.00  0.00    -0.022 C 
ATOM     15  C   UNL     1      31.105  -9.614 -20.624  0.00  0.00    -0.008 C 
ATOM     16  C   UNL     1      31.528 -12.372 -20.642  0.00  0.00    +0.006 C 
ATOM     17  C   UNL     1      30.904 -11.769 -19.549  0.00  0.00    -0.004 C 
ATOM     18  C   UNL     1      32.160  -9.362 -22.862  0.00  0.00    +0.031 C 
ATOM     19  C   UNL     1      30.026  -9.748 -18.371  0.00  0.00    +0.031 C 
ENDBRANCH  11  12
ENDBRANCH   9  11
ENDBRANCH   8   9
ENDBRANCH   5   8
ENDBRANCH   1   2
BRANCH   1  22
ATOM     20  O   UNL     1      33.097 -18.976 -20.345  0.00  0.00    -0.275 OA
ATOM     21  N   UNL     1      34.875 -20.411 -19.786  0.00  0.00    -0.284 N 
ATOM     22  C   UNL     1      34.229 -19.412 -20.535  0.00  0.00    +0.228 C 
ATOM     23  H   UNL     1      35.791 -20.635 -20.068  0.00  0.00    +0.155 HD
BRANCH  21  25
ATOM     24  N   UNL     1      33.714 -23.561 -14.308  0.00  0.00    -0.242 NA
ATOM     25  C   UNL     1      34.380 -21.126 -18.693  0.00  0.00    +0.050 C 
ATOM     26  C   UNL     1      35.212 -21.396 -17.605  0.00  0.00    +0.015 C 
ATOM     27  C   UNL     1      34.731 -22.116 -16.500  0.00  0.00    +0.004 C 
ATOM     28  C   UNL     1      33.061 -21.568 -18.691  0.00  0.00    +0.015 C 
ATOM     29  C   UNL     1      33.392 -22.562 -16.501  0.00  0.00    +0.019 C 
ATOM     30  C   UNL     1      32.564 -22.284 -17.602  0.00  0.00    +0.003 C 
ATOM     31  C   UNL     1      35.539 -22.403 -15.393  0.00  0.00    +0.021 C 
ATOM     32  C   UNL     1      32.949 -23.274 -15.385  0.00  0.00    +0.099 C 
ATOM     33  C   UNL     1      34.989 -23.118 -14.340  0.00  0.00    +0.099 C 
ENDBRANCH  21  25
ENDBRANCH   1  22
BRANCH   1  34
ATOM     34  C   UNL     1      36.538 -18.577 -21.131  0.00  0.00    -0.072 C 
BRANCH  34  35
ATOM     35  N   UNL     1      36.534 -18.302 -19.696  0.00  0.00    +0.381 N 
ATOM     36  H   UNL     1      37.171 -18.944 -19.225  0.00  0.00    -0.089 HD
ATOM     37  H   UNL     1      35.592 -18.427 -19.329  0.00  0.00    -0.089 HD
ATOM     38  H   UNL     1      36.837 -17.342 -19.534  0.00  0.00    -0.089 HD
ENDBRANCH  34  35
ENDBRANCH   1  34
TORSDOF 9
ENDMDL
MODEL 8
REMARK VINA RESULT:     -11.1      3.777      7.253
REMARK  Name = 66599893
REMARK  9 active torsions:
REMARK  status: ('A' for Active; 'I' for Inactive)
REMARK    1  A    between atoms: C_1  and  C_2
REMARK    2  A    between atoms: C_1  and  C_22
REMARK    3  A    between atoms: C_1  and  C_34
REMARK    4  A    between atoms: C_5  and  C_8
REMARK    5  A    between atoms: C_8  and  O_9
REMARK    6  A    between atoms: O_9  and  C_11
REMARK    7  A    between atoms: C_11  and  C_12
REMARK    8  A    between atoms: N_21  and  C_25
REMARK    9  A    between atoms: C_34  and  N_35
REMARK                            x       y       z     vdW  Elec       q    Type
REMARK                         _______ _______ _______ _____ _____    ______ ____
ROOT
ATOM      1  C   UNL     1      30.647 -11.043 -19.989  0.00  0.00    +0.077 C 
ENDROOT
BRANCH   1   2
ATOM      2  C   UNL     1      31.529 -12.113 -20.615  0.00  0.00    -0.016 C 
ATOM      3  C   UNL     1      32.008 -13.167 -19.836  0.00  0.00    -0.004 C 
ATOM      4  C   UNL     1      31.859 -12.040 -21.969  0.00  0.00    -0.004 C 
ATOM      5  C   UNL     1      33.148 -14.073 -21.763  0.00  0.00    +0.021 C 
ATOM      6  C   UNL     1      32.818 -14.146 -20.411  0.00  0.00    -0.001 C 
ATOM      7  C   UNL     1      32.669 -13.020 -22.542  0.00  0.00    -0.001 C 
BRANCH   5   8
ATOM      8  C   UNL     1      34.012 -15.122 -22.378  0.00  0.00    +0.235 C 
BRANCH   8   9
ATOM      9  O   UNL     1      34.069 -16.253 -21.517  0.00  0.00    -0.440 OA
BRANCH   9  11
ATOM     10  O   UNL     1      34.000 -17.667 -23.332  0.00  0.00    -0.245 OA
ATOM     11  C   UNL     1      34.070 -17.468 -22.129  0.00  0.00    +0.341 C 
BRANCH  11  12
ATOM     12  C   UNL     1      34.168 -18.560 -21.127  0.00  0.00    +0.072 C 
ATOM     13  C   UNL     1      35.402 -18.961 -20.616  0.00  0.00    -0.016 C 
ATOM     14  C   UNL     1      34.297 -20.618 -19.248  0.00  0.00    -0.022 C 
ATOM     15  C   UNL     1      35.467 -19.990 -19.676  0.00  0.00    -0.008 C 
ATOM     16  C   UNL     1      32.998 -19.189 -20.699  0.00  0.00    +0.006 C 
ATOM     17  C   UNL     1      33.063 -20.218 -19.760  0.00  0.00    -0.004 C 
ATOM     18  C   UNL     1      36.669 -18.305 -21.056  0.00  0.00    +0.031 C 
ATOM     19  C   UNL     1      34.365 -21.719 -18.244  0.00  0.00    +0.031 C 
ENDBRANCH  11  12
ENDBRANCH   9  11
ENDBRANCH   8   9
ENDBRANCH   5   8
ENDBRANCH   1   2
BRANCH   1  22
ATOM     20  O   UNL     1      29.524  -9.415 -21.379  0.00  0.00    -0.275 OA
ATOM     21  N   UNL     1      31.852  -9.237 -21.101  0.00  0.00    -0.284 N 
ATOM     22  C   UNL     1      30.584  -9.807 -20.899  0.00  0.00    +0.228 C 
ATOM     23  H   UNL     1      32.602  -9.686 -20.649  0.00  0.00    +0.155 HD
BRANCH  21  25
ATOM     24  N   UNL     1      33.759  -4.876 -25.417  0.00  0.00    -0.242 NA
ATOM     25  C   UNL     1      32.183  -8.114 -21.862  0.00  0.00    +0.050 C 
ATOM     26  C   UNL     1      32.759  -8.273 -23.123  0.00  0.00    +0.015 C 
ATOM     27  C   UNL     1      33.099  -7.154 -23.900  0.00  0.00    +0.004 C 
ATOM     28  C   UNL     1      31.936  -6.839 -21.362  0.00  0.00    +0.015 C 
ATOM     29  C   UNL     1      32.848  -5.863 -23.390  0.00  0.00    +0.019 C 
ATOM     30  C   UNL     1      32.266  -5.715 -22.119  0.00  0.00    +0.003 C 
ATOM     31  C   UNL     1      33.679  -7.280 -25.169  0.00  0.00    +0.021 C 
ATOM     32  C   UNL     1      33.198  -4.774 -24.191  0.00  0.00    +0.099 C 
ATOM     33  C   UNL     1      33.984  -6.126 -25.874  0.00  0.00    +0.099 C 
ENDBRANCH  21  25
ENDBRANCH   1  22
BRANCH   1  34
ATOM     34  C   UNL     1      31.105 -10.643 -18.572  0.00  0.00    -0.072 C 
BRANCH  34  35
ATOM     35  N   UNL     1      30.644  -9.305 -18.209  0.00  0.00    +0.381 N 
ATOM     36  H   UNL     1      29.638  -9.238 -18.364  0.00  0.00    -0.089 HD
ATOM     37  H   UNL     1      31.123  -8.613 -18.785  0.00  0.00    -0.089 HD
ATOM     38  H   UNL     1      30.850  -9.130 -17.226  0.00  0.00    -0.089 HD
ENDBRANCH  34  35
ENDBRANCH   1  34
TORSDOF 9
ENDMDL
MODEL 9
REMARK VINA RESULT:     -10.9      2.762      4.872
REMARK  Name = 66599893
REMARK  9 active torsions:
REMARK  status: ('A' for Active; 'I' for Inactive)
REMARK    1  A    between atoms: C_1  and  C_2
REMARK    2  A    between atoms: C_1  and  C_22
REMARK    3  A    between atoms: C_1  and  C_34
REMARK    4  A    between atoms: C_5  and  C_8
REMARK    5  A    between atoms: C_8  and  O_9
REMARK    6  A    between atoms: O_9  and  C_11
REMARK    7  A    between atoms: C_11  and  C_12
REMARK    8  A    between atoms: N_21  and  C_25
REMARK    9  A    between atoms: C_34  and  N_35
REMARK                            x       y       z     vdW  Elec       q    Type
REMARK                         _______ _______ _______ _____ _____    ______ ____
ROOT
ATOM      1  C   UNL     1      33.097 -13.069 -24.127  0.00  0.00    +0.077 C 
ENDROOT
BRANCH   1   2
ATOM      2  C   UNL     1      33.586 -14.197 -23.233  0.00  0.00    -0.016 C 
ATOM      3  C   UNL     1      34.104 -15.363 -23.799  0.00  0.00    -0.004 C 
ATOM      4  C   UNL     1      33.517 -14.067 -21.845  0.00  0.00    -0.004 C 
ATOM      5  C   UNL     1      34.482 -16.267 -21.592  0.00  0.00    +0.021 C 
ATOM      6  C   UNL     1      34.551 -16.398 -22.978  0.00  0.00    -0.001 C 
ATOM      7  C   UNL     1      33.965 -15.102 -21.025  0.00  0.00    -0.001 C 
BRANCH   5   8
ATOM      8  C   UNL     1      34.962 -17.374 -20.713  0.00  0.00    +0.235 C 
BRANCH   8   9
ATOM      9  O   UNL     1      33.846 -18.101 -20.216  0.00  0.00    -0.440 OA
BRANCH   9  11
ATOM     10  O   UNL     1      33.782 -19.685 -21.885  0.00  0.00    -0.245 OA
ATOM     11  C   UNL     1      33.683 -19.357 -20.712  0.00  0.00    +0.341 C 
BRANCH  11  12
ATOM     12  C   UNL     1      33.360 -20.314 -19.623  0.00  0.00    +0.072 C 
ATOM     13  C   UNL     1      34.367 -20.987 -18.932  0.00  0.00    -0.016 C 
ATOM     14  C   UNL     1      32.700 -22.104 -17.588  0.00  0.00    -0.022 C 
ATOM     15  C   UNL     1      34.037 -21.881 -17.914  0.00  0.00    -0.008 C 
ATOM     16  C   UNL     1      32.022 -20.537 -19.298  0.00  0.00    +0.006 C 
ATOM     17  C   UNL     1      31.691 -21.431 -18.280  0.00  0.00    -0.004 C 
ATOM     18  C   UNL     1      35.808 -20.767 -19.261  0.00  0.00    +0.031 C 
ATOM     19  C   UNL     1      32.345 -23.060 -16.500  0.00  0.00    +0.031 C 
ENDBRANCH  11  12
ENDBRANCH   9  11
ENDBRANCH   8   9
ENDBRANCH   5   8
ENDBRANCH   1   2
BRANCH   1  22
ATOM     20  O   UNL     1      32.095 -11.962 -22.226  0.00  0.00    -0.275 OA
ATOM     21  N   UNL     1      33.146 -10.644 -23.866  0.00  0.00    -0.284 N 
ATOM     22  C   UNL     1      32.716 -11.846 -23.280  0.00  0.00    +0.228 C 
ATOM     23  H   UNL     1      33.624 -10.730 -24.722  0.00  0.00    +0.155 HD
BRANCH  21  25
ATOM     24  N   UNL     1      31.224  -4.965 -21.556  0.00  0.00    -0.242 NA
ATOM     25  C   UNL     1      32.981  -9.342 -23.388  0.00  0.00    +0.050 C 
ATOM     26  C   UNL     1      31.716  -8.900 -22.997  0.00  0.00    +0.015 C 
ATOM     27  C   UNL     1      31.534  -7.593 -22.516  0.00  0.00    +0.004 C 
ATOM     28  C   UNL     1      34.078  -8.489 -23.303  0.00  0.00    +0.015 C 
ATOM     29  C   UNL     1      32.648  -6.732 -22.431  0.00  0.00    +0.019 C 
ATOM     30  C   UNL     1      33.916  -7.189 -22.827  0.00  0.00    +0.003 C 
ATOM     31  C   UNL     1      30.279  -7.119 -22.115  0.00  0.00    +0.021 C 
ATOM     32  C   UNL     1      32.428  -5.441 -21.947  0.00  0.00    +0.099 C 
ATOM     33  C   UNL     1      30.181  -5.817 -21.650  0.00  0.00    +0.099 C 
ENDBRANCH  21  25
ENDBRANCH   1  22
BRANCH   1  34
ATOM     34  C   UNL     1      31.916 -13.486 -25.027  0.00  0.00    -0.072 C 
BRANCH  34  35
ATOM     35  N   UNL     1      31.773 -12.604 -26.182  0.00  0.00    +0.381 N 
ATOM     36  H   UNL     1      31.873 -13.147 -27.039  0.00  0.00    -0.089 HD
ATOM     37  H   UNL     1      32.495 -11.884 -26.150  0.00  0.00    -0.089 HD
ATOM     38  H   UNL     1      30.853 -12.163 -26.162  0.00  0.00    -0.089 HD
ENDBRANCH  34  35
ENDBRANCH   1  34
TORSDOF 9
ENDMDL
