MODEL 1
REMARK VINA RESULT:     -12.2      0.000      0.000
REMARK  Name = 12087505
REMARK  3 active torsions:
REMARK  status: ('A' for Active; 'I' for Inactive)
REMARK    1  A    between atoms: C_1  and  S_18
REMARK    2  A    between atoms: C_4  and  N_9
REMARK    3  A    between atoms: S_18  and  N_21
REMARK                            x       y       z     vdW  Elec       q    Type
REMARK                         _______ _______ _______ _____ _____    ______ ____
ROOT
ATOM      1  C   UNL     1      34.048 -20.831 -19.071  0.00  0.00    +0.123 C 
ATOM      2  C   UNL     1      33.614 -19.957 -20.054  0.00  0.00    +0.035 C 
ATOM      3  C   UNL     1      35.371 -20.860 -18.664  0.00  0.00    +0.020 C 
ATOM      4  C   UNL     1      34.529 -19.086 -20.646  0.00  0.00    +0.053 C 
ATOM      5  C   UNL     1      36.287 -19.989 -19.255  0.00  0.00    +0.003 C 
ATOM      6  C   UNL     1      35.865 -19.102 -20.246  0.00  0.00    +0.015 C 
ENDROOT
BRANCH   4   9
ATOM      7  S   UNL     1      32.745 -14.681 -24.713  0.00  0.00    -0.051 S 
ATOM      8  O   UNL     1      34.339 -16.109 -20.609  0.00  0.00    -0.252 OA
ATOM      9  N   UNL     1      34.108 -18.199 -21.637  0.00  0.00    -0.268 N 
ATOM     10  N   UNL     1      33.550 -16.291 -22.808  0.00  0.00    -0.248 N 
ATOM     11  N   UNL     1      33.545 -13.922 -22.374  0.00  0.00    -0.222 NA
ATOM     12  C   UNL     1      34.030 -16.785 -21.585  0.00  0.00    +0.310 C 
ATOM     13  C   UNL     1      33.337 -14.951 -23.138  0.00  0.00    +0.167 C 
ATOM     14  C   UNL     1      32.753 -12.999 -24.375  0.00  0.00    +0.059 C 
ATOM     15  C   UNL     1      33.208 -12.788 -23.089  0.00  0.00    +0.108 C 
ATOM     16  H   UNL     1      33.825 -18.611 -22.486  0.00  0.00    +0.156 HD
ATOM     17  H   UNL     1      33.342 -16.957 -23.503  0.00  0.00    +0.158 HD
ENDBRANCH   4   9
BRANCH   1  18
ATOM     18  S   UNL     1      32.890 -21.935 -18.323  0.00  0.00    +0.063 S 
ATOM     19  O   UNL     1      31.636 -21.229 -18.176  0.00  0.00    -0.153 OA
ATOM     20  O   UNL     1      32.959 -23.197 -19.028  0.00  0.00    -0.153 OA
BRANCH  18  21
ATOM     21  N   UNL     1      33.611 -22.120 -16.780  0.00  0.00    -0.152 NA
ATOM     22  N   UNL     1      34.927 -22.990 -14.424  0.00  0.00    -0.290 N 
ATOM     23  C   UNL     1      32.947 -23.104 -15.878  0.00  0.00    +0.117 C 
ATOM     24  C   UNL     1      35.088 -22.308 -16.781  0.00  0.00    +0.117 C 
ATOM     25  C   UNL     1      33.460 -22.915 -14.454  0.00  0.00    +0.111 C 
ATOM     26  C   UNL     1      35.631 -22.114 -15.368  0.00  0.00    +0.111 C 
ATOM     27  N   UNL     1      34.937 -23.002 -12.027  0.00  0.00    -0.229 NA
ATOM     28  C   UNL     1      35.537 -23.333 -13.212  0.00  0.00    +0.132 C 
ATOM     29  C   UNL     1      36.761 -24.014 -13.249  0.00  0.00    +0.034 C 
ATOM     30  C   UNL     1      37.379 -24.361 -12.053  0.00  0.00    +0.004 C 
ATOM     31  C   UNL     1      35.567 -23.358 -10.885  0.00  0.00    +0.100 C 
ATOM     32  C   UNL     1      36.778 -24.032 -10.845  0.00  0.00    +0.021 C 
ENDBRANCH  18  21
ENDBRANCH   1  18
TORSDOF 3
ENDMDL
MODEL 2
REMARK VINA RESULT:     -11.8      2.530     10.615
REMARK  Name = 12087505
REMARK  3 active torsions:
REMARK  status: ('A' for Active; 'I' for Inactive)
REMARK    1  A    between atoms: C_1  and  S_18
REMARK    2  A    between atoms: C_4  and  N_9
REMARK    3  A    between atoms: S_18  and  N_21
REMARK                            x       y       z     vdW  Elec       q    Type
REMARK                         _______ _______ _______ _____ _____    ______ ____
ROOT
ATOM      1  C   UNL     1      34.424 -19.277 -20.834  0.00  0.00    +0.123 C 
ATOM      2  C   UNL     1      35.113 -19.869 -19.788  0.00  0.00    +0.035 C 
ATOM      3  C   UNL     1      33.050 -19.394 -20.949  0.00  0.00    +0.020 C 
ATOM      4  C   UNL     1      34.407 -20.598 -18.831  0.00  0.00    +0.053 C 
ATOM      5  C   UNL     1      32.342 -20.123 -19.992  0.00  0.00    +0.003 C 
ATOM      6  C   UNL     1      33.022 -20.724 -18.933  0.00  0.00    +0.015 C 
ENDROOT
BRANCH   4   9
ATOM      7  S   UNL     1      36.962 -23.578 -13.959  0.00  0.00    -0.051 S 
ATOM      8  O   UNL     1      33.461 -22.592 -16.823  0.00  0.00    -0.252 OA
ATOM      9  N   UNL     1      35.086 -21.200 -17.771  0.00  0.00    -0.268 N 
ATOM     10  N   UNL     1      35.627 -22.486 -15.933  0.00  0.00    -0.248 N 
ATOM     11  N   UNL     1      34.486 -24.069 -14.521  0.00  0.00    -0.222 NA
ATOM     12  C   UNL     1      34.605 -22.147 -16.833  0.00  0.00    +0.310 C 
ATOM     13  C   UNL     1      35.533 -23.386 -14.869  0.00  0.00    +0.167 C 
ATOM     14  C   UNL     1      36.123 -24.702 -12.972  0.00  0.00    +0.059 C 
ATOM     15  C   UNL     1      34.825 -24.834 -13.421  0.00  0.00    +0.108 C 
ATOM     16  H   UNL     1      36.027 -20.929 -17.659  0.00  0.00    +0.156 HD
ATOM     17  H   UNL     1      36.497 -22.045 -16.065  0.00  0.00    +0.158 HD
ENDBRANCH   4   9
BRANCH   1  18
ATOM     18  S   UNL     1      35.319 -18.357 -22.047  0.00  0.00    +0.063 S 
ATOM     19  O   UNL     1      36.712 -18.345 -21.656  0.00  0.00    -0.153 OA
ATOM     20  O   UNL     1      34.913 -18.830 -23.353  0.00  0.00    -0.153 OA
BRANCH  18  21
ATOM     21  N   UNL     1      34.653 -16.800 -21.787  0.00  0.00    -0.152 NA
ATOM     22  N   UNL     1      33.029 -14.530 -21.286  0.00  0.00    -0.290 N 
ATOM     23  C   UNL     1      33.680 -16.340 -22.818  0.00  0.00    +0.117 C 
ATOM     24  C   UNL     1      34.137 -16.545 -20.413  0.00  0.00    +0.117 C 
ATOM     25  C   UNL     1      33.442 -14.841 -22.661  0.00  0.00    +0.111 C 
ATOM     26  C   UNL     1      33.900 -15.049 -20.224  0.00  0.00    +0.111 C 
ATOM     27  N   UNL     1      32.510 -12.270 -21.890  0.00  0.00    -0.229 NA
ATOM     28  C   UNL     1      32.308 -13.349 -21.074  0.00  0.00    +0.132 C 
ATOM     29  C   UNL     1      31.389 -13.308 -20.017  0.00  0.00    +0.034 C 
ATOM     30  C   UNL     1      30.666 -12.142 -19.794  0.00  0.00    +0.004 C 
ATOM     31  C   UNL     1      31.788 -11.154 -21.643  0.00  0.00    +0.100 C 
ATOM     32  C   UNL     1      30.862 -11.040 -20.618  0.00  0.00    +0.021 C 
ENDBRANCH  18  21
ENDBRANCH   1  18
TORSDOF 3
ENDMDL
MODEL 3
REMARK VINA RESULT:     -11.7      2.285     10.895
REMARK  Name = 12087505
REMARK  3 active torsions:
REMARK  status: ('A' for Active; 'I' for Inactive)
REMARK    1  A    between atoms: C_1  and  S_18
REMARK    2  A    between atoms: C_4  and  N_9
REMARK    3  A    between atoms: S_18  and  N_21
REMARK                            x       y       z     vdW  Elec       q    Type
REMARK                         _______ _______ _______ _____ _____    ______ ____
ROOT
ATOM      1  C   UNL     1      34.053 -19.480 -20.893  0.00  0.00    +0.123 C 
ATOM      2  C   UNL     1      34.811 -20.056 -19.888  0.00  0.00    +0.035 C 
ATOM      3  C   UNL     1      32.670 -19.540 -20.878  0.00  0.00    +0.020 C 
ATOM      4  C   UNL     1      34.168 -20.711 -18.837  0.00  0.00    +0.053 C 
ATOM      5  C   UNL     1      32.025 -20.193 -19.827  0.00  0.00    +0.003 C 
ATOM      6  C   UNL     1      32.776 -20.778 -18.806  0.00  0.00    +0.015 C 
ENDROOT
BRANCH   4   9
ATOM      7  S   UNL     1      37.039 -23.579 -14.076  0.00  0.00    -0.051 S 
ATOM      8  O   UNL     1      33.323 -22.533 -16.631  0.00  0.00    -0.252 OA
ATOM      9  N   UNL     1      34.918 -21.296 -17.816  0.00  0.00    -0.268 N 
ATOM     10  N   UNL     1      35.572 -22.513 -15.968  0.00  0.00    -0.248 N 
ATOM     11  N   UNL     1      34.496 -23.946 -14.359  0.00  0.00    -0.222 NA
ATOM     12  C   UNL     1      34.483 -22.160 -16.781  0.00  0.00    +0.310 C 
ATOM     13  C   UNL     1      35.538 -23.347 -14.849  0.00  0.00    +0.167 C 
ATOM     14  C   UNL     1      36.245 -24.595 -12.946  0.00  0.00    +0.059 C 
ATOM     15  C   UNL     1      34.902 -24.671 -13.255  0.00  0.00    +0.108 C 
ATOM     16  H   UNL     1      35.878 -21.077 -17.814  0.00  0.00    +0.156 HD
ATOM     17  H   UNL     1      36.447 -22.134 -16.212  0.00  0.00    +0.158 HD
ENDBRANCH   4   9
BRANCH   1  18
ATOM     18  S   UNL     1      34.867 -18.654 -22.225  0.00  0.00    +0.063 S 
ATOM     19  O   UNL     1      36.253 -18.472 -21.852  0.00  0.00    -0.153 OA
ATOM     20  O   UNL     1      34.507 -19.328 -23.454  0.00  0.00    -0.153 OA
BRANCH  18  21
ATOM     21  N   UNL     1      34.069 -17.139 -22.167  0.00  0.00    -0.152 NA
ATOM     22  N   UNL     1      33.307 -14.408 -22.177  0.00  0.00    -0.290 N 
ATOM     23  C   UNL     1      34.458 -16.255 -21.032  0.00  0.00    +0.117 C 
ATOM     24  C   UNL     1      34.040 -16.381 -23.449  0.00  0.00    +0.117 C 
ATOM     25  C   UNL     1      33.446 -15.121 -20.900  0.00  0.00    +0.111 C 
ATOM     26  C   UNL     1      33.025 -15.245 -23.349  0.00  0.00    +0.111 C 
ATOM     27  N   UNL     1      31.982 -12.698 -21.146  0.00  0.00    -0.229 NA
ATOM     28  C   UNL     1      32.838 -13.089 -22.139  0.00  0.00    +0.132 C 
ATOM     29  C   UNL     1      33.265 -12.200 -23.134  0.00  0.00    +0.034 C 
ATOM     30  C   UNL     1      32.806 -10.887 -23.110  0.00  0.00    +0.004 C 
ATOM     31  C   UNL     1      31.559 -11.413 -21.155  0.00  0.00    +0.100 C 
ATOM     32  C   UNL     1      31.938 -10.478 -22.105  0.00  0.00    +0.021 C 
ENDBRANCH  18  21
ENDBRANCH   1  18
TORSDOF 3
ENDMDL
MODEL 4
REMARK VINA RESULT:     -11.6      4.671      8.135
REMARK  Name = 12087505
REMARK  3 active torsions:
REMARK  status: ('A' for Active; 'I' for Inactive)
REMARK    1  A    between atoms: C_1  and  S_18
REMARK    2  A    between atoms: C_4  and  N_9
REMARK    3  A    between atoms: S_18  and  N_21
REMARK                            x       y       z     vdW  Elec       q    Type
REMARK                         _______ _______ _______ _____ _____    ______ ____
ROOT
ATOM      1  C   UNL     1      33.023 -14.207 -23.414  0.00  0.00    +0.123 C 
ATOM      2  C   UNL     1      33.279 -13.004 -24.050  0.00  0.00    +0.035 C 
ATOM      3  C   UNL     1      32.537 -14.249 -22.118  0.00  0.00    +0.020 C 
ATOM      4  C   UNL     1      33.041 -11.808 -23.371  0.00  0.00    +0.053 C 
ATOM      5  C   UNL     1      32.298 -13.054 -21.439  0.00  0.00    +0.003 C 
ATOM      6  C   UNL     1      32.550 -11.834 -22.067  0.00  0.00    +0.015 C 
ENDROOT
BRANCH   4   9
ATOM      7  S   UNL     1      33.853  -6.087 -25.767  0.00  0.00    -0.051 S 
ATOM      8  O   UNL     1      32.170  -9.051 -22.636  0.00  0.00    -0.252 OA
ATOM      9  N   UNL     1      33.292 -10.588 -23.999  0.00  0.00    -0.268 N 
ATOM     10  N   UNL     1      33.343  -8.345 -24.538  0.00  0.00    -0.248 N 
ATOM     11  N   UNL     1      32.443  -6.311 -23.612  0.00  0.00    -0.222 NA
ATOM     12  C   UNL     1      32.861  -9.292 -23.621  0.00  0.00    +0.310 C 
ATOM     13  C   UNL     1      33.127  -6.966 -24.500  0.00  0.00    +0.167 C 
ATOM     14  C   UNL     1      33.200  -4.656 -25.084  0.00  0.00    +0.059 C 
ATOM     15  C   UNL     1      32.483  -4.972 -23.947  0.00  0.00    +0.108 C 
ATOM     16  H   UNL     1      33.842 -10.633 -24.814  0.00  0.00    +0.156 HD
ATOM     17  H   UNL     1      33.888  -8.688 -25.283  0.00  0.00    +0.158 HD
ENDBRANCH   4   9
BRANCH   1  18
ATOM     18  S   UNL     1      33.327 -15.720 -24.272  0.00  0.00    +0.063 S 
ATOM     19  O   UNL     1      32.153 -16.026 -25.060  0.00  0.00    -0.153 OA
ATOM     20  O   UNL     1      34.635 -15.630 -24.884  0.00  0.00    -0.153 OA
BRANCH  18  21
ATOM     21  N   UNL     1      33.407 -16.802 -22.946  0.00  0.00    -0.152 NA
ATOM     22  N   UNL     1      34.038 -18.801 -21.036  0.00  0.00    -0.290 N 
ATOM     23  C   UNL     1      33.207 -18.241 -23.282  0.00  0.00    +0.117 C 
ATOM     24  C   UNL     1      34.577 -16.622 -22.042  0.00  0.00    +0.117 C 
ATOM     25  C   UNL     1      32.956 -19.031 -22.002  0.00  0.00    +0.111 C 
ATOM     26  C   UNL     1      34.347 -17.395 -20.746  0.00  0.00    +0.111 C 
ATOM     27  N   UNL     1      33.204 -20.527 -19.598  0.00  0.00    -0.229 NA
ATOM     28  C   UNL     1      34.252 -19.773 -20.052  0.00  0.00    +0.132 C 
ATOM     29  C   UNL     1      35.551 -19.947 -19.556  0.00  0.00    +0.034 C 
ATOM     30  C   UNL     1      35.778 -20.909 -18.578  0.00  0.00    +0.004 C 
ATOM     31  C   UNL     1      33.465 -21.453 -18.648  0.00  0.00    +0.100 C 
ATOM     32  C   UNL     1      34.722 -21.681 -18.110  0.00  0.00    +0.021 C 
ENDBRANCH  18  21
ENDBRANCH   1  18
TORSDOF 3
ENDMDL
MODEL 5
REMARK VINA RESULT:     -10.9      8.281     15.389
REMARK  Name = 12087505
REMARK  3 active torsions:
REMARK  status: ('A' for Active; 'I' for Inactive)
REMARK    1  A    between atoms: C_1  and  S_18
REMARK    2  A    between atoms: C_4  and  N_9
REMARK    3  A    between atoms: S_18  and  N_21
REMARK                            x       y       z     vdW  Elec       q    Type
REMARK                         _______ _______ _______ _____ _____    ______ ____
ROOT
ATOM      1  C   UNL     1      31.065  -8.345 -19.795  0.00  0.00    +0.123 C 
ATOM      2  C   UNL     1      31.370  -9.270 -20.780  0.00  0.00    +0.035 C 
ATOM      3  C   UNL     1      30.541  -8.736 -18.575  0.00  0.00    +0.020 C 
ATOM      4  C   UNL     1      31.144 -10.625 -20.537  0.00  0.00    +0.053 C 
ATOM      5  C   UNL     1      30.315 -10.092 -18.331  0.00  0.00    +0.003 C 
ATOM      6  C   UNL     1      30.618 -11.035 -19.313  0.00  0.00    +0.015 C 
ENDROOT
BRANCH   4   9
ATOM      7  S   UNL     1      32.808 -15.140 -24.534  0.00  0.00    -0.051 S 
ATOM      8  O   UNL     1      32.787 -13.110 -20.374  0.00  0.00    -0.252 OA
ATOM      9  N   UNL     1      31.447 -11.569 -21.518  0.00  0.00    -0.268 N 
ATOM     10  N   UNL     1      32.278 -13.405 -22.643  0.00  0.00    -0.248 N 
ATOM     11  N   UNL     1      33.661 -15.300 -22.099  0.00  0.00    -0.222 NA
ATOM     12  C   UNL     1      32.234 -12.743 -21.406  0.00  0.00    +0.310 C 
ATOM     13  C   UNL     1      32.953 -14.594 -22.926  0.00  0.00    +0.167 C 
ATOM     14  C   UNL     1      33.795 -16.479 -24.116  0.00  0.00    +0.059 C 
ATOM     15  C   UNL     1      34.150 -16.395 -22.785  0.00  0.00    +0.108 C 
ATOM     16  H   UNL     1      31.064 -11.396 -22.409  0.00  0.00    +0.156 HD
ATOM     17  H   UNL     1      31.783 -12.989 -23.385  0.00  0.00    +0.158 HD
ENDBRANCH   4   9
BRANCH   1  18
ATOM     18  S   UNL     1      31.348  -6.629 -20.103  0.00  0.00    +0.063 S 
ATOM     19  O   UNL     1      30.148  -5.909 -19.736  0.00  0.00    -0.153 OA
ATOM     20  O   UNL     1      32.632  -6.280 -19.533  0.00  0.00    -0.153 OA
BRANCH  18  21
ATOM     21  N   UNL     1      31.485  -6.653 -21.810  0.00  0.00    -0.152 NA
ATOM     22  N   UNL     1      31.850  -6.102 -24.568  0.00  0.00    -0.290 N 
ATOM     23  C   UNL     1      30.479  -5.834 -22.544  0.00  0.00    +0.117 C 
ATOM     24  C   UNL     1      32.855  -6.422 -22.347  0.00  0.00    +0.117 C 
ATOM     25  C   UNL     1      30.491  -6.216 -24.021  0.00  0.00    +0.111 C 
ATOM     26  C   UNL     1      32.900  -6.807 -23.823  0.00  0.00    +0.111 C 
ATOM     27  N   UNL     1      31.045  -6.443 -26.799  0.00  0.00    -0.229 NA
ATOM     28  C   UNL     1      31.983  -5.923 -25.950  0.00  0.00    +0.132 C 
ATOM     29  C   UNL     1      33.089  -5.208 -26.427  0.00  0.00    +0.034 C 
ATOM     30  C   UNL     1      33.235  -5.023 -27.798  0.00  0.00    +0.004 C 
ATOM     31  C   UNL     1      31.220  -6.242 -28.125  0.00  0.00    +0.100 C 
ATOM     32  C   UNL     1      32.287  -5.545 -28.669  0.00  0.00    +0.021 C 
ENDBRANCH  18  21
ENDBRANCH   1  18
TORSDOF 3
ENDMDL
MODEL 6
REMARK VINA RESULT:     -10.8      3.819      7.094
REMARK  Name = 12087505
REMARK  3 active torsions:
REMARK  status: ('A' for Active; 'I' for Inactive)
REMARK    1  A    between atoms: C_1  and  S_18
REMARK    2  A    between atoms: C_4  and  N_9
REMARK    3  A    between atoms: S_18  and  N_21
REMARK                            x       y       z     vdW  Elec       q    Type
REMARK                         _______ _______ _______ _____ _____    ______ ____
ROOT
ATOM      1  C   UNL     1      36.130 -23.821 -13.065  0.00  0.00    +0.123 C 
ATOM      2  C   UNL     1      35.974 -22.927 -14.112  0.00  0.00    +0.035 C 
ATOM      3  C   UNL     1      37.221 -24.671 -12.999  0.00  0.00    +0.020 C 
ATOM      4  C   UNL     1      36.937 -22.882 -15.120  0.00  0.00    +0.053 C 
ATOM      5  C   UNL     1      38.185 -24.627 -14.007  0.00  0.00    +0.003 C 
ATOM      6  C   UNL     1      38.042 -23.731 -15.067  0.00  0.00    +0.015 C 
ENDROOT
BRANCH   4   9
ATOM      7  S   UNL     1      35.764 -19.070 -19.939  0.00  0.00    -0.051 S 
ATOM      8  O   UNL     1      34.607 -22.376 -16.914  0.00  0.00    -0.252 OA
ATOM      9  N   UNL     1      36.795 -21.987 -16.181  0.00  0.00    -0.268 N 
ATOM     10  N   UNL     1      35.962 -20.774 -17.958  0.00  0.00    -0.248 N 
ATOM     11  N   UNL     1      33.885 -20.672 -19.174  0.00  0.00    -0.222 NA
ATOM     12  C   UNL     1      35.670 -21.771 -17.015  0.00  0.00    +0.310 C 
ATOM     13  C   UNL     1      35.104 -20.289 -18.948  0.00  0.00    +0.167 C 
ATOM     14  C   UNL     1      34.273 -19.020 -20.786  0.00  0.00    +0.059 C 
ATOM     15  C   UNL     1      33.400 -19.938 -20.239  0.00  0.00    +0.108 C 
ATOM     16  H   UNL     1      37.584 -21.430 -16.377  0.00  0.00    +0.156 HD
ATOM     17  H   UNL     1      36.862 -20.377 -17.918  0.00  0.00    +0.158 HD
ENDBRANCH   4   9
BRANCH   1  18
ATOM     18  S   UNL     1      34.910 -23.880 -11.790  0.00  0.00    +0.063 S 
ATOM     19  O   UNL     1      35.078 -25.126 -11.074  0.00  0.00    -0.153 OA
ATOM     20  O   UNL     1      34.930 -22.610 -11.095  0.00  0.00    -0.153 OA
BRANCH  18  21
ATOM     21  N   UNL     1      33.489 -23.971 -12.743  0.00  0.00    -0.152 NA
ATOM     22  N   UNL     1      30.957 -23.648 -13.978  0.00  0.00    -0.290 N 
ATOM     23  C   UNL     1      32.250 -24.354 -12.008  0.00  0.00    +0.117 C 
ATOM     24  C   UNL     1      33.242 -22.805 -13.636  0.00  0.00    +0.117 C 
ATOM     25  C   UNL     1      31.162 -24.733 -13.008  0.00  0.00    +0.111 C 
ATOM     26  C   UNL     1      32.164 -23.161 -14.656  0.00  0.00    +0.111 C 
ATOM     27  N   UNL     1      29.014 -24.732 -14.869  0.00  0.00    -0.229 NA
ATOM     28  C   UNL     1      29.721 -23.585 -14.632  0.00  0.00    +0.132 C 
ATOM     29  C   UNL     1      29.240 -22.331 -15.030  0.00  0.00    +0.034 C 
ATOM     30  C   UNL     1      28.014 -22.252 -15.682  0.00  0.00    +0.004 C 
ATOM     31  C   UNL     1      27.826 -24.616 -15.504  0.00  0.00    +0.100 C 
ATOM     32  C   UNL     1      27.287 -23.411 -15.927  0.00  0.00    +0.021 C 
ENDBRANCH  18  21
ENDBRANCH   1  18
TORSDOF 3
ENDMDL
MODEL 7
REMARK VINA RESULT:     -10.6      2.358     11.102
REMARK  Name = 12087505
REMARK  3 active torsions:
REMARK  status: ('A' for Active; 'I' for Inactive)
REMARK    1  A    between atoms: C_1  and  S_18
REMARK    2  A    between atoms: C_4  and  N_9
REMARK    3  A    between atoms: S_18  and  N_21
REMARK                            x       y       z     vdW  Elec       q    Type
REMARK                         _______ _______ _______ _____ _____    ______ ____
ROOT
ATOM      1  C   UNL     1      34.372 -18.668 -22.198  0.00  0.00    +0.123 C 
ATOM      2  C   UNL     1      33.816 -19.458 -21.206  0.00  0.00    +0.035 C 
ATOM      3  C   UNL     1      35.652 -18.154 -22.077  0.00  0.00    +0.020 C 
ATOM      4  C   UNL     1      34.561 -19.744 -20.062  0.00  0.00    +0.053 C 
ATOM      5  C   UNL     1      36.399 -18.440 -20.933  0.00  0.00    +0.003 C 
ATOM      6  C   UNL     1      35.852 -19.235 -19.926  0.00  0.00    +0.015 C 
ENDROOT
BRANCH   4   9
ATOM      7  S   UNL     1      32.652 -23.382 -15.344  0.00  0.00    -0.051 S 
ATOM      8  O   UNL     1      35.891 -21.174 -17.806  0.00  0.00    -0.252 OA
ATOM      9  N   UNL     1      34.015 -20.539 -19.054  0.00  0.00    -0.268 N 
ATOM     10  N   UNL     1      33.743 -21.898 -17.208  0.00  0.00    -0.248 N 
ATOM     11  N   UNL     1      35.181 -22.887 -15.549  0.00  0.00    -0.222 NA
ATOM     12  C   UNL     1      34.678 -21.206 -17.994  0.00  0.00    +0.310 C 
ATOM     13  C   UNL     1      34.016 -22.670 -16.077  0.00  0.00    +0.167 C 
ATOM     14  C   UNL     1      33.701 -24.072 -14.176  0.00  0.00    +0.059 C 
ATOM     15  C   UNL     1      35.003 -23.700 -14.446  0.00  0.00    +0.108 C 
ATOM     16  H   UNL     1      33.037 -20.654 -19.084  0.00  0.00    +0.156 HD
ATOM     17  H   UNL     1      32.800 -21.832 -17.483  0.00  0.00    +0.158 HD
ENDBRANCH   4   9
BRANCH   1  18
ATOM     18  S   UNL     1      33.428 -18.304 -23.645  0.00  0.00    +0.063 S 
ATOM     19  O   UNL     1      34.161 -18.802 -24.789  0.00  0.00    -0.153 OA
ATOM     20  O   UNL     1      32.061 -18.711 -23.399  0.00  0.00    -0.153 OA
BRANCH  18  21
ATOM     21  N   UNL     1      33.510 -16.593 -23.631  0.00  0.00    -0.152 NA
ATOM     22  N   UNL     1      33.075 -13.801 -23.396  0.00  0.00    -0.290 N 
ATOM     23  C   UNL     1      32.596 -15.901 -24.583  0.00  0.00    +0.117 C 
ATOM     24  C   UNL     1      33.457 -15.961 -22.283  0.00  0.00    +0.117 C 
ATOM     25  C   UNL     1      33.013 -14.440 -24.717  0.00  0.00    +0.111 C 
ATOM     26  C   UNL     1      33.881 -14.498 -22.387  0.00  0.00    +0.111 C 
ATOM     27  N   UNL     1      33.374 -11.640 -24.388  0.00  0.00    -0.229 NA
ATOM     28  C   UNL     1      32.948 -12.408 -23.339  0.00  0.00    +0.132 C 
ATOM     29  C   UNL     1      32.381 -11.836 -22.193  0.00  0.00    +0.034 C 
ATOM     30  C   UNL     1      32.249 -10.453 -22.122  0.00  0.00    +0.004 C 
ATOM     31  C   UNL     1      33.227 -10.300 -24.283  0.00  0.00    +0.100 C 
ATOM     32  C   UNL     1      32.676  -9.664 -23.182  0.00  0.00    +0.021 C 
ENDBRANCH  18  21
ENDBRANCH   1  18
TORSDOF 3
ENDMDL
MODEL 8
REMARK VINA RESULT:     -10.6      7.570     16.060
REMARK  Name = 12087505
REMARK  3 active torsions:
REMARK  status: ('A' for Active; 'I' for Inactive)
REMARK    1  A    between atoms: C_1  and  S_18
REMARK    2  A    between atoms: C_4  and  N_9
REMARK    3  A    between atoms: S_18  and  N_21
REMARK                            x       y       z     vdW  Elec       q    Type
REMARK                         _______ _______ _______ _____ _____    ______ ____
ROOT
ATOM      1  C   UNL     1      32.508  -8.811 -22.406  0.00  0.00    +0.123 C 
ATOM      2  C   UNL     1      32.384 -10.166 -22.665  0.00  0.00    +0.035 C 
ATOM      3  C   UNL     1      33.474  -8.042 -23.033  0.00  0.00    +0.020 C 
ATOM      4  C   UNL     1      33.250 -10.769 -23.577  0.00  0.00    +0.053 C 
ATOM      5  C   UNL     1      34.340  -8.644 -23.947  0.00  0.00    +0.003 C 
ATOM      6  C   UNL     1      34.227 -10.008 -24.218  0.00  0.00    +0.015 C 
ENDROOT
BRANCH   4   9
ATOM      7  S   UNL     1      32.997 -16.979 -24.287  0.00  0.00    -0.051 S 
ATOM      8  O   UNL     1      34.072 -13.131 -21.950  0.00  0.00    -0.252 OA
ATOM      9  N   UNL     1      33.138 -12.133 -23.850  0.00  0.00    -0.268 N 
ATOM     10  N   UNL     1      33.239 -14.434 -23.711  0.00  0.00    -0.248 N 
ATOM     11  N   UNL     1      34.037 -16.047 -22.111  0.00  0.00    -0.222 NA
ATOM     12  C   UNL     1      33.540 -13.232 -23.051  0.00  0.00    +0.310 C 
ATOM     13  C   UNL     1      33.486 -15.725 -23.241  0.00  0.00    +0.167 C 
ATOM     14  C   UNL     1      33.574 -18.104 -23.128  0.00  0.00    +0.059 C 
ATOM     15  C   UNL     1      34.090 -17.426 -22.042  0.00  0.00    +0.108 C 
ATOM     16  H   UNL     1      32.724 -12.362 -24.714  0.00  0.00    +0.156 HD
ATOM     17  H   UNL     1      32.811 -14.358 -24.594  0.00  0.00    +0.158 HD
ENDBRANCH   4   9
BRANCH   1  18
ATOM     18  S   UNL     1      31.413  -8.048 -21.249  0.00  0.00    +0.063 S 
ATOM     19  O   UNL     1      30.439  -9.038 -20.843  0.00  0.00    -0.153 OA
ATOM     20  O   UNL     1      32.216  -7.345 -20.272  0.00  0.00    -0.153 OA
BRANCH  18  21
ATOM     21  N   UNL     1      30.652  -6.903 -22.272  0.00  0.00    -0.152 NA
ATOM     22  N   UNL     1      29.963  -4.898 -24.155  0.00  0.00    -0.290 N 
ATOM     23  C   UNL     1      30.986  -5.477 -21.994  0.00  0.00    +0.117 C 
ATOM     24  C   UNL     1      30.730  -7.196 -23.730  0.00  0.00    +0.117 C 
ATOM     25  C   UNL     1      29.996  -4.573 -22.722  0.00  0.00    +0.111 C 
ATOM     26  C   UNL     1      29.740  -6.311 -24.483  0.00  0.00    +0.111 C 
ATOM     27  N   UNL     1      28.615  -2.972 -24.622  0.00  0.00    -0.229 NA
ATOM     28  C   UNL     1      29.526  -3.904 -25.038  0.00  0.00    +0.132 C 
ATOM     29  C   UNL     1      30.042  -3.895 -26.340  0.00  0.00    +0.034 C 
ATOM     30  C   UNL     1      29.617  -2.914 -27.230  0.00  0.00    +0.004 C 
ATOM     31  C   UNL     1      28.227  -2.034 -25.514  0.00  0.00    +0.100 C 
ATOM     32  C   UNL     1      28.693  -1.962 -26.817  0.00  0.00    +0.021 C 
ENDBRANCH  18  21
ENDBRANCH   1  18
TORSDOF 3
ENDMDL
MODEL 9
REMARK VINA RESULT:     -10.5      8.695     12.043
REMARK  Name = 12087505
REMARK  3 active torsions:
REMARK  status: ('A' for Active; 'I' for Inactive)
REMARK    1  A    between atoms: C_1  and  S_18
REMARK    2  A    between atoms: C_4  and  N_9
REMARK    3  A    between atoms: S_18  and  N_21
REMARK                            x       y       z     vdW  Elec       q    Type
REMARK                         _______ _______ _______ _____ _____    ______ ____
ROOT
ATOM      1  C   UNL     1      31.069  -8.787 -19.997  0.00  0.00    +0.123 C 
ATOM      2  C   UNL     1      30.855  -8.472 -21.328  0.00  0.00    +0.035 C 
ATOM      3  C   UNL     1      31.814  -7.962 -19.171  0.00  0.00    +0.020 C 
ATOM      4  C   UNL     1      31.400  -7.298 -21.848  0.00  0.00    +0.053 C 
ATOM      5  C   UNL     1      32.359  -6.787 -19.690  0.00  0.00    +0.003 C 
ATOM      6  C   UNL     1      32.151  -6.456 -21.029  0.00  0.00    +0.015 C 
ENDROOT
BRANCH   4   9
ATOM      7  S   UNL     1      31.043  -5.772 -27.905  0.00  0.00    -0.051 S 
ATOM      8  O   UNL     1      33.367  -6.684 -24.007  0.00  0.00    -0.252 OA
ATOM      9  N   UNL     1      31.192  -6.965 -23.187  0.00  0.00    -0.268 N 
ATOM     10  N   UNL     1      31.505  -6.393 -25.401  0.00  0.00    -0.248 N 
ATOM     11  N   UNL     1      33.390  -5.964 -26.838  0.00  0.00    -0.222 NA
ATOM     12  C   UNL     1      32.153  -6.679 -24.189  0.00  0.00    +0.310 C 
ATOM     13  C   UNL     1      32.116  -6.064 -26.613  0.00  0.00    +0.167 C 
ATOM     14  C   UNL     1      32.405  -5.473 -28.903  0.00  0.00    +0.059 C 
ATOM     15  C   UNL     1      33.562  -5.622 -28.165  0.00  0.00    +0.108 C 
ATOM     16  H   UNL     1      30.251  -6.922 -23.475  0.00  0.00    +0.156 HD
ATOM     17  H   UNL     1      30.521  -6.427 -25.395  0.00  0.00    +0.158 HD
ENDBRANCH   4   9
BRANCH   1  18
ATOM     18  S   UNL     1      30.381 -10.274 -19.339  0.00  0.00    +0.063 S 
ATOM     19  O   UNL     1      30.684 -10.315 -17.925  0.00  0.00    -0.153 OA
ATOM     20  O   UNL     1      29.019 -10.383 -19.815  0.00  0.00    -0.153 OA
BRANCH  18  21
ATOM     21  N   UNL     1      31.348 -11.433 -20.150  0.00  0.00    -0.152 NA
ATOM     22  N   UNL     1      32.413 -13.547 -21.712  0.00  0.00    -0.290 N 
ATOM     23  C   UNL     1      31.145 -12.846 -19.724  0.00  0.00    +0.117 C 
ATOM     24  C   UNL     1      31.370 -11.321 -21.636  0.00  0.00    +0.117 C 
ATOM     25  C   UNL     1      32.287 -13.707 -20.257  0.00  0.00    +0.111 C 
ATOM     26  C   UNL     1      32.512 -12.165 -22.196  0.00  0.00    +0.111 C 
ATOM     27  N   UNL     1      33.995 -15.343 -21.833  0.00  0.00    -0.229 NA
ATOM     28  C   UNL     1      33.030 -14.578 -22.430  0.00  0.00    +0.132 C 
ATOM     29  C   UNL     1      32.636 -14.797 -23.756  0.00  0.00    +0.034 C 
ATOM     30  C   UNL     1      33.241 -15.817 -24.482  0.00  0.00    +0.004 C 
ATOM     31  C   UNL     1      34.559 -16.326 -22.570  0.00  0.00    +0.100 C 
ATOM     32  C   UNL     1      34.221 -16.601 -23.885  0.00  0.00    +0.021 C 
ENDBRANCH  18  21
ENDBRANCH   1  18
TORSDOF 3
ENDMDL
