MODEL 1
REMARK VINA RESULT:     -12.0      0.000      0.000
REMARK  Name = 154000
REMARK  7 active torsions:
REMARK  status: ('A' for Active; 'I' for Inactive)
REMARK    1  A    between atoms: O_1  and  C_5
REMARK    2  A    between atoms: O_1  and  C_17
REMARK    3  A    between atoms: C_2  and  C_8
REMARK    4  A    between atoms: C_8  and  C_13
REMARK    5  A    between atoms: C_17  and  C_18
REMARK    6  A    between atoms: C_18  and  C_21
REMARK    7  A    between atoms: C_23  and  C_25
REMARK                            x       y       z     vdW  Elec       q    Type
REMARK                         _______ _______ _______ _____ _____    ______ ____
ROOT
ATOM      1  O   UNL     1      35.099 -22.568 -16.565  0.00  0.00    -0.475 OA
ENDROOT
BRANCH   1   5
ATOM      2  C   UNL     1      33.680 -20.273 -19.696  0.00  0.00    -0.021 C 
ATOM      3  C   UNL     1      32.783 -20.983 -18.912  0.00  0.00    -0.001 C 
ATOM      4  C   UNL     1      35.044 -20.319 -19.450  0.00  0.00    -0.001 C 
ATOM      5  C   UNL     1      34.631 -21.812 -17.596  0.00  0.00    +0.139 C 
ATOM      6  C   UNL     1      33.261 -21.757 -17.855  0.00  0.00    +0.037 C 
ATOM      7  C   UNL     1      35.522 -21.094 -18.393  0.00  0.00    +0.037 C 
BRANCH   2   8
ATOM      8  C   UNL     1      33.162 -19.437 -20.840  0.00  0.00    +0.047 C 
BRANCH   8  13
ATOM      9  O   UNL     1      34.038 -17.438 -23.500  0.00  0.00    -0.346 OA
ATOM     10  O   UNL     1      34.419 -16.788 -20.090  0.00  0.00    -0.272 OA
ATOM     11  O   UNL     1      33.960 -19.718 -23.762  0.00  0.00    -0.247 OA
ATOM     12  N   UNL     1      34.173 -16.570 -22.396  0.00  0.00    -0.144 N 
ATOM     13  C   UNL     1      34.280 -18.711 -21.564  0.00  0.00    +0.184 C 
ATOM     14  C   UNL     1      34.303 -17.255 -21.212  0.00  0.00    +0.264 C 
ATOM     15  C   UNL     1      34.073 -18.730 -23.056  0.00  0.00    +0.348 C 
ATOM     16  H   UNL     1      34.175 -15.588 -22.467  0.00  0.00    +0.196 HD
ENDBRANCH   8  13
ENDBRANCH   2   8
ENDBRANCH   1   5
BRANCH   1  17
ATOM     17  C   UNL     1      35.293 -21.909 -15.313  0.00  0.00    +0.213 C 
BRANCH  17  18
ATOM     18  C   UNL     1      35.321 -22.939 -14.188  0.00  0.00    +0.105 C 
BRANCH  18  21
ATOM     19  O   UNL     1      32.247 -24.040 -12.559  0.00  0.00    -0.449 OA
ATOM     20  N   UNL     1      32.888 -23.185 -14.552  0.00  0.00    -0.373 NA
ATOM     21  C   UNL     1      33.949 -23.332 -13.722  0.00  0.00    +0.134 C 
ATOM     22  C   UNL     1      33.594 -23.842 -12.520  0.00  0.00    +0.216 C 
ATOM     23  C   UNL     1      31.898 -23.624 -13.807  0.00  0.00    +0.277 C 
ATOM     24  C   UNL     1      34.287 -24.202 -11.279  0.00  0.00    +0.055 C 
BRANCH  23  25
ATOM     25  C   UNL     1      30.499 -23.727 -14.118  0.00  0.00    +0.066 C 
ATOM     26  C   UNL     1      29.732 -24.764 -13.579  0.00  0.00    +0.006 C 
ATOM     27  C   UNL     1      29.898 -22.791 -14.964  0.00  0.00    +0.006 C 
ATOM     28  C   UNL     1      28.375 -24.864 -13.884  0.00  0.00    +0.000 C 
ATOM     29  C   UNL     1      28.540 -22.890 -15.267  0.00  0.00    +0.000 C 
ATOM     30  C   UNL     1      27.778 -23.927 -14.728  0.00  0.00    +0.000 C 
ENDBRANCH  23  25
ENDBRANCH  18  21
ENDBRANCH  17  18
ENDBRANCH   1  17
TORSDOF 7
ENDMDL
MODEL 2
REMARK VINA RESULT:     -11.6      1.694      4.347
REMARK  Name = 154000
REMARK  7 active torsions:
REMARK  status: ('A' for Active; 'I' for Inactive)
REMARK    1  A    between atoms: O_1  and  C_5
REMARK    2  A    between atoms: O_1  and  C_17
REMARK    3  A    between atoms: C_2  and  C_8
REMARK    4  A    between atoms: C_8  and  C_13
REMARK    5  A    between atoms: C_17  and  C_18
REMARK    6  A    between atoms: C_18  and  C_21
REMARK    7  A    between atoms: C_23  and  C_25
REMARK                            x       y       z     vdW  Elec       q    Type
REMARK                         _______ _______ _______ _____ _____    ______ ____
ROOT
ATOM      1  O   UNL     1      31.872 -22.334 -18.031  0.00  0.00    -0.475 OA
ENDROOT
BRANCH   1   5
ATOM      2  C   UNL     1      33.974 -19.553 -20.251  0.00  0.00    -0.021 C 
ATOM      3  C   UNL     1      32.587 -19.542 -20.283  0.00  0.00    -0.001 C 
ATOM      4  C   UNL     1      34.667 -20.480 -19.488  0.00  0.00    -0.001 C 
ATOM      5  C   UNL     1      32.563 -21.418 -18.762  0.00  0.00    +0.139 C 
ATOM      6  C   UNL     1      31.877 -20.480 -19.534  0.00  0.00    +0.037 C 
ATOM      7  C   UNL     1      33.958 -21.418 -18.739  0.00  0.00    +0.037 C 
BRANCH   2   8
ATOM      8  C   UNL     1      34.741 -18.539 -21.062  0.00  0.00    +0.047 C 
BRANCH   8  13
ATOM      9  O   UNL     1      34.418 -15.531 -22.703  0.00  0.00    -0.346 OA
ATOM     10  O   UNL     1      33.881 -18.747 -23.957  0.00  0.00    -0.272 OA
ATOM     11  O   UNL     1      34.140 -15.625 -20.425  0.00  0.00    -0.247 OA
ATOM     12  N   UNL     1      34.341 -16.472 -23.752  0.00  0.00    -0.144 N 
ATOM     13  C   UNL     1      33.818 -17.601 -21.817  0.00  0.00    +0.184 C 
ATOM     14  C   UNL     1      34.007 -17.726 -23.299  0.00  0.00    +0.264 C 
ATOM     15  C   UNL     1      34.136 -16.159 -21.522  0.00  0.00    +0.348 C 
ATOM     16  H   UNL     1      34.507 -16.255 -24.697  0.00  0.00    +0.196 HD
ENDBRANCH   8  13
ENDBRANCH   2   8
ENDBRANCH   1   5
BRANCH   1  17
ATOM     17  C   UNL     1      32.527 -22.879 -16.885  0.00  0.00    +0.213 C 
BRANCH  17  18
ATOM     18  C   UNL     1      31.556 -22.926 -15.709  0.00  0.00    +0.105 C 
BRANCH  18  21
ATOM     19  O   UNL     1      32.662 -23.711 -12.321  0.00  0.00    -0.449 OA
ATOM     20  N   UNL     1      33.578 -23.381 -14.363  0.00  0.00    -0.373 NA
ATOM     21  C   UNL     1      32.231 -23.250 -14.408  0.00  0.00    +0.134 C 
ATOM     22  C   UNL     1      31.655 -23.442 -13.199  0.00  0.00    +0.216 C 
ATOM     23  C   UNL     1      33.782 -23.655 -13.093  0.00  0.00    +0.277 C 
ATOM     24  C   UNL     1      30.289 -23.426 -12.664  0.00  0.00    +0.055 C 
BRANCH  23  25
ATOM     25  C   UNL     1      35.015 -23.908 -12.401  0.00  0.00    +0.066 C 
ATOM     26  C   UNL     1      35.546 -22.948 -11.534  0.00  0.00    +0.006 C 
ATOM     27  C   UNL     1      35.694 -25.114 -12.593  0.00  0.00    +0.006 C 
ATOM     28  C   UNL     1      36.744 -23.193 -10.865  0.00  0.00    +0.000 C 
ATOM     29  C   UNL     1      36.892 -25.360 -11.923  0.00  0.00    +0.000 C 
ATOM     30  C   UNL     1      37.418 -24.400 -11.059  0.00  0.00    +0.000 C 
ENDBRANCH  23  25
ENDBRANCH  18  21
ENDBRANCH  17  18
ENDBRANCH   1  17
TORSDOF 7
ENDMDL
MODEL 3
REMARK VINA RESULT:     -11.5      5.777      9.725
REMARK  Name = 154000
REMARK  7 active torsions:
REMARK  status: ('A' for Active; 'I' for Inactive)
REMARK    1  A    between atoms: O_1  and  C_5
REMARK    2  A    between atoms: O_1  and  C_17
REMARK    3  A    between atoms: C_2  and  C_8
REMARK    4  A    between atoms: C_8  and  C_13
REMARK    5  A    between atoms: C_17  and  C_18
REMARK    6  A    between atoms: C_18  and  C_21
REMARK    7  A    between atoms: C_23  and  C_25
REMARK                            x       y       z     vdW  Elec       q    Type
REMARK                         _______ _______ _______ _____ _____    ______ ____
ROOT
ATOM      1  O   UNL     1      33.281 -14.807 -21.327  0.00  0.00    -0.475 OA
ENDROOT
BRANCH   1   5
ATOM      2  C   UNL     1      31.116 -11.323 -20.814  0.00  0.00    -0.021 C 
ATOM      3  C   UNL     1      31.038 -12.321 -19.853  0.00  0.00    -0.001 C 
ATOM      4  C   UNL     1      31.906 -11.474 -21.943  0.00  0.00    -0.001 C 
ATOM      5  C   UNL     1      32.568 -13.660 -21.157  0.00  0.00    +0.139 C 
ATOM      6  C   UNL     1      31.768 -13.496 -20.026  0.00  0.00    +0.037 C 
ATOM      7  C   UNL     1      32.637 -12.649 -22.116  0.00  0.00    +0.037 C 
BRANCH   2   8
ATOM      8  C   UNL     1      30.325 -10.053 -20.628  0.00  0.00    +0.047 C 
BRANCH   8  13
ATOM      9  O   UNL     1      30.504  -6.656 -20.105  0.00  0.00    -0.346 OA
ATOM     10  O   UNL     1      31.842  -9.219 -18.145  0.00  0.00    -0.272 OA
ATOM     11  O   UNL     1      30.268  -7.473 -22.239  0.00  0.00    -0.247 OA
ATOM     12  N   UNL     1      30.974  -7.187 -18.886  0.00  0.00    -0.144 N 
ATOM     13  C   UNL     1      31.225  -8.843 -20.463  0.00  0.00    +0.184 C 
ATOM     14  C   UNL     1      31.401  -8.487 -19.017  0.00  0.00    +0.264 C 
ATOM     15  C   UNL     1      30.611  -7.612 -21.076  0.00  0.00    +0.348 C 
ATOM     16  H   UNL     1      30.993  -6.685 -18.039  0.00  0.00    +0.196 HD
ENDBRANCH   8  13
ENDBRANCH   2   8
ENDBRANCH   1   5
BRANCH   1  17
ATOM     17  C   UNL     1      33.817 -15.052 -22.627  0.00  0.00    +0.213 C 
BRANCH  17  18
ATOM     18  C   UNL     1      34.847 -16.176 -22.556  0.00  0.00    +0.105 C 
BRANCH  18  21
ATOM     19  O   UNL     1      33.157 -19.362 -21.996  0.00  0.00    -0.449 OA
ATOM     20  N   UNL     1      34.538 -17.963 -20.876  0.00  0.00    -0.373 NA
ATOM     21  C   UNL     1      34.255 -17.482 -22.111  0.00  0.00    +0.134 C 
ATOM     22  C   UNL     1      33.430 -18.300 -22.804  0.00  0.00    +0.216 C 
ATOM     23  C   UNL     1      33.856 -19.087 -20.861  0.00  0.00    +0.277 C 
ATOM     24  C   UNL     1      32.810 -18.295 -24.134  0.00  0.00    +0.055 C 
BRANCH  23  25
ATOM     25  C   UNL     1      33.742 -20.070 -19.819  0.00  0.00    +0.066 C 
ATOM     26  C   UNL     1      34.890 -20.605 -19.227  0.00  0.00    +0.006 C 
ATOM     27  C   UNL     1      32.482 -20.499 -19.393  0.00  0.00    +0.006 C 
ATOM     28  C   UNL     1      34.778 -21.561 -18.218  0.00  0.00    +0.000 C 
ATOM     29  C   UNL     1      32.370 -21.454 -18.383  0.00  0.00    +0.000 C 
ATOM     30  C   UNL     1      33.518 -21.986 -17.795  0.00  0.00    +0.000 C 
ENDBRANCH  23  25
ENDBRANCH  18  21
ENDBRANCH  17  18
ENDBRANCH   1  17
TORSDOF 7
ENDMDL
MODEL 4
REMARK VINA RESULT:     -11.5      2.975     10.525
REMARK  Name = 154000
REMARK  7 active torsions:
REMARK  status: ('A' for Active; 'I' for Inactive)
REMARK    1  A    between atoms: O_1  and  C_5
REMARK    2  A    between atoms: O_1  and  C_17
REMARK    3  A    between atoms: C_2  and  C_8
REMARK    4  A    between atoms: C_8  and  C_13
REMARK    5  A    between atoms: C_17  and  C_18
REMARK    6  A    between atoms: C_18  and  C_21
REMARK    7  A    between atoms: C_23  and  C_25
REMARK                            x       y       z     vdW  Elec       q    Type
REMARK                         _______ _______ _______ _____ _____    ______ ____
ROOT
ATOM      1  O   UNL     1      34.539 -21.028 -19.693  0.00  0.00    -0.475 OA
ENDROOT
BRANCH   1   5
ATOM      2  C   UNL     1      34.576 -22.373 -15.785  0.00  0.00    -0.021 C 
ATOM      3  C   UNL     1      35.706 -21.758 -16.304  0.00  0.00    -0.001 C 
ATOM      4  C   UNL     1      33.435 -22.545 -16.553  0.00  0.00    -0.001 C 
ATOM      5  C   UNL     1      34.552 -21.470 -18.406  0.00  0.00    +0.139 C 
ATOM      6  C   UNL     1      35.694 -21.304 -17.623  0.00  0.00    +0.037 C 
ATOM      7  C   UNL     1      33.423 -22.091 -17.871  0.00  0.00    +0.037 C 
BRANCH   2   8
ATOM      8  C   UNL     1      34.591 -22.864 -14.359  0.00  0.00    +0.047 C 
BRANCH   8  13
ATOM      9  O   UNL     1      36.277 -24.764 -12.037  0.00  0.00    -0.346 OA
ATOM     10  O   UNL     1      34.768 -25.816 -15.006  0.00  0.00    -0.272 OA
ATOM     11  O   UNL     1      36.781 -22.535 -12.273  0.00  0.00    -0.247 OA
ATOM     12  N   UNL     1      35.672 -25.737 -12.861  0.00  0.00    -0.144 N 
ATOM     13  C   UNL     1      35.758 -23.796 -14.092  0.00  0.00    +0.184 C 
ATOM     14  C   UNL     1      35.321 -25.230 -14.089  0.00  0.00    +0.264 C 
ATOM     15  C   UNL     1      36.333 -23.580 -12.717  0.00  0.00    +0.348 C 
ATOM     16  H   UNL     1      35.519 -26.670 -12.587  0.00  0.00    +0.196 HD
ENDBRANCH   8  13
ENDBRANCH   2   8
ENDBRANCH   1   5
BRANCH   1  17
ATOM     17  C   UNL     1      33.950 -19.749 -19.934  0.00  0.00    +0.213 C 
BRANCH  17  18
ATOM     18  C   UNL     1      34.996 -18.802 -20.514  0.00  0.00    +0.105 C 
BRANCH  18  21
ATOM     19  O   UNL     1      33.684 -17.301 -23.571  0.00  0.00    -0.449 OA
ATOM     20  N   UNL     1      34.325 -16.639 -21.505  0.00  0.00    -0.373 NA
ATOM     21  C   UNL     1      34.468 -17.978 -21.653  0.00  0.00    +0.134 C 
ATOM     22  C   UNL     1      34.091 -18.402 -22.881  0.00  0.00    +0.216 C 
ATOM     23  C   UNL     1      33.854 -16.286 -22.681  0.00  0.00    +0.277 C 
ATOM     24  C   UNL     1      34.031 -19.690 -23.581  0.00  0.00    +0.055 C 
BRANCH  23  25
ATOM     25  C   UNL     1      33.490 -14.982 -23.163  0.00  0.00    +0.066 C 
ATOM     26  C   UNL     1      33.707 -13.852 -22.370  0.00  0.00    +0.006 C 
ATOM     27  C   UNL     1      32.914 -14.837 -24.428  0.00  0.00    +0.006 C 
ATOM     28  C   UNL     1      33.351 -12.587 -22.838  0.00  0.00    +0.000 C 
ATOM     29  C   UNL     1      32.559 -13.572 -24.897  0.00  0.00    +0.000 C 
ATOM     30  C   UNL     1      32.777 -12.447 -24.102  0.00  0.00    +0.000 C 
ENDBRANCH  23  25
ENDBRANCH  18  21
ENDBRANCH  17  18
ENDBRANCH   1  17
TORSDOF 7
ENDMDL
MODEL 5
REMARK VINA RESULT:     -11.4      2.591      4.606
REMARK  Name = 154000
REMARK  7 active torsions:
REMARK  status: ('A' for Active; 'I' for Inactive)
REMARK    1  A    between atoms: O_1  and  C_5
REMARK    2  A    between atoms: O_1  and  C_17
REMARK    3  A    between atoms: C_2  and  C_8
REMARK    4  A    between atoms: C_8  and  C_13
REMARK    5  A    between atoms: C_17  and  C_18
REMARK    6  A    between atoms: C_18  and  C_21
REMARK    7  A    between atoms: C_23  and  C_25
REMARK                            x       y       z     vdW  Elec       q    Type
REMARK                         _______ _______ _______ _____ _____    ______ ____
ROOT
ATOM      1  O   UNL     1      34.219 -19.738 -20.041  0.00  0.00    -0.475 OA
ENDROOT
BRANCH   1   5
ATOM      2  C   UNL     1      34.187 -16.721 -22.866  0.00  0.00    -0.021 C 
ATOM      3  C   UNL     1      34.565 -16.430 -21.564  0.00  0.00    -0.001 C 
ATOM      4  C   UNL     1      33.819 -18.005 -23.237  0.00  0.00    -0.001 C 
ATOM      5  C   UNL     1      34.209 -18.744 -20.970  0.00  0.00    +0.139 C 
ATOM      6  C   UNL     1      34.576 -17.447 -20.610  0.00  0.00    +0.037 C 
ATOM      7  C   UNL     1      33.830 -19.023 -22.284  0.00  0.00    +0.037 C 
BRANCH   2   8
ATOM      8  C   UNL     1      34.174 -15.620 -23.897  0.00  0.00    +0.047 C 
BRANCH   8  13
ATOM      9  O   UNL     1      32.875 -12.441 -24.122  0.00  0.00    -0.346 OA
ATOM     10  O   UNL     1      31.954 -15.286 -25.926  0.00  0.00    -0.272 OA
ATOM     11  O   UNL     1      33.822 -13.151 -22.154  0.00  0.00    -0.247 OA
ATOM     12  N   UNL     1      32.320 -13.088 -25.246  0.00  0.00    -0.144 N 
ATOM     13  C   UNL     1      32.941 -14.744 -23.776  0.00  0.00    +0.184 C 
ATOM     14  C   UNL     1      32.342 -14.457 -25.119  0.00  0.00    +0.264 C 
ATOM     15  C   UNL     1      33.281 -13.386 -23.222  0.00  0.00    +0.348 C 
ATOM     16  H   UNL     1      31.960 -12.614 -26.030  0.00  0.00    +0.196 HD
ENDBRANCH   8  13
ENDBRANCH   2   8
ENDBRANCH   1   5
BRANCH   1  17
ATOM     17  C   UNL     1      32.956 -20.160 -19.527  0.00  0.00    +0.213 C 
BRANCH  17  18
ATOM     18  C   UNL     1      32.962 -21.672 -19.323  0.00  0.00    +0.105 C 
BRANCH  18  21
ATOM     19  O   UNL     1      33.538 -22.482 -15.811  0.00  0.00    -0.449 OA
ATOM     20  N   UNL     1      31.829 -22.512 -17.292  0.00  0.00    -0.373 NA
ATOM     21  C   UNL     1      32.968 -22.065 -17.874  0.00  0.00    +0.134 C 
ATOM     22  C   UNL     1      34.008 -22.036 -17.009  0.00  0.00    +0.216 C 
ATOM     23  C   UNL     1      32.227 -22.747 -16.062  0.00  0.00    +0.277 C 
ATOM     24  C   UNL     1      35.425 -21.660 -17.073  0.00  0.00    +0.055 C 
BRANCH  23  25
ATOM     25  C   UNL     1      31.477 -23.241 -14.940  0.00  0.00    +0.066 C 
ATOM     26  C   UNL     1      32.139 -23.781 -13.833  0.00  0.00    +0.006 C 
ATOM     27  C   UNL     1      30.081 -23.188 -14.950  0.00  0.00    +0.006 C 
ATOM     28  C   UNL     1      31.411 -24.262 -12.746  0.00  0.00    +0.000 C 
ATOM     29  C   UNL     1      29.352 -23.670 -13.863  0.00  0.00    +0.000 C 
ATOM     30  C   UNL     1      30.017 -24.207 -12.760  0.00  0.00    +0.000 C 
ENDBRANCH  23  25
ENDBRANCH  18  21
ENDBRANCH  17  18
ENDBRANCH   1  17
TORSDOF 7
ENDMDL
MODEL 6
REMARK VINA RESULT:     -11.3      2.983     10.724
REMARK  Name = 154000
REMARK  7 active torsions:
REMARK  status: ('A' for Active; 'I' for Inactive)
REMARK    1  A    between atoms: O_1  and  C_5
REMARK    2  A    between atoms: O_1  and  C_17
REMARK    3  A    between atoms: C_2  and  C_8
REMARK    4  A    between atoms: C_8  and  C_13
REMARK    5  A    between atoms: C_17  and  C_18
REMARK    6  A    between atoms: C_18  and  C_21
REMARK    7  A    between atoms: C_23  and  C_25
REMARK                            x       y       z     vdW  Elec       q    Type
REMARK                         _______ _______ _______ _____ _____    ______ ____
ROOT
ATOM      1  O   UNL     1      34.960 -19.894 -20.014  0.00  0.00    -0.475 OA
ENDROOT
BRANCH   1   5
ATOM      2  C   UNL     1      33.043 -22.310 -17.261  0.00  0.00    -0.021 C 
ATOM      3  C   UNL     1      32.304 -21.705 -18.267  0.00  0.00    -0.001 C 
ATOM      4  C   UNL     1      34.413 -22.118 -17.161  0.00  0.00    -0.001 C 
ATOM      5  C   UNL     1      34.328 -20.689 -19.107  0.00  0.00    +0.139 C 
ATOM      6  C   UNL     1      32.951 -20.890 -19.196  0.00  0.00    +0.037 C 
ATOM      7  C   UNL     1      35.059 -21.303 -18.090  0.00  0.00    +0.037 C 
BRANCH   2   8
ATOM      8  C   UNL     1      32.343 -23.189 -16.256  0.00  0.00    +0.047 C 
BRANCH   8  13
ATOM      9  O   UNL     1      31.912 -23.828 -12.902  0.00  0.00    -0.346 OA
ATOM     10  O   UNL     1      34.666 -24.588 -14.911  0.00  0.00    -0.272 OA
ATOM     11  O   UNL     1      30.812 -22.064 -13.879  0.00  0.00    -0.247 OA
ATOM     12  N   UNL     1      33.064 -24.578 -13.220  0.00  0.00    -0.144 N 
ATOM     13  C   UNL     1      32.861 -22.966 -14.848  0.00  0.00    +0.184 C 
ATOM     14  C   UNL     1      33.669 -24.135 -14.372  0.00  0.00    +0.264 C 
ATOM     15  C   UNL     1      31.733 -22.865 -13.855  0.00  0.00    +0.348 C 
ATOM     16  H   UNL     1      33.395 -25.331 -12.679  0.00  0.00    +0.196 HD
ENDBRANCH   8  13
ENDBRANCH   2   8
ENDBRANCH   1   5
BRANCH   1  17
ATOM     17  C   UNL     1      34.202 -18.826 -20.581  0.00  0.00    +0.213 C 
BRANCH  17  18
ATOM     18  C   UNL     1      35.112 -17.941 -21.427  0.00  0.00    +0.105 C 
BRANCH  18  21
ATOM     19  O   UNL     1      33.130 -16.549 -24.158  0.00  0.00    -0.449 OA
ATOM     20  N   UNL     1      34.390 -15.801 -22.435  0.00  0.00    -0.373 NA
ATOM     21  C   UNL     1      34.361 -17.156 -22.464  0.00  0.00    +0.134 C 
ATOM     22  C   UNL     1      33.613 -17.631 -23.486  0.00  0.00    +0.216 C 
ATOM     23  C   UNL     1      33.640 -15.492 -23.469  0.00  0.00    +0.277 C 
ATOM     24  C   UNL     1      33.236 -18.955 -23.993  0.00  0.00    +0.055 C 
BRANCH  23  25
ATOM     25  C   UNL     1      33.277 -14.198 -23.977  0.00  0.00    +0.066 C 
ATOM     26  C   UNL     1      32.737 -14.071 -25.260  0.00  0.00    +0.006 C 
ATOM     27  C   UNL     1      33.463 -13.057 -23.191  0.00  0.00    +0.006 C 
ATOM     28  C   UNL     1      32.388 -12.814 -25.753  0.00  0.00    +0.000 C 
ATOM     29  C   UNL     1      33.113 -11.800 -23.683  0.00  0.00    +0.000 C 
ATOM     30  C   UNL     1      32.575 -11.678 -24.964  0.00  0.00    +0.000 C 
ENDBRANCH  23  25
ENDBRANCH  18  21
ENDBRANCH  17  18
ENDBRANCH   1  17
TORSDOF 7
ENDMDL
MODEL 7
REMARK VINA RESULT:     -11.2      3.607     10.291
REMARK  Name = 154000
REMARK  7 active torsions:
REMARK  status: ('A' for Active; 'I' for Inactive)
REMARK    1  A    between atoms: O_1  and  C_5
REMARK    2  A    between atoms: O_1  and  C_17
REMARK    3  A    between atoms: C_2  and  C_8
REMARK    4  A    between atoms: C_8  and  C_13
REMARK    5  A    between atoms: C_17  and  C_18
REMARK    6  A    between atoms: C_18  and  C_21
REMARK    7  A    between atoms: C_23  and  C_25
REMARK                            x       y       z     vdW  Elec       q    Type
REMARK                         _______ _______ _______ _____ _____    ______ ____
ROOT
ATOM      1  O   UNL     1      34.963 -18.722 -20.748  0.00  0.00    -0.475 OA
ENDROOT
BRANCH   1   5
ATOM      2  C   UNL     1      33.257 -21.735 -18.490  0.00  0.00    -0.021 C 
ATOM      3  C   UNL     1      34.637 -21.599 -18.513  0.00  0.00    -0.001 C 
ATOM      4  C   UNL     1      32.439 -20.878 -19.212  0.00  0.00    -0.001 C 
ATOM      5  C   UNL     1      34.402 -19.714 -20.005  0.00  0.00    +0.139 C 
ATOM      6  C   UNL     1      35.213 -20.583 -19.275  0.00  0.00    +0.037 C 
ATOM      7  C   UNL     1      33.015 -19.862 -19.973  0.00  0.00    +0.037 C 
BRANCH   2   8
ATOM      8  C   UNL     1      32.635 -22.835 -17.668  0.00  0.00    +0.047 C 
BRANCH   8  13
ATOM      9  O   UNL     1      31.029 -23.498 -14.697  0.00  0.00    -0.346 OA
ATOM     10  O   UNL     1      34.464 -23.295 -15.300  0.00  0.00    -0.272 OA
ATOM     11  O   UNL     1      29.972 -22.258 -16.315  0.00  0.00    -0.247 OA
ATOM     12  N   UNL     1      32.375 -23.804 -14.403  0.00  0.00    -0.144 N 
ATOM     13  C   UNL     1      32.404 -22.408 -16.231  0.00  0.00    +0.184 C 
ATOM     14  C   UNL     1      33.246 -23.207 -15.282  0.00  0.00    +0.264 C 
ATOM     15  C   UNL     1      30.989 -22.684 -15.794  0.00  0.00    +0.348 C 
ATOM     16  H   UNL     1      32.656 -24.379 -13.655  0.00  0.00    +0.196 HD
ENDBRANCH   8  13
ENDBRANCH   2   8
ENDBRANCH   1   5
BRANCH   1  17
ATOM     17  C   UNL     1      34.328 -17.443 -20.709  0.00  0.00    +0.213 C 
BRANCH  17  18
ATOM     18  C   UNL     1      34.638 -16.675 -21.991  0.00  0.00    +0.105 C 
BRANCH  18  21
ATOM     19  O   UNL     1      32.401 -13.989 -23.042  0.00  0.00    -0.449 OA
ATOM     20  N   UNL     1      33.449 -14.674 -21.158  0.00  0.00    -0.373 NA
ATOM     21  C   UNL     1      33.731 -15.496 -22.197  0.00  0.00    +0.134 C 
ATOM     22  C   UNL     1      33.117 -15.110 -23.338  0.00  0.00    +0.216 C 
ATOM     23  C   UNL     1      32.652 -13.792 -21.719  0.00  0.00    +0.277 C 
ATOM     24  C   UNL     1      33.055 -15.595 -24.722  0.00  0.00    +0.055 C 
BRANCH  23  25
ATOM     25  C   UNL     1      32.004 -12.649 -21.137  0.00  0.00    +0.066 C 
ATOM     26  C   UNL     1      31.445 -12.731 -19.858  0.00  0.00    +0.006 C 
ATOM     27  C   UNL     1      31.927 -11.448 -21.848  0.00  0.00    +0.006 C 
ATOM     28  C   UNL     1      30.814 -11.622 -19.296  0.00  0.00    +0.000 C 
ATOM     29  C   UNL     1      31.297 -10.338 -21.285  0.00  0.00    +0.000 C 
ATOM     30  C   UNL     1      30.740 -10.425 -20.009  0.00  0.00    +0.000 C 
ENDBRANCH  23  25
ENDBRANCH  18  21
ENDBRANCH  17  18
ENDBRANCH   1  17
TORSDOF 7
ENDMDL
MODEL 8
REMARK VINA RESULT:     -11.2      5.959     12.788
REMARK  Name = 154000
REMARK  7 active torsions:
REMARK  status: ('A' for Active; 'I' for Inactive)
REMARK    1  A    between atoms: O_1  and  C_5
REMARK    2  A    between atoms: O_1  and  C_17
REMARK    3  A    between atoms: C_2  and  C_8
REMARK    4  A    between atoms: C_8  and  C_13
REMARK    5  A    between atoms: C_17  and  C_18
REMARK    6  A    between atoms: C_18  and  C_21
REMARK    7  A    between atoms: C_23  and  C_25
REMARK                            x       y       z     vdW  Elec       q    Type
REMARK                         _______ _______ _______ _____ _____    ______ ____
ROOT
ATOM      1  O   UNL     1      34.280 -14.884 -22.825  0.00  0.00    -0.475 OA
ENDROOT
BRANCH   1   5
ATOM      2  C   UNL     1      34.178 -18.761 -21.395  0.00  0.00    -0.021 C 
ATOM      3  C   UNL     1      33.956 -18.526 -22.745  0.00  0.00    -0.001 C 
ATOM      4  C   UNL     1      34.432 -17.718 -20.518  0.00  0.00    -0.001 C 
ATOM      5  C   UNL     1      34.246 -16.160 -22.355  0.00  0.00    +0.139 C 
ATOM      6  C   UNL     1      33.991 -17.219 -23.227  0.00  0.00    +0.037 C 
ATOM      7  C   UNL     1      34.467 -16.410 -21.001  0.00  0.00    +0.037 C 
BRANCH   2   8
ATOM      8  C   UNL     1      34.139 -20.175 -20.874  0.00  0.00    +0.047 C 
BRANCH   8  13
ATOM      9  O   UNL     1      32.122 -21.788 -18.599  0.00  0.00    -0.346 OA
ATOM     10  O   UNL     1      35.585 -21.343 -18.485  0.00  0.00    -0.272 OA
ATOM     11  O   UNL     1      31.255 -20.110 -19.907  0.00  0.00    -0.247 OA
ATOM     12  N   UNL     1      33.420 -22.149 -18.181  0.00  0.00    -0.144 N 
ATOM     13  C   UNL     1      33.646 -20.238 -19.441  0.00  0.00    +0.184 C 
ATOM     14  C   UNL     1      34.378 -21.286 -18.657  0.00  0.00    +0.264 C 
ATOM     15  C   UNL     1      32.203 -20.664 -19.373  0.00  0.00    +0.348 C 
ATOM     16  H   UNL     1      33.617 -22.930 -17.614  0.00  0.00    +0.196 HD
ENDBRANCH   8  13
ENDBRANCH   2   8
ENDBRANCH   1   5
BRANCH   1  17
ATOM     17  C   UNL     1      33.775 -13.861 -21.966  0.00  0.00    +0.213 C 
BRANCH  17  18
ATOM     18  C   UNL     1      32.482 -13.294 -22.544  0.00  0.00    +0.105 C 
BRANCH  18  21
ATOM     19  O   UNL     1      33.006 -10.615 -24.966  0.00  0.00    -0.449 OA
ATOM     20  N   UNL     1      32.805 -10.850 -22.725  0.00  0.00    -0.373 NA
ATOM     21  C   UNL     1      32.701 -12.047 -23.351  0.00  0.00    +0.134 C 
ATOM     22  C   UNL     1      32.818 -11.937 -24.694  0.00  0.00    +0.216 C 
ATOM     23  C   UNL     1      32.986 -10.031 -23.737  0.00  0.00    +0.277 C 
ATOM     24  C   UNL     1      32.790 -12.857 -25.837  0.00  0.00    +0.055 C 
BRANCH  23  25
ATOM     25  C   UNL     1      33.166  -8.605 -23.735  0.00  0.00    +0.066 C 
ATOM     26  C   UNL     1      34.161  -8.022 -22.945  0.00  0.00    +0.006 C 
ATOM     27  C   UNL     1      32.344  -7.793 -24.521  0.00  0.00    +0.006 C 
ATOM     28  C   UNL     1      34.332  -6.638 -22.942  0.00  0.00    +0.000 C 
ATOM     29  C   UNL     1      32.516  -6.409 -24.519  0.00  0.00    +0.000 C 
ATOM     30  C   UNL     1      33.510  -5.831 -23.729  0.00  0.00    +0.000 C 
ENDBRANCH  23  25
ENDBRANCH  18  21
ENDBRANCH  17  18
ENDBRANCH   1  17
TORSDOF 7
ENDMDL
MODEL 9
REMARK VINA RESULT:     -11.1      2.872      9.488
REMARK  Name = 154000
REMARK  7 active torsions:
REMARK  status: ('A' for Active; 'I' for Inactive)
REMARK    1  A    between atoms: O_1  and  C_5
REMARK    2  A    between atoms: O_1  and  C_17
REMARK    3  A    between atoms: C_2  and  C_8
REMARK    4  A    between atoms: C_8  and  C_13
REMARK    5  A    between atoms: C_17  and  C_18
REMARK    6  A    between atoms: C_18  and  C_21
REMARK    7  A    between atoms: C_23  and  C_25
REMARK                            x       y       z     vdW  Elec       q    Type
REMARK                         _______ _______ _______ _____ _____    ______ ____
ROOT
ATOM      1  O   UNL     1      32.614 -23.046 -16.230  0.00  0.00    -0.475 OA
ENDROOT
BRANCH   1   5
ATOM      2  C   UNL     1      35.407 -23.210 -13.188  0.00  0.00    -0.021 C 
ATOM      3  C   UNL     1      35.694 -22.489 -14.337  0.00  0.00    -0.001 C 
ATOM      4  C   UNL     1      34.200 -23.877 -13.041  0.00  0.00    -0.001 C 
ATOM      5  C   UNL     1      33.534 -23.100 -15.229  0.00  0.00    +0.139 C 
ATOM      6  C   UNL     1      34.752 -22.433 -15.364  0.00  0.00    +0.037 C 
ATOM      7  C   UNL     1      33.258 -23.822 -14.068  0.00  0.00    +0.037 C 
BRANCH   2   8
ATOM      8  C   UNL     1      36.426 -23.271 -12.078  0.00  0.00    +0.047 C 
BRANCH   8  13
ATOM      9  O   UNL     1      36.438 -26.641 -12.777  0.00  0.00    -0.346 OA
ATOM     10  O   UNL     1      38.388 -24.127 -14.219  0.00  0.00    -0.272 OA
ATOM     11  O   UNL     1      35.798 -25.908 -10.696  0.00  0.00    -0.247 OA
ATOM     12  N   UNL     1      37.212 -26.099 -13.825  0.00  0.00    -0.144 N 
ATOM     13  C   UNL     1      37.238 -24.552 -12.123  0.00  0.00    +0.184 C 
ATOM     14  C   UNL     1      37.704 -24.854 -13.515  0.00  0.00    +0.264 C 
ATOM     15  C   UNL     1      36.403 -25.747 -11.743  0.00  0.00    +0.348 C 
ATOM     16  H   UNL     1      37.379 -26.560 -14.678  0.00  0.00    +0.196 HD
ENDBRANCH   8  13
ENDBRANCH   2   8
ENDBRANCH   1   5
BRANCH   1  17
ATOM     17  C   UNL     1      33.103 -22.803 -17.550  0.00  0.00    +0.213 C 
BRANCH  17  18
ATOM     18  C   UNL     1      32.361 -21.620 -18.165  0.00  0.00    +0.105 C 
BRANCH  18  21
ATOM     19  O   UNL     1      34.935 -19.786 -19.990  0.00  0.00    -0.449 OA
ATOM     20  N   UNL     1      32.681 -19.980 -19.986  0.00  0.00    -0.373 NA
ATOM     21  C   UNL     1      33.239 -20.772 -19.039  0.00  0.00    +0.134 C 
ATOM     22  C   UNL     1      34.588 -20.676 -19.019  0.00  0.00    +0.216 C 
ATOM     23  C   UNL     1      33.740 -19.414 -20.523  0.00  0.00    +0.277 C 
ATOM     24  C   UNL     1      35.678 -21.274 -18.239  0.00  0.00    +0.055 C 
BRANCH  23  25
ATOM     25  C   UNL     1      33.818 -18.459 -21.594  0.00  0.00    +0.066 C 
ATOM     26  C   UNL     1      34.341 -17.183 -21.364  0.00  0.00    +0.006 C 
ATOM     27  C   UNL     1      33.371 -18.801 -22.873  0.00  0.00    +0.006 C 
ATOM     28  C   UNL     1      34.415 -16.257 -22.404  0.00  0.00    +0.000 C 
ATOM     29  C   UNL     1      33.445 -17.875 -23.914  0.00  0.00    +0.000 C 
ATOM     30  C   UNL     1      33.967 -16.603 -23.679  0.00  0.00    +0.000 C 
ENDBRANCH  23  25
ENDBRANCH  18  21
ENDBRANCH  17  18
ENDBRANCH   1  17
TORSDOF 7
ENDMDL
