MODEL 1
REMARK VINA RESULT:     -11.2      0.000      0.000
REMARK  Name = 11314340
REMARK  7 active torsions:
REMARK  status: ('A' for Active; 'I' for Inactive)
REMARK    1  A    between atoms: C_2  and  C_10
REMARK    2  A    between atoms: C_3  and  O_18
REMARK    3  A    between atoms: O_18  and  C_19
REMARK    4  A    between atoms: C_19  and  C_20
REMARK    5  A    between atoms: C_20  and  N_21
REMARK    6  A    between atoms: C_20  and  C_25
REMARK    7  A    between atoms: C_25  and  C_26
REMARK                            x       y       z     vdW  Elec       q    Type
REMARK                         _______ _______ _______ _____ _____    ______ ____
ROOT
ATOM      1  N   UNL     1      35.877 -20.432 -18.905  0.00  0.00    -0.239 NA
ATOM      2  C   UNL     1      34.327 -19.417 -20.448  0.00  0.00    +0.022 C 
ATOM      3  C   UNL     1      33.521 -20.966 -18.804  0.00  0.00    +0.158 C 
ATOM      4  C   UNL     1      33.273 -20.108 -19.870  0.00  0.00    +0.040 C 
ATOM      5  C   UNL     1      35.597 -19.608 -19.939  0.00  0.00    +0.099 C 
ATOM      6  C   UNL     1      34.828 -21.092 -18.363  0.00  0.00    +0.136 C 
ENDROOT
BRANCH   2  10
ATOM      7  N   UNL     1      33.515 -14.811 -23.878  0.00  0.00    -0.280 N 
ATOM      8  N   UNL     1      33.471 -15.914 -24.652  0.00  0.00    -0.173 NA
ATOM      9  C   UNL     1      33.831 -16.411 -22.464  0.00  0.00    +0.032 A 
ATOM     10  C   UNL     1      34.101 -18.515 -21.563  0.00  0.00    +0.002 C 
ATOM     11  C   UNL     1      33.665 -16.936 -23.798  0.00  0.00    +0.102 A 
ATOM     12  C   UNL     1      34.052 -17.133 -21.298  0.00  0.00    +0.003 C 
ATOM     13  C   UNL     1      33.730 -15.052 -22.552  0.00  0.00    +0.053 A 
ATOM     14  C   UNL     1      33.943 -19.085 -22.866  0.00  0.00    +0.002 C 
ATOM     15  C   UNL     1      33.719 -18.321 -24.034  0.00  0.00    +0.021 C 
ATOM     16  C   UNL     1      33.809 -13.963 -21.564  0.00  0.00    +0.051 C 
ATOM     17  H   UNL     1      33.403 -13.903 -24.242  0.00  0.00    +0.189 HD
ENDBRANCH   2  10
BRANCH   3  18
ATOM     18  O   UNL     1      32.513 -21.656 -18.215  0.00  0.00    -0.476 OA
BRANCH  18  19
ATOM     19  C   UNL     1      32.794 -22.991 -17.789  0.00  0.00    +0.184 C 
BRANCH  19  20
ATOM     20  C   UNL     1      32.438 -23.163 -16.308  0.00  0.00    -0.017 C 
BRANCH  20  21
ATOM     21  N   UNL     1      33.563 -22.679 -15.503  0.00  0.00    +0.384 N 
ATOM     22  H   UNL     1      34.369 -22.517 -16.105  0.00  0.00    -0.089 HD
ATOM     23  H   UNL     1      33.800 -23.377 -14.797  0.00  0.00    -0.089 HD
ATOM     24  H   UNL     1      33.301 -21.806 -15.042  0.00  0.00    -0.089 HD
ENDBRANCH  20  21
BRANCH  20  25
ATOM     25  C   UNL     1      31.175 -22.380 -15.892  0.00  0.00    +0.008 C 
BRANCH  25  26
ATOM     26  C   UNL     1      30.123 -23.207 -15.194  0.00  0.00    -0.024 C 
ATOM     27  C   UNL     1      28.800 -23.107 -15.598  0.00  0.00    -0.004 C 
ATOM     28  C   UNL     1      30.497 -24.053 -14.161  0.00  0.00    -0.004 C 
ATOM     29  C   UNL     1      27.828 -23.871 -14.954  0.00  0.00    -0.000 C 
ATOM     30  C   UNL     1      29.524 -24.817 -13.517  0.00  0.00    -0.000 C 
ATOM     31  C   UNL     1      28.190 -24.726 -13.912  0.00  0.00    -0.000 C 
ENDBRANCH  25  26
ENDBRANCH  20  25
ENDBRANCH  19  20
ENDBRANCH  18  19
ENDBRANCH   3  18
TORSDOF 7
ENDMDL
MODEL 2
REMARK VINA RESULT:     -11.1      4.220      8.037
REMARK  Name = 11314340
REMARK  7 active torsions:
REMARK  status: ('A' for Active; 'I' for Inactive)
REMARK    1  A    between atoms: C_2  and  C_10
REMARK    2  A    between atoms: C_3  and  O_18
REMARK    3  A    between atoms: O_18  and  C_19
REMARK    4  A    between atoms: C_19  and  C_20
REMARK    5  A    between atoms: C_20  and  N_21
REMARK    6  A    between atoms: C_20  and  C_25
REMARK    7  A    between atoms: C_25  and  C_26
REMARK                            x       y       z     vdW  Elec       q    Type
REMARK                         _______ _______ _______ _____ _____    ______ ____
ROOT
ATOM      1  N   UNL     1      32.561 -14.039 -25.389  0.00  0.00    -0.239 NA
ATOM      2  C   UNL     1      33.126 -12.250 -23.874  0.00  0.00    +0.022 C 
ATOM      3  C   UNL     1      33.351 -14.528 -23.158  0.00  0.00    +0.158 C 
ATOM      4  C   UNL     1      33.465 -13.168 -22.891  0.00  0.00    +0.040 C 
ATOM      5  C   UNL     1      32.684 -12.726 -25.094  0.00  0.00    +0.099 C 
ATOM      6  C   UNL     1      32.898 -14.908 -24.410  0.00  0.00    +0.136 C 
ENDROOT
BRANCH   2  10
ATOM      7  N   UNL     1      32.496  -6.816 -21.948  0.00  0.00    -0.280 N 
ATOM      8  N   UNL     1      33.475  -6.814 -22.874  0.00  0.00    -0.173 NA
ATOM      9  C   UNL     1      32.599  -8.886 -22.552  0.00  0.00    +0.032 A 
ATOM     10  C   UNL     1      33.233 -10.824 -23.626  0.00  0.00    +0.002 C 
ATOM     11  C   UNL     1      33.567  -8.096 -23.274  0.00  0.00    +0.102 A 
ATOM     12  C   UNL     1      32.371 -10.251 -22.671  0.00  0.00    +0.003 C 
ATOM     13  C   UNL     1      31.934  -8.037 -21.714  0.00  0.00    +0.053 A 
ATOM     14  C   UNL     1      34.208 -10.085 -24.368  0.00  0.00    +0.002 C 
ATOM     15  C   UNL     1      34.415  -8.695 -24.223  0.00  0.00    +0.021 C 
ATOM     16  C   UNL     1      30.851  -8.222 -20.734  0.00  0.00    +0.051 C 
ATOM     17  H   UNL     1      32.210  -6.000 -21.477  0.00  0.00    +0.189 HD
ENDBRANCH   2  10
BRANCH   3  18
ATOM     18  O   UNL     1      33.675 -15.453 -22.219  0.00  0.00    -0.476 OA
BRANCH  18  19
ATOM     19  C   UNL     1      34.324 -16.643 -22.669  0.00  0.00    +0.184 C 
BRANCH  19  20
ATOM     20  C   UNL     1      34.507 -17.622 -21.504  0.00  0.00    -0.017 C 
BRANCH  20  21
ATOM     21  N   UNL     1      34.248 -16.904 -20.252  0.00  0.00    +0.384 N 
ATOM     22  H   UNL     1      34.719 -17.380 -19.483  0.00  0.00    -0.089 HD
ATOM     23  H   UNL     1      33.243 -16.881 -20.075  0.00  0.00    -0.089 HD
ATOM     24  H   UNL     1      34.601 -15.949 -20.329  0.00  0.00    -0.089 HD
ENDBRANCH  20  21
BRANCH  20  25
ATOM     25  C   UNL     1      33.552 -18.833 -21.571  0.00  0.00    +0.008 C 
BRANCH  25  26
ATOM     26  C   UNL     1      33.648 -19.777 -20.398  0.00  0.00    -0.024 C 
ATOM     27  C   UNL     1      32.485 -20.215 -19.781  0.00  0.00    -0.004 C 
ATOM     28  C   UNL     1      34.896 -20.189 -19.956  0.00  0.00    -0.004 C 
ATOM     29  C   UNL     1      32.574 -21.087 -18.697  0.00  0.00    -0.000 C 
ATOM     30  C   UNL     1      34.983 -21.061 -18.871  0.00  0.00    -0.000 C 
ATOM     31  C   UNL     1      33.823 -21.510 -18.241  0.00  0.00    -0.000 C 
ENDBRANCH  25  26
ENDBRANCH  20  25
ENDBRANCH  19  20
ENDBRANCH  18  19
ENDBRANCH   3  18
TORSDOF 7
ENDMDL
MODEL 3
REMARK VINA RESULT:     -10.9      1.846      3.051
REMARK  Name = 11314340
REMARK  7 active torsions:
REMARK  status: ('A' for Active; 'I' for Inactive)
REMARK    1  A    between atoms: C_2  and  C_10
REMARK    2  A    between atoms: C_3  and  O_18
REMARK    3  A    between atoms: O_18  and  C_19
REMARK    4  A    between atoms: C_19  and  C_20
REMARK    5  A    between atoms: C_20  and  N_21
REMARK    6  A    between atoms: C_20  and  C_25
REMARK    7  A    between atoms: C_25  and  C_26
REMARK                            x       y       z     vdW  Elec       q    Type
REMARK                         _______ _______ _______ _____ _____    ______ ____
ROOT
ATOM      1  N   UNL     1      35.551 -20.797 -18.647  0.00  0.00    -0.239 NA
ATOM      2  C   UNL     1      34.160 -19.677 -20.268  0.00  0.00    +0.022 C 
ATOM      3  C   UNL     1      33.175 -21.235 -18.734  0.00  0.00    +0.158 C 
ATOM      4  C   UNL     1      33.041 -20.339 -19.789  0.00  0.00    +0.040 C 
ATOM      5  C   UNL     1      35.381 -19.934 -19.674  0.00  0.00    +0.099 C 
ATOM      6  C   UNL     1      34.440 -21.427 -18.203  0.00  0.00    +0.136 C 
ENDROOT
BRANCH   2  10
ATOM      7  N   UNL     1      33.740 -14.953 -23.607  0.00  0.00    -0.280 N 
ATOM      8  N   UNL     1      33.752 -16.031 -24.417  0.00  0.00    -0.173 NA
ATOM      9  C   UNL     1      33.899 -16.602 -22.222  0.00  0.00    +0.032 A 
ATOM     10  C   UNL     1      34.053 -18.738 -21.369  0.00  0.00    +0.002 C 
ATOM     11  C   UNL     1      33.850 -17.082 -23.583  0.00  0.00    +0.102 A 
ATOM     12  C   UNL     1      33.999 -17.363 -21.065  0.00  0.00    +0.003 C 
ATOM     13  C   UNL     1      33.826 -15.239 -22.276  0.00  0.00    +0.053 A 
ATOM     14  C   UNL     1      34.009 -19.263 -22.700  0.00  0.00    +0.002 C 
ATOM     15  C   UNL     1      33.906 -18.460 -23.858  0.00  0.00    +0.021 C 
ATOM     16  C   UNL     1      33.828 -14.183 -21.250  0.00  0.00    +0.051 C 
ATOM     17  H   UNL     1      33.675 -14.033 -23.950  0.00  0.00    +0.189 HD
ENDBRANCH   2  10
BRANCH   3  18
ATOM     18  O   UNL     1      32.100 -21.898 -18.240  0.00  0.00    -0.476 OA
BRANCH  18  19
ATOM     19  C   UNL     1      32.343 -22.879 -17.230  0.00  0.00    +0.184 C 
BRANCH  19  20
ATOM     20  C   UNL     1      31.716 -22.441 -15.902  0.00  0.00    -0.017 C 
BRANCH  20  21
ATOM     21  N   UNL     1      30.259 -22.535 -16.025  0.00  0.00    +0.384 N 
ATOM     22  H   UNL     1      29.937 -23.409 -15.610  0.00  0.00    -0.089 HD
ATOM     23  H   UNL     1      29.999 -22.511 -17.012  0.00  0.00    -0.089 HD
ATOM     24  H   UNL     1      29.825 -21.748 -15.541  0.00  0.00    -0.089 HD
ENDBRANCH  20  21
BRANCH  20  25
ATOM     25  C   UNL     1      32.156 -23.311 -14.705  0.00  0.00    +0.008 C 
BRANCH  25  26
ATOM     26  C   UNL     1      33.650 -23.443 -14.539  0.00  0.00    -0.024 C 
ATOM     27  C   UNL     1      34.446 -22.310 -14.615  0.00  0.00    -0.004 C 
ATOM     28  C   UNL     1      34.202 -24.695 -14.312  0.00  0.00    -0.004 C 
ATOM     29  C   UNL     1      35.826 -22.431 -14.461  0.00  0.00    -0.000 C 
ATOM     30  C   UNL     1      35.583 -24.815 -14.158  0.00  0.00    -0.000 C 
ATOM     31  C   UNL     1      36.395 -23.684 -14.233  0.00  0.00    -0.000 C 
ENDBRANCH  25  26
ENDBRANCH  20  25
ENDBRANCH  19  20
ENDBRANCH  18  19
ENDBRANCH   3  18
TORSDOF 7
ENDMDL
MODEL 4
REMARK VINA RESULT:     -10.8      3.409     10.132
REMARK  Name = 11314340
REMARK  7 active torsions:
REMARK  status: ('A' for Active; 'I' for Inactive)
REMARK    1  A    between atoms: C_2  and  C_10
REMARK    2  A    between atoms: C_3  and  O_18
REMARK    3  A    between atoms: O_18  and  C_19
REMARK    4  A    between atoms: C_19  and  C_20
REMARK    5  A    between atoms: C_20  and  N_21
REMARK    6  A    between atoms: C_20  and  C_25
REMARK    7  A    between atoms: C_25  and  C_26
REMARK                            x       y       z     vdW  Elec       q    Type
REMARK                         _______ _______ _______ _____ _____    ______ ____
ROOT
ATOM      1  N   UNL     1      30.663 -23.086 -14.693  0.00  0.00    -0.239 NA
ATOM      2  C   UNL     1      33.074 -23.130 -14.699  0.00  0.00    +0.022 C 
ATOM      3  C   UNL     1      31.892 -22.551 -16.704  0.00  0.00    +0.158 C 
ATOM      4  C   UNL     1      33.094 -22.760 -16.035  0.00  0.00    +0.040 C 
ATOM      5  C   UNL     1      31.850 -23.280 -14.075  0.00  0.00    +0.099 C 
ATOM      6  C   UNL     1      30.716 -22.726 -15.995  0.00  0.00    +0.136 C 
ENDROOT
BRANCH   2  10
ATOM      7  N   UNL     1      37.127 -24.127 -10.672  0.00  0.00    -0.280 N 
ATOM      8  N   UNL     1      37.749 -24.003 -11.861  0.00  0.00    -0.173 NA
ATOM      9  C   UNL     1      35.496 -23.765 -12.039  0.00  0.00    +0.032 A 
ATOM     10  C   UNL     1      34.310 -23.357 -13.973  0.00  0.00    +0.002 C 
ATOM     11  C   UNL     1      36.757 -23.775 -12.741  0.00  0.00    +0.102 A 
ATOM     12  C   UNL     1      34.234 -23.563 -12.582  0.00  0.00    +0.003 C 
ATOM     13  C   UNL     1      35.770 -23.992 -10.721  0.00  0.00    +0.053 A 
ATOM     14  C   UNL     1      35.534 -23.358 -14.714  0.00  0.00    +0.002 C 
ATOM     15  C   UNL     1      36.804 -23.566 -14.131  0.00  0.00    +0.021 C 
ATOM     16  C   UNL     1      34.931 -24.100  -9.515  0.00  0.00    +0.051 C 
ATOM     17  H   UNL     1      37.614 -24.301  -9.834  0.00  0.00    +0.189 HD
ENDBRANCH   2  10
BRANCH   3  18
ATOM     18  O   UNL     1      31.876 -22.186 -18.011  0.00  0.00    -0.476 OA
BRANCH  18  19
ATOM     19  C   UNL     1      33.133 -21.911 -18.630  0.00  0.00    +0.184 C 
BRANCH  19  20
ATOM     20  C   UNL     1      32.969 -20.839 -19.713  0.00  0.00    -0.017 C 
BRANCH  20  21
ATOM     21  N   UNL     1      31.751 -20.075 -19.427  0.00  0.00    +0.384 N 
ATOM     22  H   UNL     1      31.694 -19.276 -20.057  0.00  0.00    -0.089 HD
ATOM     23  H   UNL     1      31.777 -19.745 -18.461  0.00  0.00    -0.089 HD
ATOM     24  H   UNL     1      30.935 -20.673 -19.559  0.00  0.00    -0.089 HD
ENDBRANCH  20  21
BRANCH  20  25
ATOM     25  C   UNL     1      34.154 -19.852 -19.777  0.00  0.00    +0.008 C 
BRANCH  25  26
ATOM     26  C   UNL     1      34.105 -18.884 -20.934  0.00  0.00    -0.024 C 
ATOM     27  C   UNL     1      33.752 -19.347 -22.193  0.00  0.00    -0.004 C 
ATOM     28  C   UNL     1      34.413 -17.550 -20.719  0.00  0.00    -0.004 C 
ATOM     29  C   UNL     1      33.706 -18.453 -23.262  0.00  0.00    -0.000 C 
ATOM     30  C   UNL     1      34.368 -16.656 -21.789  0.00  0.00    -0.000 C 
ATOM     31  C   UNL     1      34.014 -17.107 -23.060  0.00  0.00    -0.000 C 
ENDBRANCH  25  26
ENDBRANCH  20  25
ENDBRANCH  19  20
ENDBRANCH  18  19
ENDBRANCH   3  18
TORSDOF 7
ENDMDL
MODEL 5
REMARK VINA RESULT:     -10.8      2.034      9.714
REMARK  Name = 11314340
REMARK  7 active torsions:
REMARK  status: ('A' for Active; 'I' for Inactive)
REMARK    1  A    between atoms: C_2  and  C_10
REMARK    2  A    between atoms: C_3  and  O_18
REMARK    3  A    between atoms: O_18  and  C_19
REMARK    4  A    between atoms: C_19  and  C_20
REMARK    5  A    between atoms: C_20  and  N_21
REMARK    6  A    between atoms: C_20  and  C_25
REMARK    7  A    between atoms: C_25  and  C_26
REMARK                            x       y       z     vdW  Elec       q    Type
REMARK                         _______ _______ _______ _____ _____    ______ ____
ROOT
ATOM      1  N   UNL     1      35.909 -21.837 -16.045  0.00  0.00    -0.239 NA
ATOM      2  C   UNL     1      33.597 -22.519 -16.000  0.00  0.00    +0.022 C 
ATOM      3  C   UNL     1      34.535 -21.639 -18.024  0.00  0.00    +0.158 C 
ATOM      4  C   UNL     1      33.448 -22.161 -17.331  0.00  0.00    +0.040 C 
ATOM      5  C   UNL     1      34.831 -22.341 -15.404  0.00  0.00    +0.099 C 
ATOM      6  C   UNL     1      35.732 -21.498 -17.342  0.00  0.00    +0.136 C 
ENDROOT
BRANCH   2  10
ATOM      7  N   UNL     1      28.366 -24.063 -14.027  0.00  0.00    -0.280 N 
ATOM      8  N   UNL     1      29.290 -24.574 -13.190  0.00  0.00    -0.173 NA
ATOM      9  C   UNL     1      30.229 -23.404 -14.896  0.00  0.00    +0.032 A 
ATOM     10  C   UNL     1      32.481 -23.065 -15.250  0.00  0.00    +0.002 C 
ATOM     11  C   UNL     1      30.469 -24.180 -13.703  0.00  0.00    +0.102 A 
ATOM     12  C   UNL     1      31.178 -22.814 -15.721  0.00  0.00    +0.003 C 
ATOM     13  C   UNL     1      28.876 -23.349 -15.073  0.00  0.00    +0.053 A 
ATOM     14  C   UNL     1      32.772 -23.829 -14.075  0.00  0.00    +0.002 C 
ATOM     15  C   UNL     1      31.782 -24.416 -13.255  0.00  0.00    +0.021 C 
ATOM     16  C   UNL     1      28.010 -22.722 -16.085  0.00  0.00    +0.051 C 
ATOM     17  H   UNL     1      27.399 -24.195 -13.896  0.00  0.00    +0.189 HD
ENDBRANCH   2  10
BRANCH   3  18
ATOM     18  O   UNL     1      34.425 -21.280 -19.327  0.00  0.00    -0.476 OA
BRANCH  18  19
ATOM     19  C   UNL     1      33.532 -20.210 -19.639  0.00  0.00    +0.184 C 
BRANCH  19  20
ATOM     20  C   UNL     1      34.287 -19.071 -20.333  0.00  0.00    -0.017 C 
BRANCH  20  21
ATOM     21  N   UNL     1      35.710 -19.190 -20.000  0.00  0.00    +0.384 N 
ATOM     22  H   UNL     1      36.229 -19.494 -20.823  0.00  0.00    -0.089 HD
ATOM     23  H   UNL     1      35.828 -19.873 -19.251  0.00  0.00    -0.089 HD
ATOM     24  H   UNL     1      36.064 -18.283 -19.691  0.00  0.00    -0.089 HD
ENDBRANCH  20  21
BRANCH  20  25
ATOM     25  C   UNL     1      34.148 -19.097 -21.870  0.00  0.00    +0.008 C 
BRANCH  25  26
ATOM     26  C   UNL     1      33.942 -17.744 -22.506  0.00  0.00    -0.024 C 
ATOM     27  C   UNL     1      33.381 -17.666 -23.772  0.00  0.00    -0.004 C 
ATOM     28  C   UNL     1      34.318 -16.603 -21.814  0.00  0.00    -0.004 C 
ATOM     29  C   UNL     1      33.190 -16.416 -24.360  0.00  0.00    -0.000 C 
ATOM     30  C   UNL     1      34.127 -15.352 -22.404  0.00  0.00    -0.000 C 
ATOM     31  C   UNL     1      33.564 -15.259 -23.676  0.00  0.00    -0.000 C 
ENDBRANCH  25  26
ENDBRANCH  20  25
ENDBRANCH  19  20
ENDBRANCH  18  19
ENDBRANCH   3  18
TORSDOF 7
ENDMDL
MODEL 6
REMARK VINA RESULT:     -10.8      4.362     11.950
REMARK  Name = 11314340
REMARK  7 active torsions:
REMARK  status: ('A' for Active; 'I' for Inactive)
REMARK    1  A    between atoms: C_2  and  C_10
REMARK    2  A    between atoms: C_3  and  O_18
REMARK    3  A    between atoms: O_18  and  C_19
REMARK    4  A    between atoms: C_19  and  C_20
REMARK    5  A    between atoms: C_20  and  N_21
REMARK    6  A    between atoms: C_20  and  C_25
REMARK    7  A    between atoms: C_25  and  C_26
REMARK                            x       y       z     vdW  Elec       q    Type
REMARK                         _______ _______ _______ _____ _____    ______ ____
ROOT
ATOM      1  N   UNL     1      33.050 -16.178 -24.787  0.00  0.00    -0.239 NA
ATOM      2  C   UNL     1      33.942 -16.709 -22.610  0.00  0.00    +0.022 C 
ATOM      3  C   UNL     1      33.510 -14.423 -23.190  0.00  0.00    +0.158 C 
ATOM      4  C   UNL     1      33.953 -15.365 -22.269  0.00  0.00    +0.040 C 
ATOM      5  C   UNL     1      33.488 -17.066 -23.866  0.00  0.00    +0.099 C 
ATOM      6  C   UNL     1      33.074 -14.876 -24.424  0.00  0.00    +0.136 C 
ENDROOT
BRANCH   2  10
ATOM      7  N   UNL     1      34.363 -21.040 -18.776  0.00  0.00    -0.280 N 
ATOM      8  N   UNL     1      35.607 -20.581 -19.018  0.00  0.00    -0.173 NA
ATOM      9  C   UNL     1      34.029 -19.455 -20.203  0.00  0.00    +0.032 A 
ATOM     10  C   UNL     1      34.398 -17.717 -21.671  0.00  0.00    +0.002 C 
ATOM     11  C   UNL     1      35.435 -19.587 -19.908  0.00  0.00    +0.102 A 
ATOM     12  C   UNL     1      33.433 -18.548 -21.070  0.00  0.00    +0.003 C 
ATOM     13  C   UNL     1      33.374 -20.398 -19.463  0.00  0.00    +0.053 A 
ATOM     14  C   UNL     1      35.803 -17.809 -21.413  0.00  0.00    +0.002 C 
ATOM     15  C   UNL     1      36.378 -18.744 -20.524  0.00  0.00    +0.021 C 
ATOM     16  C   UNL     1      31.957 -20.771 -19.320  0.00  0.00    +0.051 C 
ATOM     17  H   UNL     1      34.183 -21.781 -18.153  0.00  0.00    +0.189 HD
ENDBRANCH   2  10
BRANCH   3  18
ATOM     18  O   UNL     1      33.506 -13.100 -22.889  0.00  0.00    -0.476 OA
BRANCH  18  19
ATOM     19  C   UNL     1      33.075 -12.197 -23.908  0.00  0.00    +0.184 C 
BRANCH  19  20
ATOM     20  C   UNL     1      33.624 -10.791 -23.640  0.00  0.00    -0.017 C 
BRANCH  20  21
ATOM     21  N   UNL     1      34.460 -10.396 -24.777  0.00  0.00    +0.384 N 
ATOM     22  H   UNL     1      35.436 -10.605 -24.571  0.00  0.00    -0.089 HD
ATOM     23  H   UNL     1      34.353  -9.395 -24.946  0.00  0.00    -0.089 HD
ATOM     24  H   UNL     1      34.169 -10.913 -25.608  0.00  0.00    -0.089 HD
ENDBRANCH  20  21
BRANCH  20  25
ATOM     25  C   UNL     1      32.518  -9.730 -23.463  0.00  0.00    +0.008 C 
BRANCH  25  26
ATOM     26  C   UNL     1      32.986  -8.302 -23.610  0.00  0.00    -0.024 C 
ATOM     27  C   UNL     1      33.931  -7.802 -22.728  0.00  0.00    -0.004 C 
ATOM     28  C   UNL     1      32.463  -7.516 -24.625  0.00  0.00    -0.004 C 
ATOM     29  C   UNL     1      34.364  -6.484 -22.864  0.00  0.00    -0.000 C 
ATOM     30  C   UNL     1      32.896  -6.197 -24.761  0.00  0.00    -0.000 C 
ATOM     31  C   UNL     1      33.846  -5.681 -23.881  0.00  0.00    -0.000 C 
ENDBRANCH  25  26
ENDBRANCH  20  25
ENDBRANCH  19  20
ENDBRANCH  18  19
ENDBRANCH   3  18
TORSDOF 7
ENDMDL
MODEL 7
REMARK VINA RESULT:     -10.7      3.459      6.862
REMARK  Name = 11314340
REMARK  7 active torsions:
REMARK  status: ('A' for Active; 'I' for Inactive)
REMARK    1  A    between atoms: C_2  and  C_10
REMARK    2  A    between atoms: C_3  and  O_18
REMARK    3  A    between atoms: O_18  and  C_19
REMARK    4  A    between atoms: C_19  and  C_20
REMARK    5  A    between atoms: C_20  and  N_21
REMARK    6  A    between atoms: C_20  and  C_25
REMARK    7  A    between atoms: C_25  and  C_26
REMARK                            x       y       z     vdW  Elec       q    Type
REMARK                         _______ _______ _______ _____ _____    ______ ____
ROOT
ATOM      1  N   UNL     1      32.959 -14.974 -24.861  0.00  0.00    -0.239 NA
ATOM      2  C   UNL     1      32.718 -13.836 -22.748  0.00  0.00    +0.022 C 
ATOM      3  C   UNL     1      34.057 -15.822 -22.881  0.00  0.00    +0.158 C 
ATOM      4  C   UNL     1      33.528 -14.777 -22.131  0.00  0.00    +0.040 C 
ATOM      5  C   UNL     1      32.463 -13.973 -24.099  0.00  0.00    +0.099 C 
ATOM      6  C   UNL     1      33.745 -15.875 -24.229  0.00  0.00    +0.136 C 
ENDROOT
BRANCH   2  10
ATOM      7  N   UNL     1      30.937  -8.659 -20.835  0.00  0.00    -0.280 N 
ATOM      8  N   UNL     1      30.574  -9.583 -19.923  0.00  0.00    -0.173 NA
ATOM      9  C   UNL     1      31.666 -10.502 -21.691  0.00  0.00    +0.032 A 
ATOM     10  C   UNL     1      32.151 -12.735 -21.993  0.00  0.00    +0.002 C 
ATOM     11  C   UNL     1      31.015 -10.750 -20.427  0.00  0.00    +0.102 A 
ATOM     12  C   UNL     1      32.257 -11.437 -22.530  0.00  0.00    +0.003 C 
ATOM     13  C   UNL     1      31.598  -9.157 -21.920  0.00  0.00    +0.053 A 
ATOM     14  C   UNL     1      31.515 -13.033 -20.745  0.00  0.00    +0.002 C 
ATOM     15  C   UNL     1      30.923 -12.056 -19.913  0.00  0.00    +0.021 C 
ATOM     16  C   UNL     1      32.067  -8.289 -23.014  0.00  0.00    +0.051 C 
ATOM     17  H   UNL     1      30.741  -7.700 -20.726  0.00  0.00    +0.189 HD
ENDBRANCH   2  10
BRANCH   3  18
ATOM     18  O   UNL     1      34.854 -16.758 -22.309  0.00  0.00    -0.476 OA
BRANCH  18  19
ATOM     19  C   UNL     1      34.455 -17.268 -21.035  0.00  0.00    +0.184 C 
BRANCH  19  20
ATOM     20  C   UNL     1      33.985 -18.722 -21.168  0.00  0.00    -0.017 C 
BRANCH  20  21
ATOM     21  N   UNL     1      34.115 -19.123 -22.572  0.00  0.00    +0.384 N 
ATOM     22  H   UNL     1      33.505 -18.545 -23.149  0.00  0.00    -0.089 HD
ATOM     23  H   UNL     1      33.849 -20.103 -22.671  0.00  0.00    -0.089 HD
ATOM     24  H   UNL     1      35.083 -19.002 -22.872  0.00  0.00    -0.089 HD
ENDBRANCH  20  21
BRANCH  20  25
ATOM     25  C   UNL     1      34.805 -19.707 -20.307  0.00  0.00    +0.008 C 
BRANCH  25  26
ATOM     26  C   UNL     1      33.985 -20.544 -19.356  0.00  0.00    -0.024 C 
ATOM     27  C   UNL     1      32.600 -20.474 -19.409  0.00  0.00    -0.004 C 
ATOM     28  C   UNL     1      34.629 -21.368 -18.446  0.00  0.00    -0.004 C 
ATOM     29  C   UNL     1      31.842 -21.247 -18.531  0.00  0.00    -0.000 C 
ATOM     30  C   UNL     1      33.869 -22.141 -17.568  0.00  0.00    -0.000 C 
ATOM     31  C   UNL     1      32.477 -22.081 -17.609  0.00  0.00    -0.000 C 
ENDBRANCH  25  26
ENDBRANCH  20  25
ENDBRANCH  19  20
ENDBRANCH  18  19
ENDBRANCH   3  18
TORSDOF 7
ENDMDL
MODEL 8
REMARK VINA RESULT:     -10.6      3.369     10.294
REMARK  Name = 11314340
REMARK  7 active torsions:
REMARK  status: ('A' for Active; 'I' for Inactive)
REMARK    1  A    between atoms: C_2  and  C_10
REMARK    2  A    between atoms: C_3  and  O_18
REMARK    3  A    between atoms: O_18  and  C_19
REMARK    4  A    between atoms: C_19  and  C_20
REMARK    5  A    between atoms: C_20  and  N_21
REMARK    6  A    between atoms: C_20  and  C_25
REMARK    7  A    between atoms: C_25  and  C_26
REMARK                            x       y       z     vdW  Elec       q    Type
REMARK                         _______ _______ _______ _____ _____    ______ ____
ROOT
ATOM      1  N   UNL     1      30.610 -22.647 -14.934  0.00  0.00    -0.239 NA
ATOM      2  C   UNL     1      32.886 -23.320 -14.510  0.00  0.00    +0.022 C 
ATOM      3  C   UNL     1      32.225 -22.705 -16.731  0.00  0.00    +0.158 C 
ATOM      4  C   UNL     1      33.207 -23.136 -15.846  0.00  0.00    +0.040 C 
ATOM      5  C   UNL     1      31.590 -23.067 -14.103  0.00  0.00    +0.099 C 
ATOM      6  C   UNL     1      30.954 -22.478 -16.231  0.00  0.00    +0.136 C 
ENDROOT
BRANCH   2  10
ATOM      7  N   UNL     1      37.721 -25.162 -11.888  0.00  0.00    -0.280 N 
ATOM      8  N   UNL     1      36.763 -25.040 -10.948  0.00  0.00    -0.173 NA
ATOM      9  C   UNL     1      36.014 -24.477 -13.018  0.00  0.00    +0.032 A 
ATOM     10  C   UNL     1      33.888 -23.770 -13.561  0.00  0.00    +0.002 C 
ATOM     11  C   UNL     1      35.679 -24.612 -11.621  0.00  0.00    +0.102 A 
ATOM     12  C   UNL     1      35.177 -24.064 -14.047  0.00  0.00    +0.003 C 
ATOM     13  C   UNL     1      37.325 -24.837 -13.153  0.00  0.00    +0.053 A 
ATOM     14  C   UNL     1      33.507 -23.886 -12.186  0.00  0.00    +0.002 C 
ATOM     15  C   UNL     1      34.384 -24.311 -11.163  0.00  0.00    +0.021 C 
ATOM     16  C   UNL     1      38.243 -24.912 -14.302  0.00  0.00    +0.051 C 
ATOM     17  H   UNL     1      38.635 -25.462 -11.678  0.00  0.00    +0.189 HD
ENDBRANCH   2  10
BRANCH   3  18
ATOM     18  O   UNL     1      32.506 -22.513 -18.045  0.00  0.00    -0.476 OA
BRANCH  18  19
ATOM     19  C   UNL     1      33.701 -21.798 -18.362  0.00  0.00    +0.184 C 
BRANCH  19  20
ATOM     20  C   UNL     1      33.477 -20.909 -19.591  0.00  0.00    -0.017 C 
BRANCH  20  21
ATOM     21  N   UNL     1      32.220 -20.178 -19.411  0.00  0.00    +0.384 N 
ATOM     22  H   UNL     1      32.420 -19.193 -19.240  0.00  0.00    -0.089 HD
ATOM     23  H   UNL     1      31.713 -20.565 -18.614  0.00  0.00    -0.089 HD
ATOM     24  H   UNL     1      31.650 -20.268 -20.253  0.00  0.00    -0.089 HD
ENDBRANCH  20  21
BRANCH  20  25
ATOM     25  C   UNL     1      34.607 -19.881 -19.811  0.00  0.00    +0.008 C 
BRANCH  25  26
ATOM     26  C   UNL     1      34.355 -18.900 -20.931  0.00  0.00    -0.024 C 
ATOM     27  C   UNL     1      34.553 -17.546 -20.705  0.00  0.00    -0.004 C 
ATOM     28  C   UNL     1      33.932 -19.369 -22.164  0.00  0.00    -0.004 C 
ATOM     29  C   UNL     1      34.321 -16.639 -21.739  0.00  0.00    -0.000 C 
ATOM     30  C   UNL     1      33.700 -18.461 -23.198  0.00  0.00    -0.000 C 
ATOM     31  C   UNL     1      33.894 -17.097 -22.986  0.00  0.00    -0.000 C 
ENDBRANCH  25  26
ENDBRANCH  20  25
ENDBRANCH  19  20
ENDBRANCH  18  19
ENDBRANCH   3  18
TORSDOF 7
ENDMDL
MODEL 9
REMARK VINA RESULT:     -10.5      2.599      9.982
REMARK  Name = 11314340
REMARK  7 active torsions:
REMARK  status: ('A' for Active; 'I' for Inactive)
REMARK    1  A    between atoms: C_2  and  C_10
REMARK    2  A    between atoms: C_3  and  O_18
REMARK    3  A    between atoms: O_18  and  C_19
REMARK    4  A    between atoms: C_19  and  C_20
REMARK    5  A    between atoms: C_20  and  N_21
REMARK    6  A    between atoms: C_20  and  C_25
REMARK    7  A    between atoms: C_25  and  C_26
REMARK                            x       y       z     vdW  Elec       q    Type
REMARK                         _______ _______ _______ _____ _____    ______ ____
ROOT
ATOM      1  N   UNL     1      31.910 -21.567 -18.878  0.00  0.00    -0.239 NA
ATOM      2  C   UNL     1      33.627 -21.935 -17.226  0.00  0.00    +0.022 C 
ATOM      3  C   UNL     1      34.140 -20.697 -19.215  0.00  0.00    +0.158 C 
ATOM      4  C   UNL     1      34.542 -21.235 -17.997  0.00  0.00    +0.040 C 
ATOM      5  C   UNL     1      32.337 -22.075 -17.700  0.00  0.00    +0.099 C 
ATOM      6  C   UNL     1      32.825 -20.890 -19.607  0.00  0.00    +0.136 C 
ENDROOT
BRANCH   2  10
ATOM      7  N   UNL     1      33.782 -24.536 -12.044  0.00  0.00    -0.280 N 
ATOM      8  N   UNL     1      35.036 -24.147 -12.348  0.00  0.00    -0.173 NA
ATOM      9  C   UNL     1      33.548 -23.600 -13.976  0.00  0.00    +0.032 A 
ATOM     10  C   UNL     1      34.016 -22.509 -15.951  0.00  0.00    +0.002 C 
ATOM     11  C   UNL     1      34.927 -23.556 -13.552  0.00  0.00    +0.102 A 
ATOM     12  C   UNL     1      33.015 -23.100 -15.156  0.00  0.00    +0.003 C 
ATOM     13  C   UNL     1      32.845 -24.232 -12.989  0.00  0.00    +0.053 A 
ATOM     14  C   UNL     1      35.396 -22.441 -15.577  0.00  0.00    +0.002 C 
ATOM     15  C   UNL     1      35.907 -22.960 -14.366  0.00  0.00    +0.021 C 
ATOM     16  C   UNL     1      31.425 -24.584 -12.822  0.00  0.00    +0.051 C 
ATOM     17  H   UNL     1      33.560 -25.003 -11.206  0.00  0.00    +0.189 HD
ENDBRANCH   2  10
BRANCH   3  18
ATOM     18  O   UNL     1      35.009 -20.006 -19.994  0.00  0.00    -0.476 OA
BRANCH  18  19
ATOM     19  C   UNL     1      34.458 -19.228 -21.058  0.00  0.00    +0.184 C 
BRANCH  19  20
ATOM     20  C   UNL     1      35.232 -17.913 -21.211  0.00  0.00    -0.017 C 
BRANCH  20  21
ATOM     21  N   UNL     1      36.643 -18.232 -21.445  0.00  0.00    +0.384 N 
ATOM     22  H   UNL     1      36.730 -19.208 -21.729  0.00  0.00    -0.089 HD
ATOM     23  H   UNL     1      37.174 -18.079 -20.587  0.00  0.00    -0.089 HD
ATOM     24  H   UNL     1      37.010 -17.630 -22.183  0.00  0.00    -0.089 HD
ENDBRANCH  20  21
BRANCH  20  25
ATOM     25  C   UNL     1      34.732 -17.046 -22.385  0.00  0.00    +0.008 C 
BRANCH  25  26
ATOM     26  C   UNL     1      34.044 -15.767 -21.974  0.00  0.00    -0.024 C 
ATOM     27  C   UNL     1      33.913 -15.468 -20.626  0.00  0.00    -0.004 C 
ATOM     28  C   UNL     1      33.555 -14.913 -22.951  0.00  0.00    -0.004 C 
ATOM     29  C   UNL     1      33.278 -14.286 -20.246  0.00  0.00    -0.000 C 
ATOM     30  C   UNL     1      32.919 -13.731 -22.569  0.00  0.00    -0.000 C 
ATOM     31  C   UNL     1      32.780 -13.418 -21.218  0.00  0.00    -0.000 C 
ENDBRANCH  25  26
ENDBRANCH  20  25
ENDBRANCH  19  20
ENDBRANCH  18  19
ENDBRANCH   3  18
TORSDOF 7
ENDMDL
