MODEL 1
REMARK VINA RESULT:     -12.2      0.000      0.000
REMARK  Name = 24996872
REMARK  6 active torsions:
REMARK  status: ('A' for Active; 'I' for Inactive)
REMARK    1  A    between atoms: O_1  and  C_3
REMARK    2  A    between atoms: O_1  and  C_18
REMARK    3  A    between atoms: C_7  and  C_8
REMARK    4  A    between atoms: C_11  and  S_14
REMARK    5  A    between atoms: C_18  and  C_23
REMARK    6  A    between atoms: C_29  and  C_30
REMARK                            x       y       z     vdW  Elec       q    Type
REMARK                         _______ _______ _______ _____ _____    ______ ____
ROOT
ATOM      1  O   UNL     1      33.947 -16.142 -24.470  0.00  0.00    -0.474 OA
ENDROOT
BRANCH   1   3
ATOM      2  N   UNL     1      33.044 -19.118 -22.537  0.00  0.00    -0.241 NA
ATOM      3  C   UNL     1      33.843 -17.009 -23.410  0.00  0.00    +0.158 C 
ATOM      4  C   UNL     1      34.399 -16.700 -22.174  0.00  0.00    +0.040 C 
ATOM      5  C   UNL     1      33.181 -18.220 -23.539  0.00  0.00    +0.136 C 
ATOM      6  C   UNL     1      34.278 -17.597 -21.118  0.00  0.00    +0.022 C 
ATOM      7  C   UNL     1      33.597 -18.782 -21.350  0.00  0.00    +0.082 C 
BRANCH   7   8
ATOM      8  C   UNL     1      33.433 -19.761 -20.302  0.00  0.00    +0.018 C 
ATOM      9  C   UNL     1      34.552 -20.363 -19.727  0.00  0.00    +0.003 C 
ATOM     10  C   UNL     1      32.154 -20.104 -19.863  0.00  0.00    +0.003 C 
ATOM     11  C   UNL     1      33.114 -21.652 -18.275  0.00  0.00    +0.106 C 
ATOM     12  C   UNL     1      34.392 -21.308 -18.714  0.00  0.00    +0.018 C 
ATOM     13  C   UNL     1      31.994 -21.049 -18.850  0.00  0.00    +0.018 C 
BRANCH  11  14
ATOM     14  S   UNL     1      32.914 -22.835 -17.008  0.00  0.00    +0.010 S 
ATOM     15  O   UNL     1      32.703 -24.133 -17.635  0.00  0.00    -0.169 OA
ATOM     16  O   UNL     1      33.984 -22.669 -16.033  0.00  0.00    -0.169 OA
ATOM     17  C   UNL     1      31.400 -22.366 -16.200  0.00  0.00    +0.182 C 
ENDBRANCH  11  14
ENDBRANCH   7   8
ENDBRANCH   1   3
BRANCH   1  18
ATOM     18  C   UNL     1      32.846 -15.284 -24.709  0.00  0.00    +0.205 C 
BRANCH  18  23
ATOM     19  O   UNL     1      32.117  -8.921 -24.671  0.00  0.00    -0.296 OA
ATOM     20  N   UNL     1      32.819 -11.041 -23.965  0.00  0.00    -0.251 N 
ATOM     21  N   UNL     1      32.932  -9.016 -22.587  0.00  0.00    -0.300 NA
ATOM     22  N   UNL     1      32.043  -7.617 -24.163  0.00  0.00    -0.010 NA
ATOM     23  C   UNL     1      33.307 -13.841 -24.516  0.00  0.00    +0.047 C 
ATOM     24  C   UNL     1      32.969 -13.345 -23.106  0.00  0.00    +0.025 C 
ATOM     25  C   UNL     1      32.657 -12.918 -25.552  0.00  0.00    +0.025 C 
ATOM     26  C   UNL     1      33.389 -11.889 -22.910  0.00  0.00    +0.096 C 
ATOM     27  C   UNL     1      33.074 -11.461 -25.347  0.00  0.00    +0.096 C 
ATOM     28  C   UNL     1      32.650  -9.681 -23.679  0.00  0.00    +0.379 C 
ATOM     29  C   UNL     1      32.541  -7.755 -22.931  0.00  0.00    +0.104 C 
BRANCH  29  30
ATOM     30  C   UNL     1      32.659  -6.621 -22.010  0.00  0.00    +0.101 C 
ATOM     31  C   UNL     1      31.846  -5.379 -22.459  0.00  0.00    +0.017 C 
ATOM     32  C   UNL     1      32.270  -6.971 -20.551  0.00  0.00    +0.017 C 
ENDBRANCH  29  30
ENDBRANCH  18  23
ENDBRANCH   1  18
TORSDOF 6
ENDMDL
MODEL 2
REMARK VINA RESULT:     -12.1      1.260      2.033
REMARK  Name = 24996872
REMARK  6 active torsions:
REMARK  status: ('A' for Active; 'I' for Inactive)
REMARK    1  A    between atoms: O_1  and  C_3
REMARK    2  A    between atoms: O_1  and  C_18
REMARK    3  A    between atoms: C_7  and  C_8
REMARK    4  A    between atoms: C_11  and  S_14
REMARK    5  A    between atoms: C_18  and  C_23
REMARK    6  A    between atoms: C_29  and  C_30
REMARK                            x       y       z     vdW  Elec       q    Type
REMARK                         _______ _______ _______ _____ _____    ______ ____
ROOT
ATOM      1  O   UNL     1      34.182 -15.675 -23.921  0.00  0.00    -0.474 OA
ENDROOT
BRANCH   1   3
ATOM      2  N   UNL     1      34.148 -17.536 -20.768  0.00  0.00    -0.241 NA
ATOM      3  C   UNL     1      33.987 -16.704 -23.032  0.00  0.00    +0.158 C 
ATOM      4  C   UNL     1      33.455 -17.918 -23.449  0.00  0.00    +0.040 C 
ATOM      5  C   UNL     1      34.315 -16.564 -21.693  0.00  0.00    +0.136 C 
ATOM      6  C   UNL     1      33.269 -18.943 -22.526  0.00  0.00    +0.022 C 
ATOM      7  C   UNL     1      33.628 -18.702 -21.210  0.00  0.00    +0.082 C 
BRANCH   7   8
ATOM      8  C   UNL     1      33.463 -19.719 -20.198  0.00  0.00    +0.018 C 
ATOM      9  C   UNL     1      32.183 -20.116 -19.809  0.00  0.00    +0.003 C 
ATOM     10  C   UNL     1      34.583 -20.305 -19.610  0.00  0.00    +0.003 C 
ATOM     11  C   UNL     1      33.145 -21.684 -18.243  0.00  0.00    +0.106 C 
ATOM     12  C   UNL     1      32.025 -21.098 -18.832  0.00  0.00    +0.018 C 
ATOM     13  C   UNL     1      34.425 -21.287 -18.632  0.00  0.00    +0.018 C 
BRANCH  11  14
ATOM     14  S   UNL     1      32.947 -22.913 -17.020  0.00  0.00    +0.010 S 
ATOM     15  O   UNL     1      32.691 -24.179 -17.693  0.00  0.00    -0.169 OA
ATOM     16  O   UNL     1      34.043 -22.811 -16.065  0.00  0.00    -0.169 OA
ATOM     17  C   UNL     1      31.464 -22.444 -16.158  0.00  0.00    +0.182 C 
ENDBRANCH  11  14
ENDBRANCH   7   8
ENDBRANCH   1   3
BRANCH   1  18
ATOM     18  C   UNL     1      33.077 -15.298 -24.722  0.00  0.00    +0.205 C 
BRANCH  18  23
ATOM     19  O   UNL     1      34.309  -9.280 -22.910  0.00  0.00    -0.296 OA
ATOM     20  N   UNL     1      33.360 -11.041 -24.128  0.00  0.00    -0.251 N 
ATOM     21  N   UNL     1      33.249  -8.682 -24.791  0.00  0.00    -0.300 NA
ATOM     22  N   UNL     1      34.428  -7.886 -23.000  0.00  0.00    -0.010 NA
ATOM     23  C   UNL     1      32.716 -13.850 -24.399  0.00  0.00    +0.047 C 
ATOM     24  C   UNL     1      32.924 -12.950 -25.622  0.00  0.00    +0.025 C 
ATOM     25  C   UNL     1      33.555 -13.326 -23.230  0.00  0.00    +0.025 C 
ATOM     26  C   UNL     1      32.602 -11.491 -25.303  0.00  0.00    +0.096 C 
ATOM     27  C   UNL     1      33.237 -11.863 -22.919  0.00  0.00    +0.096 C 
ATOM     28  C   UNL     1      33.603  -9.667 -24.004  0.00  0.00    +0.379 C 
ATOM     29  C   UNL     1      33.778  -7.610 -24.134  0.00  0.00    +0.104 C 
BRANCH  29  30
ATOM     30  C   UNL     1      33.645  -6.240 -24.639  0.00  0.00    +0.101 C 
ATOM     31  C   UNL     1      32.808  -6.145 -25.941  0.00  0.00    +0.017 C 
ATOM     32  C   UNL     1      33.059  -5.255 -23.596  0.00  0.00    +0.017 C 
ENDBRANCH  29  30
ENDBRANCH  18  23
ENDBRANCH   1  18
TORSDOF 6
ENDMDL
MODEL 3
REMARK VINA RESULT:     -12.0      2.608      4.440
REMARK  Name = 24996872
REMARK  6 active torsions:
REMARK  status: ('A' for Active; 'I' for Inactive)
REMARK    1  A    between atoms: O_1  and  C_3
REMARK    2  A    between atoms: O_1  and  C_18
REMARK    3  A    between atoms: C_7  and  C_8
REMARK    4  A    between atoms: C_11  and  S_14
REMARK    5  A    between atoms: C_18  and  C_23
REMARK    6  A    between atoms: C_29  and  C_30
REMARK                            x       y       z     vdW  Elec       q    Type
REMARK                         _______ _______ _______ _____ _____    ______ ____
ROOT
ATOM      1  O   UNL     1      34.549 -19.553 -21.193  0.00  0.00    -0.474 OA
ENDROOT
BRANCH   1   3
ATOM      2  N   UNL     1      32.160 -20.835 -18.733  0.00  0.00    -0.241 NA
ATOM      3  C   UNL     1      34.060 -20.215 -20.094  0.00  0.00    +0.158 C 
ATOM      4  C   UNL     1      34.907 -20.914 -19.242  0.00  0.00    +0.040 C 
ATOM      5  C   UNL     1      32.706 -20.206 -19.798  0.00  0.00    +0.136 C 
ATOM      6  C   UNL     1      34.383 -21.574 -18.136  0.00  0.00    +0.022 C 
ATOM      7  C   UNL     1      33.015 -21.505 -17.928  0.00  0.00    +0.082 C 
BRANCH   7   8
ATOM      8  C   UNL     1      32.401 -22.165 -16.801  0.00  0.00    +0.018 C 
ATOM      9  C   UNL     1      33.197 -22.746 -15.814  0.00  0.00    +0.003 C 
ATOM     10  C   UNL     1      31.011 -22.222 -16.698  0.00  0.00    +0.003 C 
ATOM     11  C   UNL     1      31.213 -23.441 -14.622  0.00  0.00    +0.106 C 
ATOM     12  C   UNL     1      32.602 -23.384 -14.725  0.00  0.00    +0.018 C 
ATOM     13  C   UNL     1      30.416 -22.860 -15.610  0.00  0.00    +0.018 C 
BRANCH  11  14
ATOM     14  S   UNL     1      30.469 -24.239 -13.260  0.00  0.00    +0.010 S 
ATOM     15  O   UNL     1      31.294 -25.387 -12.908  0.00  0.00    -0.169 OA
ATOM     16  O   UNL     1      30.147 -23.243 -12.246  0.00  0.00    -0.169 OA
ATOM     17  C   UNL     1      28.924 -24.850 -13.894  0.00  0.00    +0.182 C 
ENDBRANCH  11  14
ENDBRANCH   7   8
ENDBRANCH   1   3
BRANCH   1  18
ATOM     18  C   UNL     1      33.603 -19.087 -22.137  0.00  0.00    +0.205 C 
BRANCH  18  23
ATOM     19  O   UNL     1      32.731 -13.318 -24.779  0.00  0.00    -0.296 OA
ATOM     20  N   UNL     1      33.541 -14.938 -23.295  0.00  0.00    -0.251 N 
ATOM     21  N   UNL     1      33.726 -12.519 -22.938  0.00  0.00    -0.300 NA
ATOM     22  N   UNL     1      32.671 -11.921 -24.878  0.00  0.00    -0.010 NA
ATOM     23  C   UNL     1      34.044 -17.710 -22.626  0.00  0.00    +0.047 C 
ATOM     24  C   UNL     1      33.819 -16.649 -21.544  0.00  0.00    +0.025 C 
ATOM     25  C   UNL     1      33.286 -17.312 -23.897  0.00  0.00    +0.025 C 
ATOM     26  C   UNL     1      34.221 -15.258 -22.032  0.00  0.00    +0.096 C 
ATOM     27  C   UNL     1      33.684 -15.917 -24.378  0.00  0.00    +0.096 C 
ATOM     28  C   UNL     1      33.367 -13.584 -23.608  0.00  0.00    +0.379 C 
ATOM     29  C   UNL     1      33.278 -11.523 -23.756  0.00  0.00    +0.104 C 
BRANCH  29  30
ATOM     30  C   UNL     1      33.449 -10.105 -23.427  0.00  0.00    +0.101 C 
ATOM     31  C   UNL     1      34.586  -9.421 -24.230  0.00  0.00    +0.017 C 
ATOM     32  C   UNL     1      32.151  -9.274 -23.594  0.00  0.00    +0.017 C 
ENDBRANCH  29  30
ENDBRANCH  18  23
ENDBRANCH   1  18
TORSDOF 6
ENDMDL
MODEL 4
REMARK VINA RESULT:     -11.6      3.773     12.031
REMARK  Name = 24996872
REMARK  6 active torsions:
REMARK  status: ('A' for Active; 'I' for Inactive)
REMARK    1  A    between atoms: O_1  and  C_3
REMARK    2  A    between atoms: O_1  and  C_18
REMARK    3  A    between atoms: C_7  and  C_8
REMARK    4  A    between atoms: C_11  and  S_14
REMARK    5  A    between atoms: C_18  and  C_23
REMARK    6  A    between atoms: C_29  and  C_30
REMARK                            x       y       z     vdW  Elec       q    Type
REMARK                         _______ _______ _______ _____ _____    ______ ____
ROOT
ATOM      1  O   UNL     1      34.430 -18.269 -22.386  0.00  0.00    -0.474 OA
ENDROOT
BRANCH   1   3
ATOM      2  N   UNL     1      33.812 -14.770 -21.504  0.00  0.00    -0.241 NA
ATOM      3  C   UNL     1      34.077 -16.948 -22.519  0.00  0.00    +0.158 C 
ATOM      4  C   UNL     1      33.639 -16.443 -23.737  0.00  0.00    +0.040 C 
ATOM      5  C   UNL     1      34.145 -16.079 -21.442  0.00  0.00    +0.136 C 
ATOM      6  C   UNL     1      33.287 -15.101 -23.841  0.00  0.00    +0.022 C 
ATOM      7  C   UNL     1      33.391 -14.314 -22.706  0.00  0.00    +0.082 C 
BRANCH   7   8
ATOM      8  C   UNL     1      33.044 -12.913 -22.739  0.00  0.00    +0.018 C 
ATOM      9  C   UNL     1      32.233 -12.371 -21.741  0.00  0.00    +0.003 C 
ATOM     10  C   UNL     1      33.519 -12.101 -23.768  0.00  0.00    +0.003 C 
ATOM     11  C   UNL     1      32.373 -10.206 -22.803  0.00  0.00    +0.106 C 
ATOM     12  C   UNL     1      31.898 -11.018 -21.774  0.00  0.00    +0.018 C 
ATOM     13  C   UNL     1      33.184 -10.747 -23.801  0.00  0.00    +0.018 C 
BRANCH  11  14
ATOM     14  S   UNL     1      31.954  -8.512 -22.843  0.00  0.00    +0.010 S 
ATOM     15  O   UNL     1      33.017  -7.770 -22.179  0.00  0.00    -0.169 OA
ATOM     16  O   UNL     1      31.563  -8.154 -24.200  0.00  0.00    -0.169 OA
ATOM     17  C   UNL     1      30.493  -8.393 -21.835  0.00  0.00    +0.182 C 
ENDBRANCH  11  14
ENDBRANCH   7   8
ENDBRANCH   1   3
BRANCH   1  18
ATOM     18  C   UNL     1      35.119 -18.635 -21.205  0.00  0.00    +0.205 C 
BRANCH  18  23
ATOM     19  O   UNL     1      33.473 -22.588 -16.442  0.00  0.00    -0.296 OA
ATOM     20  N   UNL     1      33.243 -21.287 -18.376  0.00  0.00    -0.251 N 
ATOM     21  N   UNL     1      31.366 -22.249 -17.124  0.00  0.00    -0.300 NA
ATOM     22  N   UNL     1      32.653 -23.259 -15.525  0.00  0.00    -0.010 NA
ATOM     23  C   UNL     1      34.423 -19.849 -20.594  0.00  0.00    +0.047 C 
ATOM     24  C   UNL     1      33.056 -19.460 -20.018  0.00  0.00    +0.025 C 
ATOM     25  C   UNL     1      35.282 -20.474 -19.491  0.00  0.00    +0.025 C 
ATOM     26  C   UNL     1      32.363 -20.658 -19.370  0.00  0.00    +0.096 C 
ATOM     27  C   UNL     1      34.582 -21.666 -18.839  0.00  0.00    +0.096 C 
ATOM     28  C   UNL     1      32.636 -22.021 -17.349  0.00  0.00    +0.379 C 
ATOM     29  C   UNL     1      31.427 -23.012 -15.995  0.00  0.00    +0.104 C 
BRANCH  29  30
ATOM     30  C   UNL     1      30.223 -23.529 -15.335  0.00  0.00    +0.101 C 
ATOM     31  C   UNL     1      30.464 -23.949 -13.862  0.00  0.00    +0.017 C 
ATOM     32  C   UNL     1      29.025 -22.548 -15.386  0.00  0.00    +0.017 C 
ENDBRANCH  29  30
ENDBRANCH  18  23
ENDBRANCH   1  18
TORSDOF 6
ENDMDL
MODEL 5
REMARK VINA RESULT:     -11.6      2.895      4.538
REMARK  Name = 24996872
REMARK  6 active torsions:
REMARK  status: ('A' for Active; 'I' for Inactive)
REMARK    1  A    between atoms: O_1  and  C_3
REMARK    2  A    between atoms: O_1  and  C_18
REMARK    3  A    between atoms: C_7  and  C_8
REMARK    4  A    between atoms: C_11  and  S_14
REMARK    5  A    between atoms: C_18  and  C_23
REMARK    6  A    between atoms: C_29  and  C_30
REMARK                            x       y       z     vdW  Elec       q    Type
REMARK                         _______ _______ _______ _____ _____    ______ ____
ROOT
ATOM      1  O   UNL     1      33.016 -19.225 -21.373  0.00  0.00    -0.474 OA
ENDROOT
BRANCH   1   3
ATOM      2  N   UNL     1      35.172 -20.566 -18.736  0.00  0.00    -0.241 NA
ATOM      3  C   UNL     1      33.401 -19.899 -20.240  0.00  0.00    +0.158 C 
ATOM      4  C   UNL     1      32.472 -20.576 -19.459  0.00  0.00    +0.040 C 
ATOM      5  C   UNL     1      34.727 -19.924 -19.839  0.00  0.00    +0.136 C 
ATOM      6  C   UNL     1      32.891 -21.250 -18.317  0.00  0.00    +0.022 C 
ATOM      7  C   UNL     1      34.240 -21.214 -18.001  0.00  0.00    +0.082 C 
BRANCH   7   8
ATOM      8  C   UNL     1      34.747 -21.890 -16.831  0.00  0.00    +0.018 C 
ATOM      9  C   UNL     1      36.083 -21.732 -16.458  0.00  0.00    +0.003 C 
ATOM     10  C   UNL     1      33.903 -22.700 -16.072  0.00  0.00    +0.003 C 
ATOM     11  C   UNL     1      35.727 -23.196 -14.568  0.00  0.00    +0.106 C 
ATOM     12  C   UNL     1      36.572 -22.386 -15.327  0.00  0.00    +0.018 C 
ATOM     13  C   UNL     1      34.392 -23.353 -14.941  0.00  0.00    +0.018 C 
BRANCH  11  14
ATOM     14  S   UNL     1      36.340 -24.013 -13.153  0.00  0.00    +0.010 S 
ATOM     15  O   UNL     1      35.578 -25.243 -12.980  0.00  0.00    -0.169 OA
ATOM     16  O   UNL     1      37.793 -24.069 -13.231  0.00  0.00    -0.169 OA
ATOM     17  C   UNL     1      35.935 -22.926 -11.804  0.00  0.00    +0.182 C 
ENDBRANCH  11  14
ENDBRANCH   7   8
ENDBRANCH   1   3
BRANCH   1  18
ATOM     18  C   UNL     1      33.903 -19.262 -22.476  0.00  0.00    +0.205 C 
BRANCH  18  23
ATOM     19  O   UNL     1      32.752 -13.353 -24.662  0.00  0.00    -0.296 OA
ATOM     20  N   UNL     1      33.631 -15.042 -23.298  0.00  0.00    -0.251 N 
ATOM     21  N   UNL     1      33.680 -12.653 -22.747  0.00  0.00    -0.300 NA
ATOM     22  N   UNL     1      32.618 -11.958 -24.650  0.00  0.00    -0.010 NA
ATOM     23  C   UNL     1      34.275 -17.828 -22.846  0.00  0.00    +0.047 C 
ATOM     24  C   UNL     1      33.980 -16.871 -21.686  0.00  0.00    +0.025 C 
ATOM     25  C   UNL     1      33.512 -17.370 -24.092  0.00  0.00    +0.025 C 
ATOM     26  C   UNL     1      34.312 -15.426 -22.054  0.00  0.00    +0.096 C 
ATOM     27  C   UNL     1      33.840 -15.921 -24.454  0.00  0.00    +0.096 C 
ATOM     28  C   UNL     1      33.387 -13.679 -23.506  0.00  0.00    +0.379 C 
ATOM     29  C   UNL     1      33.188 -11.620 -23.490  0.00  0.00    +0.104 C 
BRANCH  29  30
ATOM     30  C   UNL     1      33.278 -10.225 -23.046  0.00  0.00    +0.101 C 
ATOM     31  C   UNL     1      33.919  -9.286 -24.101  0.00  0.00    +0.017 C 
ATOM     32  C   UNL     1      31.916  -9.631 -22.609  0.00  0.00    +0.017 C 
ENDBRANCH  29  30
ENDBRANCH  18  23
ENDBRANCH   1  18
TORSDOF 6
ENDMDL
MODEL 6
REMARK VINA RESULT:     -11.5      3.877     11.835
REMARK  Name = 24996872
REMARK  6 active torsions:
REMARK  status: ('A' for Active; 'I' for Inactive)
REMARK    1  A    between atoms: O_1  and  C_3
REMARK    2  A    between atoms: O_1  and  C_18
REMARK    3  A    between atoms: C_7  and  C_8
REMARK    4  A    between atoms: C_11  and  S_14
REMARK    5  A    between atoms: C_18  and  C_23
REMARK    6  A    between atoms: C_29  and  C_30
REMARK                            x       y       z     vdW  Elec       q    Type
REMARK                         _______ _______ _______ _____ _____    ______ ____
ROOT
ATOM      1  O   UNL     1      32.979 -16.439 -24.329  0.00  0.00    -0.474 OA
ENDROOT
BRANCH   1   3
ATOM      2  N   UNL     1      32.654 -12.838 -24.902  0.00  0.00    -0.241 NA
ATOM      3  C   UNL     1      33.026 -15.087 -24.095  0.00  0.00    +0.158 C 
ATOM      4  C   UNL     1      33.470 -14.585 -22.878  0.00  0.00    +0.040 C 
ATOM      5  C   UNL     1      32.633 -14.180 -25.067  0.00  0.00    +0.136 C 
ATOM      6  C   UNL     1      33.508 -13.210 -22.671  0.00  0.00    +0.022 C 
ATOM      7  C   UNL     1      33.092 -12.387 -23.705  0.00  0.00    +0.082 C 
BRANCH   7   8
ATOM      8  C   UNL     1      33.103 -10.951 -23.562  0.00  0.00    +0.018 C 
ATOM      9  C   UNL     1      32.221 -10.331 -22.677  0.00  0.00    +0.003 C 
ATOM     10  C   UNL     1      33.997 -10.182 -24.307  0.00  0.00    +0.003 C 
ATOM     11  C   UNL     1      33.126  -8.175 -23.284  0.00  0.00    +0.106 C 
ATOM     12  C   UNL     1      32.232  -8.943 -22.539  0.00  0.00    +0.018 C 
ATOM     13  C   UNL     1      34.009  -8.794 -24.169  0.00  0.00    +0.018 C 
BRANCH  11  14
ATOM     14  S   UNL     1      33.140  -6.438 -23.111  0.00  0.00    +0.010 S 
ATOM     15  O   UNL     1      32.709  -6.118 -21.757  0.00  0.00    -0.169 OA
ATOM     16  O   UNL     1      34.411  -5.924 -23.604  0.00  0.00    -0.169 OA
ATOM     17  C   UNL     1      31.882  -5.871 -24.233  0.00  0.00    +0.182 C 
ENDBRANCH  11  14
ENDBRANCH   7   8
ENDBRANCH   1   3
BRANCH   1  18
ATOM     18  C   UNL     1      34.143 -17.186 -24.025  0.00  0.00    +0.205 C 
BRANCH  18  23
ATOM     19  O   UNL     1      33.832 -21.444 -19.251  0.00  0.00    -0.296 OA
ATOM     20  N   UNL     1      34.493 -19.530 -20.428  0.00  0.00    -0.251 N 
ATOM     21  N   UNL     1      35.603 -20.363 -18.406  0.00  0.00    -0.300 NA
ATOM     22  N   UNL     1      34.225 -22.166 -18.116  0.00  0.00    -0.010 NA
ATOM     23  C   UNL     1      34.072 -17.621 -22.563  0.00  0.00    +0.047 C 
ATOM     24  C   UNL     1      35.472 -17.921 -22.016  0.00  0.00    +0.025 C 
ATOM     25  C   UNL     1      33.185 -18.860 -22.405  0.00  0.00    +0.025 C 
ATOM     26  C   UNL     1      35.414 -18.394 -20.564  0.00  0.00    +0.096 C 
ATOM     27  C   UNL     1      33.137 -19.336 -20.952  0.00  0.00    +0.096 C 
ATOM     28  C   UNL     1      34.696 -20.400 -19.350  0.00  0.00    +0.379 C 
ATOM     29  C   UNL     1      35.274 -21.466 -17.674  0.00  0.00    +0.104 C 
BRANCH  29  30
ATOM     30  C   UNL     1      36.023 -21.862 -16.478  0.00  0.00    +0.101 C 
ATOM     31  C   UNL     1      36.848 -20.704 -15.859  0.00  0.00    +0.017 C 
ATOM     32  C   UNL     1      35.132 -22.486 -15.374  0.00  0.00    +0.017 C 
ENDBRANCH  29  30
ENDBRANCH  18  23
ENDBRANCH   1  18
TORSDOF 6
ENDMDL
MODEL 7
REMARK VINA RESULT:     -10.9      3.882      6.508
REMARK  Name = 24996872
REMARK  6 active torsions:
REMARK  status: ('A' for Active; 'I' for Inactive)
REMARK    1  A    between atoms: O_1  and  C_3
REMARK    2  A    between atoms: O_1  and  C_18
REMARK    3  A    between atoms: C_7  and  C_8
REMARK    4  A    between atoms: C_11  and  S_14
REMARK    5  A    between atoms: C_18  and  C_23
REMARK    6  A    between atoms: C_29  and  C_30
REMARK                            x       y       z     vdW  Elec       q    Type
REMARK                         _______ _______ _______ _____ _____    ______ ____
ROOT
ATOM      1  O   UNL     1      35.631 -19.916 -19.716  0.00  0.00    -0.474 OA
ENDROOT
BRANCH   1   3
ATOM      2  N   UNL     1      34.683 -22.171 -16.992  0.00  0.00    -0.241 NA
ATOM      3  C   UNL     1      35.634 -20.523 -18.484  0.00  0.00    +0.158 C 
ATOM      4  C   UNL     1      36.541 -20.146 -17.501  0.00  0.00    +0.040 C 
ATOM      5  C   UNL     1      34.733 -21.532 -18.182  0.00  0.00    +0.136 C 
ATOM      6  C   UNL     1      36.520 -20.779 -16.263  0.00  0.00    +0.022 C 
ATOM      7  C   UNL     1      35.580 -21.776 -16.061  0.00  0.00    +0.082 C 
BRANCH   7   8
ATOM      8  C   UNL     1      35.500 -22.477 -14.801  0.00  0.00    +0.018 C 
ATOM      9  C   UNL     1      36.649 -23.030 -14.236  0.00  0.00    +0.003 C 
ATOM     10  C   UNL     1      34.274 -22.600 -14.149  0.00  0.00    +0.003 C 
ATOM     11  C   UNL     1      35.344 -23.830 -12.366  0.00  0.00    +0.106 C 
ATOM     12  C   UNL     1      36.571 -23.707 -13.019  0.00  0.00    +0.018 C 
ATOM     13  C   UNL     1      34.195 -23.277 -12.932  0.00  0.00    +0.018 C 
BRANCH  11  14
ATOM     14  S   UNL     1      35.246 -24.677 -10.843  0.00  0.00    +0.010 S 
ATOM     15  O   UNL     1      33.838 -24.900 -10.543  0.00  0.00    -0.169 OA
ATOM     16  O   UNL     1      36.167 -25.806 -10.870  0.00  0.00    -0.169 OA
ATOM     17  C   UNL     1      35.881 -23.519  -9.651  0.00  0.00    +0.182 C 
ENDBRANCH  11  14
ENDBRANCH   7   8
ENDBRANCH   1   3
BRANCH   1  18
ATOM     18  C   UNL     1      34.376 -19.753 -20.350  0.00  0.00    +0.205 C 
BRANCH  18  23
ATOM     19  O   UNL     1      32.309 -16.048 -25.148  0.00  0.00    -0.296 OA
ATOM     20  N   UNL     1      33.548 -16.695 -23.269  0.00  0.00    -0.251 N 
ATOM     21  N   UNL     1      33.426 -14.400 -24.123  0.00  0.00    -0.300 NA
ATOM     22  N   UNL     1      32.033 -14.881 -25.872  0.00  0.00    -0.010 NA
ATOM     23  C   UNL     1      34.539 -18.761 -21.499  0.00  0.00    +0.047 C 
ATOM     24  C   UNL     1      34.316 -17.324 -21.014  0.00  0.00    +0.025 C 
ATOM     25  C   UNL     1      33.559 -19.074 -22.634  0.00  0.00    +0.025 C 
ATOM     26  C   UNL     1      34.438 -16.322 -22.161  0.00  0.00    +0.096 C 
ATOM     27  C   UNL     1      33.678 -18.065 -23.776  0.00  0.00    +0.096 C 
ATOM     28  C   UNL     1      33.135 -15.676 -24.136  0.00  0.00    +0.379 C 
ATOM     29  C   UNL     1      32.727 -13.954 -25.206  0.00  0.00    +0.104 C 
BRANCH  29  30
ATOM     30  C   UNL     1      32.734 -12.546 -25.616  0.00  0.00    +0.101 C 
ATOM     31  C   UNL     1      31.394 -12.083 -26.245  0.00  0.00    +0.017 C 
ATOM     32  C   UNL     1      33.109 -11.574 -24.469  0.00  0.00    +0.017 C 
ENDBRANCH  29  30
ENDBRANCH  18  23
ENDBRANCH   1  18
TORSDOF 6
ENDMDL
MODEL 8
REMARK VINA RESULT:     -10.9      4.124     12.255
REMARK  Name = 24996872
REMARK  6 active torsions:
REMARK  status: ('A' for Active; 'I' for Inactive)
REMARK    1  A    between atoms: O_1  and  C_3
REMARK    2  A    between atoms: O_1  and  C_18
REMARK    3  A    between atoms: C_7  and  C_8
REMARK    4  A    between atoms: C_11  and  S_14
REMARK    5  A    between atoms: C_18  and  C_23
REMARK    6  A    between atoms: C_29  and  C_30
REMARK                            x       y       z     vdW  Elec       q    Type
REMARK                         _______ _______ _______ _____ _____    ______ ____
ROOT
ATOM      1  O   UNL     1      34.505 -17.736 -21.694  0.00  0.00    -0.474 OA
ENDROOT
BRANCH   1   3
ATOM      2  N   UNL     1      33.575 -14.536 -23.210  0.00  0.00    -0.241 NA
ATOM      3  C   UNL     1      34.113 -16.424 -21.799  0.00  0.00    +0.158 C 
ATOM      4  C   UNL     1      33.859 -15.659 -20.666  0.00  0.00    +0.040 C 
ATOM      5  C   UNL     1      33.958 -15.821 -23.037  0.00  0.00    +0.136 C 
ATOM      6  C   UNL     1      33.464 -14.332 -20.804  0.00  0.00    +0.022 C 
ATOM      7  C   UNL     1      33.337 -13.823 -22.086  0.00  0.00    +0.082 C 
BRANCH   7   8
ATOM      8  C   UNL     1      32.931 -12.456 -22.305  0.00  0.00    +0.018 C 
ATOM      9  C   UNL     1      31.979 -11.868 -21.472  0.00  0.00    +0.003 C 
ATOM     10  C   UNL     1      33.492 -11.721 -23.350  0.00  0.00    +0.003 C 
ATOM     11  C   UNL     1      32.148  -9.812 -22.729  0.00  0.00    +0.106 C 
ATOM     12  C   UNL     1      31.587 -10.547 -21.684  0.00  0.00    +0.018 C 
ATOM     13  C   UNL     1      33.100 -10.399 -23.562  0.00  0.00    +0.018 C 
BRANCH  11  14
ATOM     14  S   UNL     1      31.657  -8.158 -22.994  0.00  0.00    +0.010 S 
ATOM     15  O   UNL     1      31.644  -7.919 -24.432  0.00  0.00    -0.169 OA
ATOM     16  O   UNL     1      30.463  -7.886 -22.206  0.00  0.00    -0.169 OA
ATOM     17  C   UNL     1      32.973  -7.188 -22.292  0.00  0.00    +0.182 C 
ENDBRANCH  11  14
ENDBRANCH   7   8
ENDBRANCH   1   3
BRANCH   1  18
ATOM     18  C   UNL     1      33.483 -18.716 -21.711  0.00  0.00    +0.205 C 
BRANCH  18  23
ATOM     19  O   UNL     1      36.169 -21.372 -16.538  0.00  0.00    -0.296 OA
ATOM     20  N   UNL     1      34.614 -21.027 -18.256  0.00  0.00    -0.251 N 
ATOM     21  N   UNL     1      34.225 -22.461 -16.305  0.00  0.00    -0.300 NA
ATOM     22  N   UNL     1      36.265 -22.089 -15.338  0.00  0.00    -0.010 NA
ATOM     23  C   UNL     1      33.913 -19.879 -20.819  0.00  0.00    +0.047 C 
ATOM     24  C   UNL     1      32.854 -20.163 -19.748  0.00  0.00    +0.025 C 
ATOM     25  C   UNL     1      35.256 -19.582 -20.144  0.00  0.00    +0.025 C 
ATOM     26  C   UNL     1      33.287 -21.301 -18.823  0.00  0.00    +0.096 C 
ATOM     27  C   UNL     1      35.681 -20.718 -19.214  0.00  0.00    +0.096 C 
ATOM     28  C   UNL     1      34.937 -21.646 -17.042  0.00  0.00    +0.379 C 
ATOM     29  C   UNL     1      35.081 -22.705 -15.271  0.00  0.00    +0.104 C 
BRANCH  29  30
ATOM     30  C   UNL     1      34.726 -23.586 -14.154  0.00  0.00    +0.101 C 
ATOM     31  C   UNL     1      33.202 -23.842 -14.034  0.00  0.00    +0.017 C 
ATOM     32  C   UNL     1      35.460 -24.951 -14.192  0.00  0.00    +0.017 C 
ENDBRANCH  29  30
ENDBRANCH  18  23
ENDBRANCH   1  18
TORSDOF 6
ENDMDL
MODEL 9
REMARK VINA RESULT:     -10.5      4.882     12.848
REMARK  Name = 24996872
REMARK  6 active torsions:
REMARK  status: ('A' for Active; 'I' for Inactive)
REMARK    1  A    between atoms: O_1  and  C_3
REMARK    2  A    between atoms: O_1  and  C_18
REMARK    3  A    between atoms: C_7  and  C_8
REMARK    4  A    between atoms: C_11  and  S_14
REMARK    5  A    between atoms: C_18  and  C_23
REMARK    6  A    between atoms: C_29  and  C_30
REMARK                            x       y       z     vdW  Elec       q    Type
REMARK                         _______ _______ _______ _____ _____    ______ ____
ROOT
ATOM      1  O   UNL     1      34.486 -20.090 -20.436  0.00  0.00    -0.474 OA
ENDROOT
BRANCH   1   3
ATOM      2  N   UNL     1      34.284 -16.468 -20.930  0.00  0.00    -0.241 NA
ATOM      3  C   UNL     1      34.272 -18.883 -21.055  0.00  0.00    +0.158 C 
ATOM      4  C   UNL     1      33.843 -18.820 -22.375  0.00  0.00    +0.040 C 
ATOM      5  C   UNL     1      34.476 -17.689 -20.381  0.00  0.00    +0.136 C 
ATOM      6  C   UNL     1      33.634 -17.582 -22.975  0.00  0.00    +0.022 C 
ATOM      7  C   UNL     1      33.868 -16.447 -22.216  0.00  0.00    +0.082 C 
BRANCH   7   8
ATOM      8  C   UNL     1      33.673 -15.129 -22.772  0.00  0.00    +0.018 C 
ATOM      9  C   UNL     1      33.364 -14.981 -24.124  0.00  0.00    +0.003 C 
ATOM     10  C   UNL     1      33.791 -14.004 -21.957  0.00  0.00    +0.003 C 
ATOM     11  C   UNL     1      33.294 -12.582 -23.845  0.00  0.00    +0.106 C 
ATOM     12  C   UNL     1      33.176 -13.707 -24.660  0.00  0.00    +0.018 C 
ATOM     13  C   UNL     1      33.603 -12.730 -22.493  0.00  0.00    +0.018 C 
BRANCH  11  14
ATOM     14  S   UNL     1      33.058 -10.988 -24.517  0.00  0.00    +0.010 S 
ATOM     15  O   UNL     1      34.370 -10.424 -24.805  0.00  0.00    -0.169 OA
ATOM     16  O   UNL     1      32.057 -11.063 -25.572  0.00  0.00    -0.169 OA
ATOM     17  C   UNL     1      32.340 -10.050 -23.187  0.00  0.00    +0.182 C 
ENDBRANCH  11  14
ENDBRANCH   7   8
ENDBRANCH   1   3
BRANCH   1  18
ATOM     18  C   UNL     1      33.474 -20.553 -19.561  0.00  0.00    +0.205 C 
BRANCH  18  23
ATOM     19  O   UNL     1      36.522 -22.263 -14.194  0.00  0.00    -0.296 OA
ATOM     20  N   UNL     1      34.959 -22.345 -15.936  0.00  0.00    -0.251 N 
ATOM     21  N   UNL     1      34.811 -23.675 -13.880  0.00  0.00    -0.300 NA
ATOM     22  N   UNL     1      36.730 -22.857 -12.942  0.00  0.00    -0.010 NA
ATOM     23  C   UNL     1      34.097 -21.545 -18.581  0.00  0.00    +0.047 C 
ATOM     24  C   UNL     1      33.093 -21.940 -17.493  0.00  0.00    +0.025 C 
ATOM     25  C   UNL     1      35.351 -20.953 -17.929  0.00  0.00    +0.025 C 
ATOM     26  C   UNL     1      33.715 -22.904 -16.483  0.00  0.00    +0.096 C 
ATOM     27  C   UNL     1      35.965 -21.916 -16.912  0.00  0.00    +0.096 C 
ATOM     28  C   UNL     1      35.371 -22.800 -14.677  0.00  0.00    +0.379 C 
ATOM     29  C   UNL     1      35.680 -23.676 -12.829  0.00  0.00    +0.104 C 
BRANCH  29  30
ATOM     30  C   UNL     1      35.478 -24.522 -11.648  0.00  0.00    +0.101 C 
ATOM     31  C   UNL     1      36.693 -25.432 -11.330  0.00  0.00    +0.017 C 
ATOM     32  C   UNL     1      35.107 -23.720 -10.375  0.00  0.00    +0.017 C 
ENDBRANCH  29  30
ENDBRANCH  18  23
ENDBRANCH   1  18
TORSDOF 6
ENDMDL
