MODEL 1
REMARK VINA RESULT:     -12.3      0.000      0.000
REMARK  Name = 25145656
REMARK  4 active torsions:
REMARK  status: ('A' for Active; 'I' for Inactive)
REMARK    1  A    between atoms: C_5  and  C_22
REMARK    2  A    between atoms: C_8  and  C_11
REMARK    3  A    between atoms: C_14  and  C_19
REMARK    4  A    between atoms: C_22  and  C_24
REMARK                            x       y       z     vdW  Elec       q    Type
REMARK                         _______ _______ _______ _____ _____    ______ ____
ROOT
ATOM      1  N   UNL     1      32.935 -13.068 -24.420  0.00  0.00    -0.134 N 
ATOM      2  N   UNL     1      33.438 -13.915 -23.495  0.00  0.00    -0.168 NA
ATOM      3  N   UNL     1      31.893 -12.339 -26.238  0.00  0.00    -0.178 NA
ATOM      4  N   UNL     1      32.056 -14.726 -25.871  0.00  0.00    -0.200 NA
ATOM      5  C   UNL     1      33.001 -11.702 -24.374  0.00  0.00    +0.086 C 
ATOM      6  C   UNL     1      32.255 -13.420 -25.569  0.00  0.00    +0.114 C 
ATOM      7  C   UNL     1      32.352 -11.276 -25.505  0.00  0.00    +0.124 C 
ATOM      8  C   UNL     1      33.238 -15.172 -23.755  0.00  0.00    +0.103 C 
ATOM      9  C   UNL     1      32.524 -15.580 -25.021  0.00  0.00    +0.184 C 
ENDROOT
BRANCH   8  11
ATOM     10  F   UNL     1      34.364 -19.789 -22.770  0.00  0.00    -0.204 F 
ATOM     11  C   UNL     1      33.718 -16.212 -22.816  0.00  0.00    +0.019 C 
ATOM     12  C   UNL     1      33.818 -17.538 -23.237  0.00  0.00    +0.031 C 
ATOM     13  C   UNL     1      34.070 -15.866 -21.512  0.00  0.00    +0.002 C 
ATOM     14  C   UNL     1      34.623 -18.172 -21.049  0.00  0.00    +0.081 C 
ATOM     15  C   UNL     1      34.271 -18.517 -22.354  0.00  0.00    +0.144 C 
ATOM     16  C   UNL     1      34.522 -16.846 -20.629  0.00  0.00    +0.007 C 
BRANCH  14  19
ATOM     17  O   UNL     1      36.275 -19.187 -19.731  0.00  0.00    -0.270 OA
ATOM     18  N   UNL     1      34.162 -20.140 -19.694  0.00  0.00    -0.299 N 
ATOM     19  C   UNL     1      35.096 -19.190 -20.125  0.00  0.00    +0.248 C 
ATOM     20  C   UNL     1      34.472 -21.198 -18.760  0.00  0.00    +0.111 C 
ATOM     21  H   UNL     1      33.244 -20.085 -20.046  0.00  0.00    +0.150 HD
ENDBRANCH  14  19
ENDBRANCH   8  11
BRANCH   5  22
ATOM     22  C   UNL     1      33.678 -10.936 -23.255  0.00  0.00    +0.068 C 
BRANCH  22  24
ATOM     23  N   UNL     1      32.339  -5.441 -23.086  0.00  0.00    -0.248 NA
ATOM     24  C   UNL     1      33.316  -9.490 -23.206  0.00  0.00    -0.038 C 
ATOM     25  C   UNL     1      32.069  -9.096 -22.731  0.00  0.00    +0.050 C 
ATOM     26  C   UNL     1      31.724  -7.736 -22.683  0.00  0.00    -0.004 C 
ATOM     27  C   UNL     1      34.222  -8.528 -23.636  0.00  0.00    -0.028 C 
ATOM     28  C   UNL     1      32.638  -6.752 -23.118  0.00  0.00    +0.060 C 
ATOM     29  C   UNL     1      33.878  -7.175 -23.588  0.00  0.00    +0.071 C 
ATOM     30  C   UNL     1      30.475  -7.311 -22.209  0.00  0.00    -0.001 C 
ATOM     31  C   UNL     1      30.164  -5.959 -22.175  0.00  0.00    +0.020 C 
ATOM     32  C   UNL     1      31.123  -5.073 -22.621  0.00  0.00    +0.098 C 
ENDBRANCH  22  24
ENDBRANCH   5  22
TORSDOF 4
ENDMDL
MODEL 2
REMARK VINA RESULT:     -12.2      3.136      4.787
REMARK  Name = 25145656
REMARK  4 active torsions:
REMARK  status: ('A' for Active; 'I' for Inactive)
REMARK    1  A    between atoms: C_5  and  C_22
REMARK    2  A    between atoms: C_8  and  C_11
REMARK    3  A    between atoms: C_14  and  C_19
REMARK    4  A    between atoms: C_22  and  C_24
REMARK                            x       y       z     vdW  Elec       q    Type
REMARK                         _______ _______ _______ _____ _____    ______ ____
ROOT
ATOM      1  N   UNL     1      33.879 -16.997 -22.300  0.00  0.00    -0.134 N 
ATOM      2  N   UNL     1      33.837 -17.728 -21.164  0.00  0.00    -0.168 NA
ATOM      3  N   UNL     1      33.905 -16.494 -24.461  0.00  0.00    -0.178 NA
ATOM      4  N   UNL     1      33.830 -18.824 -23.812  0.00  0.00    -0.200 NA
ATOM      5  C   UNL     1      33.931 -15.631 -22.372  0.00  0.00    +0.086 C 
ATOM      6  C   UNL     1      33.866 -17.488 -23.591  0.00  0.00    +0.114 C 
ATOM      7  C   UNL     1      33.946 -15.346 -23.714  0.00  0.00    +0.124 C 
ATOM      8  C   UNL     1      33.778 -19.011 -21.356  0.00  0.00    +0.103 C 
ATOM      9  C   UNL     1      33.794 -19.571 -22.757  0.00  0.00    +0.184 C 
ENDROOT
BRANCH   8  11
ATOM     10  F   UNL     1      35.946 -21.705 -17.950  0.00  0.00    -0.204 F 
ATOM     11  C   UNL     1      33.706 -19.934 -20.199  0.00  0.00    +0.019 C 
ATOM     12  C   UNL     1      34.879 -20.398 -19.604  0.00  0.00    +0.031 C 
ATOM     13  C   UNL     1      32.466 -20.337 -19.704  0.00  0.00    +0.002 C 
ATOM     14  C   UNL     1      33.572 -21.670 -18.020  0.00  0.00    +0.081 C 
ATOM     15  C   UNL     1      34.812 -21.266 -18.514  0.00  0.00    +0.144 C 
ATOM     16  C   UNL     1      32.400 -21.206 -18.615  0.00  0.00    +0.007 C 
BRANCH  14  19
ATOM     17  O   UNL     1      32.744 -23.563 -16.911  0.00  0.00    -0.270 OA
ATOM     18  N   UNL     1      34.322 -22.289 -15.789  0.00  0.00    -0.299 N 
ATOM     19  C   UNL     1      33.498 -22.574 -16.884  0.00  0.00    +0.248 C 
ATOM     20  C   UNL     1      34.380 -23.104 -14.597  0.00  0.00    +0.111 C 
ATOM     21  H   UNL     1      34.895 -21.489 -15.833  0.00  0.00    +0.150 HD
ENDBRANCH  14  19
ENDBRANCH   8  11
BRANCH   5  22
ATOM     22  C   UNL     1      33.962 -14.732 -21.153  0.00  0.00    +0.068 C 
BRANCH  22  24
ATOM     23  N   UNL     1      31.142  -9.874 -21.841  0.00  0.00    -0.248 NA
ATOM     24  C   UNL     1      33.214 -13.453 -21.325  0.00  0.00    -0.038 C 
ATOM     25  C   UNL     1      32.293 -13.046 -20.364  0.00  0.00    +0.050 C 
ATOM     26  C   UNL     1      31.587 -11.842 -20.523  0.00  0.00    -0.004 C 
ATOM     27  C   UNL     1      33.431 -12.662 -22.446  0.00  0.00    -0.028 C 
ATOM     28  C   UNL     1      31.802 -11.033 -21.658  0.00  0.00    +0.060 C 
ATOM     29  C   UNL     1      32.729 -11.465 -22.604  0.00  0.00    +0.071 C 
ATOM     30  C   UNL     1      30.655 -11.407 -19.570  0.00  0.00    -0.001 C 
ATOM     31  C   UNL     1      29.973 -10.213 -19.757  0.00  0.00    +0.020 C 
ATOM     32  C   UNL     1      30.250  -9.490 -20.898  0.00  0.00    +0.098 C 
ENDBRANCH  22  24
ENDBRANCH   5  22
TORSDOF 4
ENDMDL
MODEL 3
REMARK VINA RESULT:     -12.0      3.322     10.134
REMARK  Name = 25145656
REMARK  4 active torsions:
REMARK  status: ('A' for Active; 'I' for Inactive)
REMARK    1  A    between atoms: C_5  and  C_22
REMARK    2  A    between atoms: C_8  and  C_11
REMARK    3  A    between atoms: C_14  and  C_19
REMARK    4  A    between atoms: C_22  and  C_24
REMARK                            x       y       z     vdW  Elec       q    Type
REMARK                         _______ _______ _______ _____ _____    ______ ____
ROOT
ATOM      1  N   UNL     1      33.290 -15.539 -23.670  0.00  0.00    -0.134 N 
ATOM      2  N   UNL     1      33.526 -14.251 -23.337  0.00  0.00    -0.168 NA
ATOM      3  N   UNL     1      32.524 -17.306 -24.773  0.00  0.00    -0.178 NA
ATOM      4  N   UNL     1      31.925 -15.096 -25.559  0.00  0.00    -0.200 NA
ATOM      5  C   UNL     1      33.769 -16.638 -23.009  0.00  0.00    +0.086 C 
ATOM      6  C   UNL     1      32.535 -15.985 -24.737  0.00  0.00    +0.114 C 
ATOM      7  C   UNL     1      33.284 -17.714 -23.708  0.00  0.00    +0.124 C 
ATOM      8  C   UNL     1      32.969 -13.384 -24.127  0.00  0.00    +0.103 C 
ATOM      9  C   UNL     1      32.115 -13.848 -25.282  0.00  0.00    +0.184 C 
ENDROOT
BRANCH   8  11
ATOM     10  F   UNL     1      34.977  -9.133 -25.333  0.00  0.00    -0.204 F 
ATOM     11  C   UNL     1      33.161 -11.933 -23.894  0.00  0.00    +0.019 C 
ATOM     12  C   UNL     1      33.994 -11.197 -24.736  0.00  0.00    +0.031 C 
ATOM     13  C   UNL     1      32.509 -11.305 -22.833  0.00  0.00    +0.002 C 
ATOM     14  C   UNL     1      33.523  -9.202 -23.456  0.00  0.00    +0.081 C 
ATOM     15  C   UNL     1      34.175  -9.831 -24.517  0.00  0.00    +0.144 C 
ATOM     16  C   UNL     1      32.690  -9.940 -22.614  0.00  0.00    +0.007 C 
BRANCH  14  19
ATOM     17  O   UNL     1      34.479  -7.378 -22.334  0.00  0.00    -0.270 OA
ATOM     18  N   UNL     1      33.003  -6.903 -24.057  0.00  0.00    -0.299 N 
ATOM     19  C   UNL     1      33.708  -7.779 -23.224  0.00  0.00    +0.248 C 
ATOM     20  C   UNL     1      33.099  -5.464 -23.968  0.00  0.00    +0.111 C 
ATOM     21  H   UNL     1      32.408  -7.287 -24.742  0.00  0.00    +0.150 HD
ENDBRANCH  14  19
ENDBRANCH   8  11
BRANCH   5  22
ATOM     22  C   UNL     1      34.645 -16.553 -21.774  0.00  0.00    +0.068 C 
BRANCH  22  24
ATOM     23  N   UNL     1      34.943 -21.363 -18.809  0.00  0.00    -0.248 NA
ATOM     24  C   UNL     1      34.713 -17.821 -20.993  0.00  0.00    -0.038 C 
ATOM     25  C   UNL     1      33.544 -18.483 -20.629  0.00  0.00    +0.050 C 
ATOM     26  C   UNL     1      33.604 -19.678 -19.893  0.00  0.00    -0.004 C 
ATOM     27  C   UNL     1      35.944 -18.350 -20.624  0.00  0.00    -0.028 C 
ATOM     28  C   UNL     1      34.850 -20.221 -19.514  0.00  0.00    +0.060 C 
ATOM     29  C   UNL     1      36.003 -19.538 -19.892  0.00  0.00    +0.071 C 
ATOM     30  C   UNL     1      32.443 -20.365 -19.514  0.00  0.00    -0.001 C 
ATOM     31  C   UNL     1      32.535 -21.544 -18.786  0.00  0.00    +0.020 C 
ATOM     32  C   UNL     1      33.797 -21.996 -18.463  0.00  0.00    +0.098 C 
ENDBRANCH  22  24
ENDBRANCH   5  22
TORSDOF 4
ENDMDL
MODEL 4
REMARK VINA RESULT:     -12.0      2.789      4.671
REMARK  Name = 25145656
REMARK  4 active torsions:
REMARK  status: ('A' for Active; 'I' for Inactive)
REMARK    1  A    between atoms: C_5  and  C_22
REMARK    2  A    between atoms: C_8  and  C_11
REMARK    3  A    between atoms: C_14  and  C_19
REMARK    4  A    between atoms: C_22  and  C_24
REMARK                            x       y       z     vdW  Elec       q    Type
REMARK                         _______ _______ _______ _____ _____    ______ ____
ROOT
ATOM      1  N   UNL     1      33.810 -16.850 -22.286  0.00  0.00    -0.134 N 
ATOM      2  N   UNL     1      33.755 -17.606 -21.167  0.00  0.00    -0.168 NA
ATOM      3  N   UNL     1      33.918 -16.300 -24.432  0.00  0.00    -0.178 NA
ATOM      4  N   UNL     1      33.960 -18.644 -23.831  0.00  0.00    -0.200 NA
ATOM      5  C   UNL     1      33.779 -15.482 -22.330  0.00  0.00    +0.086 C 
ATOM      6  C   UNL     1      33.898 -17.312 -23.584  0.00  0.00    +0.114 C 
ATOM      7  C   UNL     1      33.846 -15.167 -23.664  0.00  0.00    +0.124 C 
ATOM      8  C   UNL     1      33.790 -18.886 -21.384  0.00  0.00    +0.103 C 
ATOM      9  C   UNL     1      33.916 -19.413 -22.793  0.00  0.00    +0.184 C 
ENDROOT
BRANCH   8  11
ATOM     10  F   UNL     1      35.953 -21.673 -18.051  0.00  0.00    -0.204 F 
ATOM     11  C   UNL     1      33.717 -19.836 -20.250  0.00  0.00    +0.019 C 
ATOM     12  C   UNL     1      34.889 -20.320 -19.670  0.00  0.00    +0.031 C 
ATOM     13  C   UNL     1      32.475 -20.244 -19.761  0.00  0.00    +0.002 C 
ATOM     14  C   UNL     1      33.579 -21.624 -18.113  0.00  0.00    +0.081 C 
ATOM     15  C   UNL     1      34.820 -21.214 -18.601  0.00  0.00    +0.144 C 
ATOM     16  C   UNL     1      32.407 -21.139 -18.693  0.00  0.00    +0.007 C 
BRANCH  14  19
ATOM     17  O   UNL     1      32.817 -23.589 -17.085  0.00  0.00    -0.270 OA
ATOM     18  N   UNL     1      34.247 -22.240 -15.856  0.00  0.00    -0.299 N 
ATOM     19  C   UNL     1      33.503 -22.555 -16.999  0.00  0.00    +0.248 C 
ATOM     20  C   UNL     1      34.294 -23.075 -14.677  0.00  0.00    +0.111 C 
ATOM     21  H   UNL     1      34.768 -21.404 -15.854  0.00  0.00    +0.150 HD
ENDBRANCH  14  19
ENDBRANCH   8  11
BRANCH   5  22
ATOM     22  C   UNL     1      33.686 -14.609 -21.095  0.00  0.00    +0.068 C 
BRANCH  22  24
ATOM     23  N   UNL     1      31.162  -9.620 -21.969  0.00  0.00    -0.248 NA
ATOM     24  C   UNL     1      33.028 -13.293 -21.332  0.00  0.00    -0.038 C 
ATOM     25  C   UNL     1      33.506 -12.439 -22.323  0.00  0.00    +0.050 C 
ATOM     26  C   UNL     1      32.888 -11.198 -22.550  0.00  0.00    -0.004 C 
ATOM     27  C   UNL     1      31.933 -12.910 -20.567  0.00  0.00    -0.028 C 
ATOM     28  C   UNL     1      31.776 -10.802 -21.777  0.00  0.00    +0.060 C 
ATOM     29  C   UNL     1      31.319 -11.675 -20.793  0.00  0.00    +0.071 C 
ATOM     30  C   UNL     1      33.348 -10.321 -23.541  0.00  0.00    -0.001 C 
ATOM     31  C   UNL     1      32.717  -9.101 -23.741  0.00  0.00    +0.020 C 
ATOM     32  C   UNL     1      31.638  -8.802 -22.936  0.00  0.00    +0.098 C 
ENDBRANCH  22  24
ENDBRANCH   5  22
TORSDOF 4
ENDMDL
MODEL 5
REMARK VINA RESULT:     -11.6      3.495     10.106
REMARK  Name = 25145656
REMARK  4 active torsions:
REMARK  status: ('A' for Active; 'I' for Inactive)
REMARK    1  A    between atoms: C_5  and  C_22
REMARK    2  A    between atoms: C_8  and  C_11
REMARK    3  A    between atoms: C_14  and  C_19
REMARK    4  A    between atoms: C_22  and  C_24
REMARK                            x       y       z     vdW  Elec       q    Type
REMARK                         _______ _______ _______ _____ _____    ______ ____
ROOT
ATOM      1  N   UNL     1      33.521 -15.375 -23.134  0.00  0.00    -0.134 N 
ATOM      2  N   UNL     1      33.245 -14.211 -22.507  0.00  0.00    -0.168 NA
ATOM      3  N   UNL     1      33.664 -16.903 -24.737  0.00  0.00    -0.178 NA
ATOM      4  N   UNL     1      32.621 -14.779 -25.246  0.00  0.00    -0.200 NA
ATOM      5  C   UNL     1      34.136 -16.461 -22.571  0.00  0.00    +0.086 C 
ATOM      6  C   UNL     1      33.247 -15.682 -24.452  0.00  0.00    +0.114 C 
ATOM      7  C   UNL     1      34.213 -17.389 -23.579  0.00  0.00    +0.124 C 
ATOM      8  C   UNL     1      32.665 -13.323 -23.259  0.00  0.00    +0.103 C 
ATOM      9  C   UNL     1      32.328 -13.648 -24.694  0.00  0.00    +0.184 C 
ENDROOT
BRANCH   8  11
ATOM     10  F   UNL     1      30.445 -10.558 -19.946  0.00  0.00    -0.204 F 
ATOM     11  C   UNL     1      32.322 -11.991 -22.708  0.00  0.00    +0.019 C 
ATOM     12  C   UNL     1      31.530 -11.894 -21.565  0.00  0.00    +0.031 C 
ATOM     13  C   UNL     1      32.793 -10.836 -23.332  0.00  0.00    +0.002 C 
ATOM     14  C   UNL     1      31.677  -9.484 -21.670  0.00  0.00    +0.081 C 
ATOM     15  C   UNL     1      31.207 -10.640 -21.046  0.00  0.00    +0.144 C 
ATOM     16  C   UNL     1      32.470  -9.583 -22.813  0.00  0.00    +0.007 C 
BRANCH  14  19
ATOM     17  O   UNL     1      30.451  -7.485 -21.655  0.00  0.00    -0.270 OA
ATOM     18  N   UNL     1      32.053  -7.754 -20.001  0.00  0.00    -0.299 N 
ATOM     19  C   UNL     1      31.344  -8.175 -21.132  0.00  0.00    +0.248 C 
ATOM     20  C   UNL     1      31.821  -6.492 -19.336  0.00  0.00    +0.111 C 
ATOM     21  H   UNL     1      32.747  -8.350 -19.637  0.00  0.00    +0.150 HD
ENDBRANCH  14  19
ENDBRANCH   8  11
BRANCH   5  22
ATOM     22  C   UNL     1      34.591 -16.507 -21.126  0.00  0.00    +0.068 C 
BRANCH  22  24
ATOM     23  N   UNL     1      34.814 -21.722 -18.942  0.00  0.00    -0.248 NA
ATOM     24  C   UNL     1      34.640 -17.881 -20.550  0.00  0.00    -0.038 C 
ATOM     25  C   UNL     1      33.460 -18.553 -20.241  0.00  0.00    +0.050 C 
ATOM     26  C   UNL     1      33.501 -19.848 -19.699  0.00  0.00    -0.004 C 
ATOM     27  C   UNL     1      35.862 -18.500 -20.319  0.00  0.00    -0.028 C 
ATOM     28  C   UNL     1      34.739 -20.483 -19.461  0.00  0.00    +0.060 C 
ATOM     29  C   UNL     1      35.903 -19.788 -19.780  0.00  0.00    +0.071 C 
ATOM     30  C   UNL     1      32.330 -20.547 -19.379  0.00  0.00    -0.001 C 
ATOM     31  C   UNL     1      32.404 -21.826 -18.844  0.00  0.00    +0.020 C 
ATOM     32  C   UNL     1      33.659 -22.363 -18.647  0.00  0.00    +0.098 C 
ENDBRANCH  22  24
ENDBRANCH   5  22
TORSDOF 4
ENDMDL
MODEL 6
REMARK VINA RESULT:     -11.3      4.997     10.259
REMARK  Name = 25145656
REMARK  4 active torsions:
REMARK  status: ('A' for Active; 'I' for Inactive)
REMARK    1  A    between atoms: C_5  and  C_22
REMARK    2  A    between atoms: C_8  and  C_11
REMARK    3  A    between atoms: C_14  and  C_19
REMARK    4  A    between atoms: C_22  and  C_24
REMARK                            x       y       z     vdW  Elec       q    Type
REMARK                         _______ _______ _______ _____ _____    ______ ____
ROOT
ATOM      1  N   UNL     1      31.247  -8.942 -20.190  0.00  0.00    -0.134 N 
ATOM      2  N   UNL     1      31.577  -8.609 -21.457  0.00  0.00    -0.168 NA
ATOM      3  N   UNL     1      31.014  -8.809 -17.988  0.00  0.00    -0.178 NA
ATOM      4  N   UNL     1      32.108  -6.991 -19.152  0.00  0.00    -0.200 NA
ATOM      5  C   UNL     1      30.614 -10.093 -19.804  0.00  0.00    +0.086 C 
ATOM      6  C   UNL     1      31.476  -8.186 -19.057  0.00  0.00    +0.114 C 
ATOM      7  C   UNL     1      30.481  -9.987 -18.443  0.00  0.00    +0.124 C 
ATOM      8  C   UNL     1      32.163  -7.455 -21.572  0.00  0.00    +0.103 C 
ATOM      9  C   UNL     1      32.450  -6.625 -20.344  0.00  0.00    +0.184 C 
ENDROOT
BRANCH   8  11
ATOM     10  F   UNL     1      31.342  -6.972 -26.330  0.00  0.00    -0.204 F 
ATOM     11  C   UNL     1      32.562  -6.952 -22.907  0.00  0.00    +0.019 C 
ATOM     12  C   UNL     1      31.752  -7.201 -24.015  0.00  0.00    +0.031 C 
ATOM     13  C   UNL     1      33.745  -6.229 -23.055  0.00  0.00    +0.002 C 
ATOM     14  C   UNL     1      33.311  -6.004 -25.421  0.00  0.00    +0.081 C 
ATOM     15  C   UNL     1      32.127  -6.727 -25.272  0.00  0.00    +0.144 C 
ATOM     16  C   UNL     1      34.120  -5.756 -24.312  0.00  0.00    +0.007 C 
BRANCH  14  19
ATOM     17  O   UNL     1      33.206  -4.464 -27.186  0.00  0.00    -0.270 OA
ATOM     18  N   UNL     1      34.675  -6.242 -27.422  0.00  0.00    -0.299 N 
ATOM     19  C   UNL     1      33.705  -5.508 -26.729  0.00  0.00    +0.248 C 
ATOM     20  C   UNL     1      35.188  -5.865 -28.720  0.00  0.00    +0.111 C 
ATOM     21  H   UNL     1      35.028  -7.060 -27.002  0.00  0.00    +0.150 HD
ENDBRANCH  14  19
ENDBRANCH   8  11
BRANCH   5  22
ATOM     22  C   UNL     1      30.197 -11.182 -20.773  0.00  0.00    +0.068 C 
BRANCH  22  24
ATOM     23  N   UNL     1      33.934 -15.412 -21.184  0.00  0.00    -0.248 NA
ATOM     24  C   UNL     1      31.182 -12.295 -20.891  0.00  0.00    -0.038 C 
ATOM     25  C   UNL     1      31.649 -12.687 -22.143  0.00  0.00    +0.050 C 
ATOM     26  C   UNL     1      32.577 -13.735 -22.259  0.00  0.00    -0.004 C 
ATOM     27  C   UNL     1      31.640 -12.948 -19.753  0.00  0.00    -0.028 C 
ATOM     28  C   UNL     1      33.046 -14.403 -21.108  0.00  0.00    +0.060 C 
ATOM     29  C   UNL     1      32.562 -13.991 -19.869  0.00  0.00    +0.071 C 
ATOM     30  C   UNL     1      33.064 -14.149 -23.506  0.00  0.00    -0.001 C 
ATOM     31  C   UNL     1      33.980 -15.189 -23.587  0.00  0.00    +0.020 C 
ATOM     32  C   UNL     1      34.379 -15.781 -22.407  0.00  0.00    +0.098 C 
ENDBRANCH  22  24
ENDBRANCH   5  22
TORSDOF 4
ENDMDL
MODEL 7
REMARK VINA RESULT:     -11.3      4.713     10.625
REMARK  Name = 25145656
REMARK  4 active torsions:
REMARK  status: ('A' for Active; 'I' for Inactive)
REMARK    1  A    between atoms: C_5  and  C_22
REMARK    2  A    between atoms: C_8  and  C_11
REMARK    3  A    between atoms: C_14  and  C_19
REMARK    4  A    between atoms: C_22  and  C_24
REMARK                            x       y       z     vdW  Elec       q    Type
REMARK                         _______ _______ _______ _____ _____    ______ ____
ROOT
ATOM      1  N   UNL     1      32.055 -11.208 -21.943  0.00  0.00    -0.134 N 
ATOM      2  N   UNL     1      32.562 -10.214 -22.704  0.00  0.00    -0.168 NA
ATOM      3  N   UNL     1      30.824 -12.256 -20.423  0.00  0.00    -0.178 NA
ATOM      4  N   UNL     1      30.588  -9.858 -20.656  0.00  0.00    -0.200 NA
ATOM      5  C   UNL     1      32.396 -12.531 -22.023  0.00  0.00    +0.086 C 
ATOM      6  C   UNL     1      31.097 -11.079 -20.956  0.00  0.00    +0.114 C 
ATOM      7  C   UNL     1      31.624 -13.157 -21.076  0.00  0.00    +0.124 C 
ATOM      8  C   UNL     1      32.070  -9.039 -22.447  0.00  0.00    +0.103 C 
ATOM      9  C   UNL     1      31.044  -8.869 -21.352  0.00  0.00    +0.184 C 
ENDROOT
BRANCH   8  11
ATOM     10  F   UNL     1      31.776  -6.176 -26.354  0.00  0.00    -0.204 F 
ATOM     11  C   UNL     1      32.520  -7.858 -23.220  0.00  0.00    +0.019 C 
ATOM     12  C   UNL     1      31.929  -7.563 -24.448  0.00  0.00    +0.031 C 
ATOM     13  C   UNL     1      33.535  -7.042 -22.719  0.00  0.00    +0.002 C 
ATOM     14  C   UNL     1      33.367  -5.635 -24.676  0.00  0.00    +0.081 C 
ATOM     15  C   UNL     1      32.352  -6.451 -25.175  0.00  0.00    +0.144 C 
ATOM     16  C   UNL     1      33.958  -5.931 -23.448  0.00  0.00    +0.007 C 
BRANCH  14  19
ATOM     17  O   UNL     1      33.115  -3.444 -25.474  0.00  0.00    -0.270 OA
ATOM     18  N   UNL     1      35.050  -4.571 -26.074  0.00  0.00    -0.299 N 
ATOM     19  C   UNL     1      33.810  -4.474 -25.431  0.00  0.00    +0.248 C 
ATOM     20  C   UNL     1      35.638  -3.497 -26.842  0.00  0.00    +0.111 C 
ATOM     21  H   UNL     1      35.549  -5.416 -26.000  0.00  0.00    +0.150 HD
ENDBRANCH  14  19
ENDBRANCH   8  11
BRANCH   5  22
ATOM     22  C   UNL     1      33.426 -13.070 -22.996  0.00  0.00    +0.068 C 
BRANCH  22  24
ATOM     23  N   UNL     1      33.747 -18.718 -23.124  0.00  0.00    -0.248 NA
ATOM     24  C   UNL     1      33.514 -14.559 -23.020  0.00  0.00    -0.038 C 
ATOM     25  C   UNL     1      34.017 -15.248 -21.921  0.00  0.00    +0.050 C 
ATOM     26  C   UNL     1      34.102 -16.650 -21.939  0.00  0.00    -0.004 C 
ATOM     27  C   UNL     1      33.095 -15.266 -24.141  0.00  0.00    -0.028 C 
ATOM     28  C   UNL     1      33.679 -17.375 -23.073  0.00  0.00    +0.060 C 
ATOM     29  C   UNL     1      33.180 -16.660 -24.159  0.00  0.00    +0.071 C 
ATOM     30  C   UNL     1      34.603 -17.369 -20.846  0.00  0.00    -0.001 C 
ATOM     31  C   UNL     1      34.674 -18.755 -20.896  0.00  0.00    +0.020 C 
ATOM     32  C   UNL     1      34.237 -19.375 -22.047  0.00  0.00    +0.098 C 
ENDBRANCH  22  24
ENDBRANCH   5  22
TORSDOF 4
ENDMDL
MODEL 8
REMARK VINA RESULT:     -11.1      5.502     10.046
REMARK  Name = 25145656
REMARK  4 active torsions:
REMARK  status: ('A' for Active; 'I' for Inactive)
REMARK    1  A    between atoms: C_5  and  C_22
REMARK    2  A    between atoms: C_8  and  C_11
REMARK    3  A    between atoms: C_14  and  C_19
REMARK    4  A    between atoms: C_22  and  C_24
REMARK                            x       y       z     vdW  Elec       q    Type
REMARK                         _______ _______ _______ _____ _____    ______ ____
ROOT
ATOM      1  N   UNL     1      33.162 -21.159 -18.374  0.00  0.00    -0.134 N 
ATOM      2  N   UNL     1      34.219 -21.610 -17.663  0.00  0.00    -0.168 NA
ATOM      3  N   UNL     1      31.065 -20.812 -19.008  0.00  0.00    -0.178 NA
ATOM      4  N   UNL     1      31.479 -22.226 -17.088  0.00  0.00    -0.200 NA
ATOM      5  C   UNL     1      33.226 -20.345 -19.473  0.00  0.00    +0.086 C 
ATOM      6  C   UNL     1      31.831 -21.424 -18.123  0.00  0.00    +0.114 C 
ATOM      7  C   UNL     1      31.921 -20.145 -19.845  0.00  0.00    +0.124 C 
ATOM      8  C   UNL     1      33.901 -22.362 -16.652  0.00  0.00    +0.103 C 
ATOM      9  C   UNL     1      32.453 -22.690 -16.376  0.00  0.00    +0.184 C 
ENDROOT
BRANCH   8  11
ATOM     10  F   UNL     1      35.410 -25.589 -13.357  0.00  0.00    -0.204 F 
ATOM     11  C   UNL     1      34.958 -22.910 -15.771  0.00  0.00    +0.019 C 
ATOM     12  C   UNL     1      34.686 -24.013 -14.961  0.00  0.00    +0.031 C 
ATOM     13  C   UNL     1      36.223 -22.325 -15.752  0.00  0.00    +0.002 C 
ATOM     14  C   UNL     1      36.947 -23.944 -14.111  0.00  0.00    +0.081 C 
ATOM     15  C   UNL     1      35.682 -24.529 -14.131  0.00  0.00    +0.144 C 
ATOM     16  C   UNL     1      37.218 -22.842 -14.922  0.00  0.00    +0.007 C 
BRANCH  14  19
ATOM     17  O   UNL     1      38.064 -24.130 -12.057  0.00  0.00    -0.270 OA
ATOM     18  N   UNL     1      38.866 -25.410 -13.816  0.00  0.00    -0.299 N 
ATOM     19  C   UNL     1      37.988 -24.480 -13.248  0.00  0.00    +0.248 C 
ATOM     20  C   UNL     1      39.935 -26.050 -13.083  0.00  0.00    +0.111 C 
ATOM     21  H   UNL     1      38.750 -25.643 -14.765  0.00  0.00    +0.150 HD
ENDBRANCH  14  19
ENDBRANCH   8  11
BRANCH   5  22
ATOM     22  C   UNL     1      34.528 -19.836 -20.060  0.00  0.00    +0.068 C 
BRANCH  22  24
ATOM     23  N   UNL     1      33.849 -16.325 -24.445  0.00  0.00    -0.248 NA
ATOM     24  C   UNL     1      34.349 -18.903 -21.209  0.00  0.00    -0.038 C 
ATOM     25  C   UNL     1      34.263 -17.531 -20.990  0.00  0.00    +0.050 C 
ATOM     26  C   UNL     1      34.095 -16.648 -22.070  0.00  0.00    -0.004 C 
ATOM     27  C   UNL     1      34.267 -19.397 -22.505  0.00  0.00    -0.028 C 
ATOM     28  C   UNL     1      34.010 -17.143 -23.389  0.00  0.00    +0.060 C 
ATOM     29  C   UNL     1      34.099 -18.519 -23.578  0.00  0.00    +0.071 C 
ATOM     30  C   UNL     1      34.007 -15.263 -21.878  0.00  0.00    -0.001 C 
ATOM     31  C   UNL     1      33.840 -14.417 -22.966  0.00  0.00    +0.020 C 
ATOM     32  C   UNL     1      33.768 -14.993 -24.217  0.00  0.00    +0.098 C 
ENDBRANCH  22  24
ENDBRANCH   5  22
TORSDOF 4
ENDMDL
MODEL 9
REMARK VINA RESULT:     -10.9      4.362     11.890
REMARK  Name = 25145656
REMARK  4 active torsions:
REMARK  status: ('A' for Active; 'I' for Inactive)
REMARK    1  A    between atoms: C_5  and  C_22
REMARK    2  A    between atoms: C_8  and  C_11
REMARK    3  A    between atoms: C_14  and  C_19
REMARK    4  A    between atoms: C_22  and  C_24
REMARK                            x       y       z     vdW  Elec       q    Type
REMARK                         _______ _______ _______ _____ _____    ______ ____
ROOT
ATOM      1  N   UNL     1      34.609 -20.031 -19.485  0.00  0.00    -0.134 N 
ATOM      2  N   UNL     1      33.949 -19.317 -20.423  0.00  0.00    -0.168 NA
ATOM      3  N   UNL     1      36.254 -20.754 -18.184  0.00  0.00    -0.178 NA
ATOM      4  N   UNL     1      36.732 -19.024 -19.807  0.00  0.00    -0.200 NA
ATOM      5  C   UNL     1      34.064 -20.998 -18.685  0.00  0.00    +0.086 C 
ATOM      6  C   UNL     1      35.944 -19.911 -19.152  0.00  0.00    +0.114 C 
ATOM      7  C   UNL     1      35.097 -21.428 -17.891  0.00  0.00    +0.124 C 
ATOM      8  C   UNL     1      34.683 -18.445 -21.047  0.00  0.00    +0.103 C 
ATOM      9  C   UNL     1      36.151 -18.318 -20.721  0.00  0.00    +0.184 C 
ENDROOT
BRANCH   8  11
ATOM     10  F   UNL     1      33.662 -14.040 -22.811  0.00  0.00    -0.204 F 
ATOM     11  C   UNL     1      34.085 -17.577 -22.088  0.00  0.00    +0.019 C 
ATOM     12  C   UNL     1      34.153 -16.190 -21.962  0.00  0.00    +0.031 C 
ATOM     13  C   UNL     1      33.455 -18.148 -23.194  0.00  0.00    +0.002 C 
ATOM     14  C   UNL     1      32.959 -15.942 -24.048  0.00  0.00    +0.081 C 
ATOM     15  C   UNL     1      33.590 -15.373 -22.942  0.00  0.00    +0.144 C 
ATOM     16  C   UNL     1      32.892 -17.330 -24.174  0.00  0.00    +0.007 C 
BRANCH  14  19
ATOM     17  O   UNL     1      31.626 -15.578 -25.942  0.00  0.00    -0.270 OA
ATOM     18  N   UNL     1      32.669 -13.728 -25.013  0.00  0.00    -0.299 N 
ATOM     19  C   UNL     1      32.372 -15.094 -25.073  0.00  0.00    +0.248 C 
ATOM     20  C   UNL     1      32.144 -12.754 -25.944  0.00  0.00    +0.111 C 
ATOM     21  H   UNL     1      33.268 -13.411 -24.298  0.00  0.00    +0.150 HD
ENDBRANCH  14  19
ENDBRANCH   8  11
BRANCH   5  22
ATOM     22  C   UNL     1      32.609 -21.418 -18.756  0.00  0.00    +0.068 C 
BRANCH  22  24
ATOM     23  N   UNL     1      30.699 -23.779 -13.981  0.00  0.00    -0.248 NA
ATOM     24  C   UNL     1      32.096 -22.037 -17.499  0.00  0.00    -0.038 C 
ATOM     25  C   UNL     1      30.753 -21.915 -17.156  0.00  0.00    +0.050 C 
ATOM     26  C   UNL     1      30.266 -22.496 -15.974  0.00  0.00    -0.004 C 
ATOM     27  C   UNL     1      32.957 -22.739 -16.664  0.00  0.00    -0.028 C 
ATOM     28  C   UNL     1      31.133 -23.210 -15.120  0.00  0.00    +0.060 C 
ATOM     29  C   UNL     1      32.472 -23.317 -15.488  0.00  0.00    +0.071 C 
ATOM     30  C   UNL     1      28.918 -22.390 -15.605  0.00  0.00    -0.001 C 
ATOM     31  C   UNL     1      28.468 -22.975 -14.430  0.00  0.00    +0.020 C 
ATOM     32  C   UNL     1      29.390 -23.653 -13.660  0.00  0.00    +0.098 C 
ENDBRANCH  22  24
ENDBRANCH   5  22
TORSDOF 4
ENDMDL
