MODEL 1
REMARK VINA RESULT:     -11.4      0.000      0.000
REMARK  Name = 24878044
REMARK  6 active torsions:
REMARK  status: ('A' for Active; 'I' for Inactive)
REMARK    1  A    between atoms: N_2  and  C_6
REMARK    2  A    between atoms: C_3  and  C_18
REMARK    3  A    between atoms: C_7  and  S_12
REMARK    4  A    between atoms: S_12  and  N_15
REMARK    5  A    between atoms: C_18  and  S_19
REMARK    6  A    between atoms: S_19  and  C_31
REMARK                            x       y       z     vdW  Elec       q    Type
REMARK                         _______ _______ _______ _____ _____    ______ ____
ROOT
ATOM      1  O   UNL     1      33.299 -18.509 -23.779  0.00  0.00    -0.274 OA
ATOM      2  N   UNL     1      34.228 -17.756 -21.755  0.00  0.00    -0.283 N 
ATOM      3  C   UNL     1      33.877 -17.666 -23.098  0.00  0.00    +0.238 C 
ATOM      4  H   UNL     1      34.702 -16.981 -21.377  0.00  0.00    +0.155 HD
ENDROOT
BRANCH   2   6
ATOM      5 CL   UNL     1      36.661 -18.970 -20.379  0.00  0.00    -0.081 Cl
ATOM      6  C   UNL     1      33.980 -18.834 -20.871  0.00  0.00    +0.061 C 
ATOM      7  C   UNL     1      33.422 -20.950 -19.142  0.00  0.00    +0.123 C 
ATOM      8  C   UNL     1      35.017 -19.466 -20.186  0.00  0.00    +0.072 C 
ATOM      9  C   UNL     1      32.663 -19.260 -20.692  0.00  0.00    +0.017 C 
ATOM     10  C   UNL     1      34.738 -20.524 -19.321  0.00  0.00    +0.033 C 
ATOM     11  C   UNL     1      32.384 -20.318 -19.827  0.00  0.00    +0.021 C 
BRANCH   7  12
ATOM     12  S   UNL     1      33.073 -22.275 -18.060  0.00  0.00    +0.057 S 
ATOM     13  O   UNL     1      32.993 -23.499 -18.843  0.00  0.00    -0.153 OA
ATOM     14  O   UNL     1      33.983 -22.198 -16.926  0.00  0.00    -0.153 OA
BRANCH  12  15
ATOM     15  N   UNL     1      31.502 -21.857 -17.531  0.00  0.00    -0.203 NA
ATOM     16  H   UNL     1      31.001 -21.393 -18.289  0.00  0.00    +0.144 HD
ATOM     17  H   UNL     1      31.568 -21.228 -16.731  0.00  0.00    +0.144 HD
ENDBRANCH  12  15
ENDBRANCH   7  12
ENDBRANCH   2   6
BRANCH   3  18
ATOM     18  C   UNL     1      34.314 -16.353 -23.711  0.00  0.00    +0.152 C 
BRANCH  18  19
ATOM     19  S   UNL     1      32.860 -15.309 -23.954  0.00  0.00    -0.047 S 
BRANCH  19  31
ATOM     20  O   UNL     1      33.247 -14.789 -21.431  0.00  0.00    -0.262 OA
ATOM     21  N   UNL     1      32.606 -12.919 -22.703  0.00  0.00    -0.250 N 
ATOM     22  C   UNL     1      33.400 -10.817 -23.775  0.00  0.00    +0.027 C 
ATOM     23  C   UNL     1      32.375  -9.992 -23.026  0.00  0.00    +0.029 C 
ATOM     24  C   UNL     1      32.866 -12.224 -23.982  0.00  0.00    +0.099 C 
ATOM     25  C   UNL     1      31.886 -10.716 -21.799  0.00  0.00    -0.009 C 
ATOM     26  C   UNL     1      31.994 -12.119 -21.657  0.00  0.00    +0.051 C 
ATOM     27  C   UNL     1      31.268  -9.945 -20.796  0.00  0.00    -0.007 C 
ATOM     28  C   UNL     1      31.449 -12.699 -20.496  0.00  0.00    +0.014 C 
ATOM     29  C   UNL     1      30.761 -10.543 -19.649  0.00  0.00    -0.022 C 
ATOM     30  C   UNL     1      30.848 -11.920 -19.502  0.00  0.00    -0.003 C 
ATOM     31  C   UNL     1      32.936 -14.280 -22.504  0.00  0.00    +0.280 C 
ATOM     32  C   UNL     1      30.143  -9.710 -18.579  0.00  0.00    +0.031 C 
ENDBRANCH  19  31
ENDBRANCH  18  19
ENDBRANCH   3  18
TORSDOF 6
ENDMDL
MODEL 2
REMARK VINA RESULT:     -11.3      1.142      2.405
REMARK  Name = 24878044
REMARK  6 active torsions:
REMARK  status: ('A' for Active; 'I' for Inactive)
REMARK    1  A    between atoms: N_2  and  C_6
REMARK    2  A    between atoms: C_3  and  C_18
REMARK    3  A    between atoms: C_7  and  S_12
REMARK    4  A    between atoms: S_12  and  N_15
REMARK    5  A    between atoms: C_18  and  S_19
REMARK    6  A    between atoms: S_19  and  C_31
REMARK                            x       y       z     vdW  Elec       q    Type
REMARK                         _______ _______ _______ _____ _____    ______ ____
ROOT
ATOM      1  O   UNL     1      33.803 -19.355 -23.440  0.00  0.00    -0.274 OA
ATOM      2  N   UNL     1      33.799 -18.258 -21.361  0.00  0.00    -0.283 N 
ATOM      3  C   UNL     1      33.874 -18.343 -22.747  0.00  0.00    +0.238 C 
ATOM      4  H   UNL     1      33.891 -17.357 -20.975  0.00  0.00    +0.155 HD
ENDROOT
BRANCH   2   6
ATOM      5 CL   UNL     1      36.303 -19.392 -20.047  0.00  0.00    -0.081 Cl
ATOM      6  C   UNL     1      33.605 -19.317 -20.443  0.00  0.00    +0.061 C 
ATOM      7  C   UNL     1      33.151 -21.400 -18.644  0.00  0.00    +0.123 C 
ATOM      8  C   UNL     1      34.678 -19.913 -19.782  0.00  0.00    +0.072 C 
ATOM      9  C   UNL     1      32.304 -19.763 -20.205  0.00  0.00    +0.017 C 
ATOM     10  C   UNL     1      34.451 -20.954 -18.882  0.00  0.00    +0.033 C 
ATOM     11  C   UNL     1      32.077 -20.805 -19.305  0.00  0.00    +0.021 C 
BRANCH   7  12
ATOM     12  S   UNL     1      32.867 -22.704 -17.518  0.00  0.00    +0.057 S 
ATOM     13  O   UNL     1      32.766 -23.947 -18.270  0.00  0.00    -0.153 OA
ATOM     14  O   UNL     1      33.827 -22.592 -16.429  0.00  0.00    -0.153 OA
BRANCH  12  15
ATOM     15  N   UNL     1      31.317 -22.291 -16.927  0.00  0.00    -0.203 NA
ATOM     16  H   UNL     1      30.620 -22.910 -17.342  0.00  0.00    +0.144 HD
ATOM     17  H   UNL     1      31.105 -21.325 -17.174  0.00  0.00    +0.144 HD
ENDBRANCH  12  15
ENDBRANCH   7  12
ENDBRANCH   2   6
BRANCH   3  18
ATOM     18  C   UNL     1      34.089 -16.988 -23.387  0.00  0.00    +0.152 C 
BRANCH  18  19
ATOM     19  S   UNL     1      34.114 -15.728 -22.093  0.00  0.00    -0.047 S 
BRANCH  19  31
ATOM     20  O   UNL     1      33.129 -14.423 -24.120  0.00  0.00    -0.262 OA
ATOM     21  N   UNL     1      32.768 -13.377 -22.046  0.00  0.00    -0.250 N 
ATOM     22  C   UNL     1      31.086 -12.894 -20.275  0.00  0.00    +0.027 C 
ATOM     23  C   UNL     1      31.331 -11.404 -20.383  0.00  0.00    +0.029 C 
ATOM     24  C   UNL     1      32.351 -13.646 -20.653  0.00  0.00    +0.099 C 
ATOM     25  C   UNL     1      31.957 -11.050 -21.706  0.00  0.00    -0.009 C 
ATOM     26  C   UNL     1      32.649 -12.000 -22.491  0.00  0.00    +0.051 C 
ATOM     27  C   UNL     1      31.867  -9.710 -22.126  0.00  0.00    -0.007 C 
ATOM     28  C   UNL     1      33.248 -11.547 -23.682  0.00  0.00    +0.014 C 
ATOM     29  C   UNL     1      32.447  -9.296 -23.320  0.00  0.00    -0.022 C 
ATOM     30  C   UNL     1      33.141 -10.215 -24.094  0.00  0.00    -0.003 C 
ATOM     31  C   UNL     1      33.249 -14.398 -22.899  0.00  0.00    +0.280 C 
ATOM     32  C   UNL     1      32.311  -7.882 -23.771  0.00  0.00    +0.031 C 
ENDBRANCH  19  31
ENDBRANCH  18  19
ENDBRANCH   3  18
TORSDOF 6
ENDMDL
MODEL 3
REMARK VINA RESULT:     -10.6      5.864     11.925
REMARK  Name = 24878044
REMARK  6 active torsions:
REMARK  status: ('A' for Active; 'I' for Inactive)
REMARK    1  A    between atoms: N_2  and  C_6
REMARK    2  A    between atoms: C_3  and  C_18
REMARK    3  A    between atoms: C_7  and  S_12
REMARK    4  A    between atoms: S_12  and  N_15
REMARK    5  A    between atoms: C_18  and  S_19
REMARK    6  A    between atoms: S_19  and  C_31
REMARK                            x       y       z     vdW  Elec       q    Type
REMARK                         _______ _______ _______ _____ _____    ______ ____
ROOT
ATOM      1  O   UNL     1      30.953 -21.773 -17.095  0.00  0.00    -0.274 OA
ATOM      2  N   UNL     1      33.202 -22.282 -17.548  0.00  0.00    -0.283 N 
ATOM      3  C   UNL     1      31.967 -22.446 -16.931  0.00  0.00    +0.238 C 
ATOM      4  H   UNL     1      33.909 -22.913 -17.282  0.00  0.00    +0.155 HD
ENDROOT
BRANCH   2   6
ATOM      5 CL   UNL     1      36.151 -21.528 -17.691  0.00  0.00    -0.081 Cl
ATOM      6  C   UNL     1      33.559 -21.312 -18.516  0.00  0.00    +0.061 C 
ATOM      7  C   UNL     1      34.194 -19.398 -20.443  0.00  0.00    +0.123 C 
ATOM      8  C   UNL     1      34.879 -20.891 -18.671  0.00  0.00    +0.072 C 
ATOM      9  C   UNL     1      32.556 -20.776 -19.324  0.00  0.00    +0.017 C 
ATOM     10  C   UNL     1      35.197 -19.934 -19.635  0.00  0.00    +0.033 C 
ATOM     11  C   UNL     1      32.874 -19.819 -20.288  0.00  0.00    +0.021 C 
BRANCH   7  12
ATOM     12  S   UNL     1      34.592 -18.200 -21.649  0.00  0.00    +0.057 S 
ATOM     13  O   UNL     1      34.105 -18.667 -22.939  0.00  0.00    -0.153 OA
ATOM     14  O   UNL     1      34.187 -16.892 -21.153  0.00  0.00    -0.153 OA
BRANCH  12  15
ATOM     15  N   UNL     1      36.299 -18.285 -21.642  0.00  0.00    -0.203 NA
ATOM     16  H   UNL     1      36.605 -18.893 -20.882  0.00  0.00    +0.144 HD
ATOM     17  H   UNL     1      36.685 -17.351 -21.507  0.00  0.00    +0.144 HD
ENDBRANCH  12  15
ENDBRANCH   7  12
ENDBRANCH   2   6
BRANCH   3  18
ATOM     18  C   UNL     1      31.973 -23.598 -15.949  0.00  0.00    +0.152 C 
BRANCH  18  19
ATOM     19  S   UNL     1      32.081 -22.934 -14.272  0.00  0.00    -0.047 S 
BRANCH  19  31
ATOM     20  O   UNL     1      34.467 -22.043 -14.817  0.00  0.00    -0.262 OA
ATOM     21  N   UNL     1      34.410 -23.605 -13.062  0.00  0.00    -0.250 N 
ATOM     22  C   UNL     1      34.538 -23.900 -10.594  0.00  0.00    +0.027 C 
ATOM     23  C   UNL     1      35.682 -24.883 -10.723  0.00  0.00    +0.029 C 
ATOM     24  C   UNL     1      33.667 -23.967 -11.837  0.00  0.00    +0.099 C 
ATOM     25  C   UNL     1      36.383 -24.731 -12.047  0.00  0.00    -0.009 C 
ATOM     26  C   UNL     1      35.763 -24.125 -13.163  0.00  0.00    +0.051 C 
ATOM     27  C   UNL     1      37.683 -25.259 -12.155  0.00  0.00    -0.007 C 
ATOM     28  C   UNL     1      36.487 -24.090 -14.370  0.00  0.00    +0.014 C 
ATOM     29  C   UNL     1      38.384 -25.188 -13.352  0.00  0.00    -0.022 C 
ATOM     30  C   UNL     1      37.783 -24.608 -14.461  0.00  0.00    -0.003 C 
ATOM     31  C   UNL     1      33.845 -22.797 -14.076  0.00  0.00    +0.280 C 
ATOM     32  C   UNL     1      39.774 -25.717 -13.442  0.00  0.00    +0.031 C 
ENDBRANCH  19  31
ENDBRANCH  18  19
ENDBRANCH   3  18
TORSDOF 6
ENDMDL
MODEL 4
REMARK VINA RESULT:     -10.6      4.267     10.879
REMARK  Name = 24878044
REMARK  6 active torsions:
REMARK  status: ('A' for Active; 'I' for Inactive)
REMARK    1  A    between atoms: N_2  and  C_6
REMARK    2  A    between atoms: C_3  and  C_18
REMARK    3  A    between atoms: C_7  and  S_12
REMARK    4  A    between atoms: S_12  and  N_15
REMARK    5  A    between atoms: C_18  and  S_19
REMARK    6  A    between atoms: S_19  and  C_31
REMARK                            x       y       z     vdW  Elec       q    Type
REMARK                         _______ _______ _______ _____ _____    ______ ____
ROOT
ATOM      1  O   UNL     1      33.092 -19.785 -20.288  0.00  0.00    -0.274 OA
ATOM      2  N   UNL     1      34.967 -18.524 -20.933  0.00  0.00    -0.283 N 
ATOM      3  C   UNL     1      34.292 -19.527 -20.246  0.00  0.00    +0.238 C 
ATOM      4  H   UNL     1      35.934 -18.457 -20.765  0.00  0.00    +0.155 HD
ENDROOT
BRANCH   2   6
ATOM      5 CL   UNL     1      34.101 -19.621 -23.641  0.00  0.00    -0.081 Cl
ATOM      6  C   UNL     1      34.423 -17.590 -21.848  0.00  0.00    +0.061 C 
ATOM      7  C   UNL     1      33.360 -15.699 -23.600  0.00  0.00    +0.123 C 
ATOM      8  C   UNL     1      33.993 -17.979 -23.115  0.00  0.00    +0.072 C 
ATOM      9  C   UNL     1      34.322 -16.255 -21.456  0.00  0.00    +0.017 C 
ATOM     10  C   UNL     1      33.461 -17.033 -23.992  0.00  0.00    +0.033 C 
ATOM     11  C   UNL     1      33.790 -15.309 -22.332  0.00  0.00    +0.021 C 
BRANCH   7  12
ATOM     12  S   UNL     1      32.694 -14.514 -24.697  0.00  0.00    +0.057 S 
ATOM     13  O   UNL     1      31.967 -13.523 -23.918  0.00  0.00    -0.153 OA
ATOM     14  O   UNL     1      33.745 -14.089 -25.611  0.00  0.00    -0.153 OA
BRANCH  12  15
ATOM     15  N   UNL     1      31.569 -15.468 -25.561  0.00  0.00    -0.203 NA
ATOM     16  H   UNL     1      32.051 -15.967 -26.309  0.00  0.00    +0.144 HD
ATOM     17  H   UNL     1      30.850 -14.866 -25.962  0.00  0.00    +0.144 HD
ENDBRANCH  12  15
ENDBRANCH   7  12
ENDBRANCH   2   6
BRANCH   3  18
ATOM     18  C   UNL     1      35.219 -20.327 -19.356  0.00  0.00    +0.152 C 
BRANCH  18  19
ATOM     19  S   UNL     1      34.277 -21.660 -18.582  0.00  0.00    -0.047 S 
BRANCH  19  31
ATOM     20  O   UNL     1      35.962 -20.964 -16.720  0.00  0.00    -0.262 OA
ATOM     21  N   UNL     1      34.333 -22.502 -16.007  0.00  0.00    -0.250 N 
ATOM     22  C   UNL     1      32.233 -22.783 -14.700  0.00  0.00    +0.027 C 
ATOM     23  C   UNL     1      32.860 -23.855 -13.834  0.00  0.00    +0.029 C 
ATOM     24  C   UNL     1      32.885 -22.793 -16.072  0.00  0.00    +0.099 C 
ATOM     25  C   UNL     1      34.363 -23.771 -13.867  0.00  0.00    -0.009 C 
ATOM     26  C   UNL     1      35.060 -23.127 -14.916  0.00  0.00    +0.051 C 
ATOM     27  C   UNL     1      35.069 -24.401 -12.825  0.00  0.00    -0.007 C 
ATOM     28  C   UNL     1      36.466 -23.161 -14.878  0.00  0.00    +0.014 C 
ATOM     29  C   UNL     1      36.459 -24.396 -12.801  0.00  0.00    -0.022 C 
ATOM     30  C   UNL     1      37.156 -23.780 -13.831  0.00  0.00    -0.003 C 
ATOM     31  C   UNL     1      34.977 -21.661 -16.945  0.00  0.00    +0.280 C 
ATOM     32  C   UNL     1      37.193 -25.034 -11.672  0.00  0.00    +0.031 C 
ENDBRANCH  19  31
ENDBRANCH  18  19
ENDBRANCH   3  18
TORSDOF 6
ENDMDL
MODEL 5
REMARK VINA RESULT:     -10.5      3.422      5.251
REMARK  Name = 24878044
REMARK  6 active torsions:
REMARK  status: ('A' for Active; 'I' for Inactive)
REMARK    1  A    between atoms: N_2  and  C_6
REMARK    2  A    between atoms: C_3  and  C_18
REMARK    3  A    between atoms: C_7  and  S_12
REMARK    4  A    between atoms: S_12  and  N_15
REMARK    5  A    between atoms: C_18  and  S_19
REMARK    6  A    between atoms: S_19  and  C_31
REMARK                            x       y       z     vdW  Elec       q    Type
REMARK                         _______ _______ _______ _____ _____    ______ ____
ROOT
ATOM      1  O   UNL     1      35.923 -19.662 -19.286  0.00  0.00    -0.274 OA
ATOM      2  N   UNL     1      34.131 -21.029 -18.622  0.00  0.00    -0.283 N 
ATOM      3  C   UNL     1      34.797 -20.125 -19.442  0.00  0.00    +0.238 C 
ATOM      4  H   UNL     1      33.221 -21.281 -18.900  0.00  0.00    +0.155 HD
ENDROOT
BRANCH   2   6
ATOM      5 CL   UNL     1      32.095 -22.565 -16.955  0.00  0.00    -0.081 Cl
ATOM      6  C   UNL     1      34.613 -21.630 -17.434  0.00  0.00    +0.061 C 
ATOM      7  C   UNL     1      35.628 -22.790 -15.109  0.00  0.00    +0.123 C 
ATOM      8  C   UNL     1      33.771 -22.357 -16.594  0.00  0.00    +0.072 C 
ATOM      9  C   UNL     1      35.963 -21.482 -17.112  0.00  0.00    +0.017 C 
ATOM     10  C   UNL     1      34.279 -22.938 -15.431  0.00  0.00    +0.033 C 
ATOM     11  C   UNL     1      36.470 -22.062 -15.949  0.00  0.00    +0.021 C 
BRANCH   7  12
ATOM     12  S   UNL     1      36.263 -23.516 -13.653  0.00  0.00    +0.057 S 
ATOM     13  O   UNL     1      36.549 -22.455 -12.698  0.00  0.00    -0.153 OA
ATOM     14  O   UNL     1      35.396 -24.621 -13.271  0.00  0.00    -0.153 OA
BRANCH  12  15
ATOM     15  N   UNL     1      37.742 -24.153 -14.227  0.00  0.00    -0.203 NA
ATOM     16  H   UNL     1      37.726 -25.170 -14.149  0.00  0.00    +0.144 HD
ATOM     17  H   UNL     1      38.511 -23.780 -13.671  0.00  0.00    +0.144 HD
ENDBRANCH  12  15
ENDBRANCH   7  12
ENDBRANCH   2   6
BRANCH   3  18
ATOM     18  C   UNL     1      33.951 -19.706 -20.626  0.00  0.00    +0.152 C 
BRANCH  18  19
ATOM     19  S   UNL     1      34.979 -18.758 -21.770  0.00  0.00    -0.047 S 
BRANCH  19  31
ATOM     20  O   UNL     1      32.971 -18.228 -23.342  0.00  0.00    -0.262 OA
ATOM     21  N   UNL     1      33.796 -16.356 -22.184  0.00  0.00    -0.250 N 
ATOM     22  C   UNL     1      33.383 -14.785 -20.298  0.00  0.00    +0.027 C 
ATOM     23  C   UNL     1      33.463 -13.585 -21.217  0.00  0.00    +0.029 C 
ATOM     24  C   UNL     1      34.246 -15.907 -20.849  0.00  0.00    +0.099 C 
ATOM     25  C   UNL     1      33.220 -13.981 -22.649  0.00  0.00    -0.009 C 
ATOM     26  C   UNL     1      33.390 -15.309 -23.104  0.00  0.00    +0.051 C 
ATOM     27  C   UNL     1      32.853 -12.962 -23.549  0.00  0.00    -0.007 C 
ATOM     28  C   UNL     1      33.196 -15.556 -24.477  0.00  0.00    +0.014 C 
ATOM     29  C   UNL     1      32.644 -13.241 -24.894  0.00  0.00    -0.022 C 
ATOM     30  C   UNL     1      32.820 -14.537 -25.358  0.00  0.00    -0.003 C 
ATOM     31  C   UNL     1      33.756 -17.723 -22.545  0.00  0.00    +0.280 C 
ATOM     32  C   UNL     1      32.219 -12.159 -25.828  0.00  0.00    +0.031 C 
ENDBRANCH  19  31
ENDBRANCH  18  19
ENDBRANCH   3  18
TORSDOF 6
ENDMDL
MODEL 6
REMARK VINA RESULT:     -10.4      3.824     10.306
REMARK  Name = 24878044
REMARK  6 active torsions:
REMARK  status: ('A' for Active; 'I' for Inactive)
REMARK    1  A    between atoms: N_2  and  C_6
REMARK    2  A    between atoms: C_3  and  C_18
REMARK    3  A    between atoms: C_7  and  S_12
REMARK    4  A    between atoms: S_12  and  N_15
REMARK    5  A    between atoms: C_18  and  S_19
REMARK    6  A    between atoms: S_19  and  C_31
REMARK                            x       y       z     vdW  Elec       q    Type
REMARK                         _______ _______ _______ _____ _____    ______ ____
ROOT
ATOM      1  O   UNL     1      32.985 -19.778 -19.905  0.00  0.00    -0.274 OA
ATOM      2  N   UNL     1      34.865 -18.752 -20.871  0.00  0.00    -0.283 N 
ATOM      3  C   UNL     1      34.174 -19.762 -20.211  0.00  0.00    +0.238 C 
ATOM      4  H   UNL     1      35.826 -18.908 -21.021  0.00  0.00    +0.155 HD
ENDROOT
BRANCH   2   6
ATOM      5 CL   UNL     1      33.927 -18.722 -23.770  0.00  0.00    -0.081 Cl
ATOM      6  C   UNL     1      34.347 -17.526 -21.354  0.00  0.00    +0.061 C 
ATOM      7  C   UNL     1      33.335 -15.083 -22.239  0.00  0.00    +0.123 C 
ATOM      8  C   UNL     1      33.887 -17.396 -22.663  0.00  0.00    +0.072 C 
ATOM      9  C   UNL     1      34.301 -16.434 -20.486  0.00  0.00    +0.017 C 
ATOM     10  C   UNL     1      33.381 -16.174 -23.106  0.00  0.00    +0.033 C 
ATOM     11  C   UNL     1      33.794 -15.212 -20.929  0.00  0.00    +0.021 C 
BRANCH   7  12
ATOM     12  S   UNL     1      32.702 -13.553 -22.794  0.00  0.00    +0.057 S 
ATOM     13  O   UNL     1      31.610 -13.161 -21.914  0.00  0.00    -0.153 OA
ATOM     14  O   UNL     1      33.817 -12.643 -23.013  0.00  0.00    -0.153 OA
BRANCH  12  15
ATOM     15  N   UNL     1      32.053 -14.000 -24.310  0.00  0.00    -0.203 NA
ATOM     16  H   UNL     1      31.097 -13.649 -24.388  0.00  0.00    +0.144 HD
ATOM     17  H   UNL     1      32.050 -15.016 -24.393  0.00  0.00    +0.144 HD
ENDBRANCH  12  15
ENDBRANCH   7  12
ENDBRANCH   2   6
BRANCH   3  18
ATOM     18  C   UNL     1      35.076 -20.924 -19.851  0.00  0.00    +0.152 C 
BRANCH  18  19
ATOM     19  S   UNL     1      35.352 -20.916 -18.065  0.00  0.00    -0.047 S 
BRANCH  19  31
ATOM     20  O   UNL     1      33.454 -22.673 -18.375  0.00  0.00    -0.262 OA
ATOM     21  N   UNL     1      34.186 -22.442 -16.153  0.00  0.00    -0.250 N 
ATOM     22  C   UNL     1      35.536 -23.478 -14.336  0.00  0.00    +0.027 C 
ATOM     23  C   UNL     1      34.356 -23.464 -13.388  0.00  0.00    +0.029 C 
ATOM     24  C   UNL     1      35.406 -22.332 -15.325  0.00  0.00    +0.099 C 
ATOM     25  C   UNL     1      33.055 -23.366 -14.139  0.00  0.00    -0.009 C 
ATOM     26  C   UNL     1      32.983 -22.868 -15.461  0.00  0.00    +0.051 C 
ATOM     27  C   UNL     1      31.884 -23.753 -13.460  0.00  0.00    -0.007 C 
ATOM     28  C   UNL     1      31.708 -22.762 -16.047  0.00  0.00    +0.014 C 
ATOM     29  C   UNL     1      30.641 -23.660 -14.074  0.00  0.00    -0.022 C 
ATOM     30  C   UNL     1      30.553 -23.160 -15.365  0.00  0.00    -0.003 C 
ATOM     31  C   UNL     1      34.187 -22.155 -17.538  0.00  0.00    +0.280 C 
ATOM     32  C   UNL     1      29.414 -24.108 -13.356  0.00  0.00    +0.031 C 
ENDBRANCH  19  31
ENDBRANCH  18  19
ENDBRANCH   3  18
TORSDOF 6
ENDMDL
MODEL 7
REMARK VINA RESULT:     -10.3      5.298      8.347
REMARK  Name = 24878044
REMARK  6 active torsions:
REMARK  status: ('A' for Active; 'I' for Inactive)
REMARK    1  A    between atoms: N_2  and  C_6
REMARK    2  A    between atoms: C_3  and  C_18
REMARK    3  A    between atoms: C_7  and  S_12
REMARK    4  A    between atoms: S_12  and  N_15
REMARK    5  A    between atoms: C_18  and  S_19
REMARK    6  A    between atoms: S_19  and  C_31
REMARK                            x       y       z     vdW  Elec       q    Type
REMARK                         _______ _______ _______ _____ _____    ______ ____
ROOT
ATOM      1  O   UNL     1      31.359 -23.144 -14.988  0.00  0.00    -0.274 OA
ATOM      2  N   UNL     1      33.550 -22.765 -15.748  0.00  0.00    -0.283 N 
ATOM      3  C   UNL     1      32.164 -22.816 -15.855  0.00  0.00    +0.238 C 
ATOM      4  H   UNL     1      34.039 -22.490 -16.557  0.00  0.00    +0.155 HD
ENDROOT
BRANCH   2   6
ATOM      5 CL   UNL     1      36.458 -21.859 -15.836  0.00  0.00    -0.081 Cl
ATOM      6  C   UNL     1      34.337 -23.062 -14.610  0.00  0.00    +0.061 C 
ATOM      7  C   UNL     1      35.832 -23.677 -12.337  0.00  0.00    +0.123 C 
ATOM      8  C   UNL     1      35.681 -22.695 -14.539  0.00  0.00    +0.072 C 
ATOM      9  C   UNL     1      33.741 -23.738 -13.545  0.00  0.00    +0.017 C 
ATOM     10  C   UNL     1      36.428 -23.003 -13.402  0.00  0.00    +0.033 C 
ATOM     11  C   UNL     1      34.488 -24.045 -12.408  0.00  0.00    +0.021 C 
BRANCH   7  12
ATOM     12  S   UNL     1      36.767 -24.063 -10.914  0.00  0.00    +0.057 S 
ATOM     13  O   UNL     1      37.045 -25.492 -10.919  0.00  0.00    -0.153 OA
ATOM     14  O   UNL     1      37.866 -23.112 -10.811  0.00  0.00    -0.153 OA
BRANCH  12  15
ATOM     15  N   UNL     1      35.634 -23.727  -9.679  0.00  0.00    -0.203 NA
ATOM     16  H   UNL     1      34.931 -24.465  -9.654  0.00  0.00    +0.144 HD
ATOM     17  H   UNL     1      35.182 -22.832  -9.867  0.00  0.00    +0.144 HD
ENDBRANCH  12  15
ENDBRANCH   7  12
ENDBRANCH   2   6
BRANCH   3  18
ATOM     18  C   UNL     1      31.688 -22.426 -17.238  0.00  0.00    +0.152 C 
BRANCH  18  19
ATOM     19  S   UNL     1      33.104 -22.408 -18.360  0.00  0.00    -0.047 S 
BRANCH  19  31
ATOM     20  O   UNL     1      31.780 -20.325 -19.193  0.00  0.00    -0.262 OA
ATOM     21  N   UNL     1      34.085 -20.234 -19.645  0.00  0.00    -0.250 N 
ATOM     22  C   UNL     1      36.253 -19.212 -18.972  0.00  0.00    +0.027 C 
ATOM     23  C   UNL     1      36.498 -18.694 -20.374  0.00  0.00    +0.029 C 
ATOM     24  C   UNL     1      35.411 -20.475 -19.037  0.00  0.00    +0.099 C 
ATOM     25  C   UNL     1      35.213 -18.609 -21.154  0.00  0.00    -0.009 C 
ATOM     26  C   UNL     1      34.065 -19.356 -20.802  0.00  0.00    +0.051 C 
ATOM     27  C   UNL     1      35.201 -17.779 -22.291  0.00  0.00    -0.007 C 
ATOM     28  C   UNL     1      32.937 -19.247 -21.637  0.00  0.00    +0.014 C 
ATOM     29  C   UNL     1      34.064 -17.672 -23.083  0.00  0.00    -0.022 C 
ATOM     30  C   UNL     1      32.934 -18.410 -22.758  0.00  0.00    -0.003 C 
ATOM     31  C   UNL     1      32.903 -20.817 -19.132  0.00  0.00    +0.280 C 
ATOM     32  C   UNL     1      34.053 -16.762 -24.263  0.00  0.00    +0.031 C 
ENDBRANCH  19  31
ENDBRANCH  18  19
ENDBRANCH   3  18
TORSDOF 6
ENDMDL
MODEL 8
REMARK VINA RESULT:     -10.2      4.538      6.883
REMARK  Name = 24878044
REMARK  6 active torsions:
REMARK  status: ('A' for Active; 'I' for Inactive)
REMARK    1  A    between atoms: N_2  and  C_6
REMARK    2  A    between atoms: C_3  and  C_18
REMARK    3  A    between atoms: C_7  and  S_12
REMARK    4  A    between atoms: S_12  and  N_15
REMARK    5  A    between atoms: C_18  and  S_19
REMARK    6  A    between atoms: S_19  and  C_31
REMARK                            x       y       z     vdW  Elec       q    Type
REMARK                         _______ _______ _______ _____ _____    ______ ____
ROOT
ATOM      1  O   UNL     1      34.033 -22.263 -17.409  0.00  0.00    -0.274 OA
ATOM      2  N   UNL     1      36.034 -21.781 -16.273  0.00  0.00    -0.283 N 
ATOM      3  C   UNL     1      35.139 -21.734 -17.337  0.00  0.00    +0.238 C 
ATOM      4  H   UNL     1      36.886 -21.305 -16.400  0.00  0.00    +0.155 HD
ENDROOT
BRANCH   2   6
ATOM      5 CL   UNL     1      38.387 -23.434 -15.264  0.00  0.00    -0.081 Cl
ATOM      6  C   UNL     1      35.858 -22.434 -15.029  0.00  0.00    +0.061 C 
ATOM      7  C   UNL     1      35.448 -23.692 -12.574  0.00  0.00    +0.123 C 
ATOM      8  C   UNL     1      36.868 -23.217 -14.470  0.00  0.00    +0.072 C 
ATOM      9  C   UNL     1      34.643 -22.281 -14.361  0.00  0.00    +0.017 C 
ATOM     10  C   UNL     1      36.663 -23.846 -13.242  0.00  0.00    +0.033 C 
ATOM     11  C   UNL     1      34.438 -22.910 -13.133  0.00  0.00    +0.021 C 
BRANCH   7  12
ATOM     12  S   UNL     1      35.191 -24.480 -11.037  0.00  0.00    +0.057 S 
ATOM     13  O   UNL     1      35.995 -23.800 -10.032  0.00  0.00    -0.153 OA
ATOM     14  O   UNL     1      33.758 -24.638 -10.832  0.00  0.00    -0.153 OA
BRANCH  12  15
ATOM     15  N   UNL     1      35.873 -26.017 -11.341  0.00  0.00    -0.203 NA
ATOM     16  H   UNL     1      36.665 -26.167 -10.715  0.00  0.00    +0.144 HD
ATOM     17  H   UNL     1      36.192 -26.063 -12.309  0.00  0.00    +0.144 HD
ENDBRANCH  12  15
ENDBRANCH   7  12
ENDBRANCH   2   6
BRANCH   3  18
ATOM     18  C   UNL     1      35.685 -20.935 -18.501  0.00  0.00    +0.152 C 
BRANCH  18  19
ATOM     19  S   UNL     1      34.328 -20.540 -19.625  0.00  0.00    -0.047 S 
BRANCH  19  31
ATOM     20  O   UNL     1      35.756 -18.363 -19.687  0.00  0.00    -0.262 OA
ATOM     21  N   UNL     1      34.212 -18.540 -21.450  0.00  0.00    -0.250 N 
ATOM     22  C   UNL     1      33.940 -19.028 -23.876  0.00  0.00    +0.027 C 
ATOM     23  C   UNL     1      33.252 -17.700 -24.114  0.00  0.00    +0.029 C 
ATOM     24  C   UNL     1      33.678 -19.487 -22.452  0.00  0.00    +0.099 C 
ATOM     25  C   UNL     1      33.572 -16.718 -23.018  0.00  0.00    -0.009 C 
ATOM     26  C   UNL     1      34.025 -17.131 -21.743  0.00  0.00    +0.051 C 
ATOM     27  C   UNL     1      33.365 -15.353 -23.292  0.00  0.00    -0.007 C 
ATOM     28  C   UNL     1      34.236 -16.132 -20.774  0.00  0.00    +0.014 C 
ATOM     29  C   UNL     1      33.606 -14.387 -22.322  0.00  0.00    -0.022 C 
ATOM     30  C   UNL     1      34.036 -14.778 -21.063  0.00  0.00    -0.003 C 
ATOM     31  C   UNL     1      34.872 -18.976 -20.277  0.00  0.00    +0.280 C 
ATOM     32  C   UNL     1      33.417 -12.943 -22.638  0.00  0.00    +0.031 C 
ENDBRANCH  19  31
ENDBRANCH  18  19
ENDBRANCH   3  18
TORSDOF 6
ENDMDL
MODEL 9
REMARK VINA RESULT:     -10.1      3.976      6.274
REMARK  Name = 24878044
REMARK  6 active torsions:
REMARK  status: ('A' for Active; 'I' for Inactive)
REMARK    1  A    between atoms: N_2  and  C_6
REMARK    2  A    between atoms: C_3  and  C_18
REMARK    3  A    between atoms: C_7  and  S_12
REMARK    4  A    between atoms: S_12  and  N_15
REMARK    5  A    between atoms: C_18  and  S_19
REMARK    6  A    between atoms: S_19  and  C_31
REMARK                            x       y       z     vdW  Elec       q    Type
REMARK                         _______ _______ _______ _____ _____    ______ ____
ROOT
ATOM      1  O   UNL     1      36.383 -20.148 -17.401  0.00  0.00    -0.274 OA
ATOM      2  N   UNL     1      34.940 -22.003 -17.421  0.00  0.00    -0.283 N 
ATOM      3  C   UNL     1      35.666 -20.958 -17.982  0.00  0.00    +0.238 C 
ATOM      4  H   UNL     1      34.406 -22.546 -18.044  0.00  0.00    +0.155 HD
ENDROOT
BRANCH   2   6
ATOM      5 CL   UNL     1      32.190 -22.728 -16.327  0.00  0.00    -0.081 Cl
ATOM      6  C   UNL     1      34.882 -22.375 -16.056  0.00  0.00    +0.061 C 
ATOM      7  C   UNL     1      34.838 -23.100 -13.363  0.00  0.00    +0.123 C 
ATOM      8  C   UNL     1      33.677 -22.727 -15.449  0.00  0.00    +0.072 C 
ATOM      9  C   UNL     1      36.065 -22.385 -15.317  0.00  0.00    +0.017 C 
ATOM     10  C   UNL     1      33.656 -23.090 -14.102  0.00  0.00    +0.033 C 
ATOM     11  C   UNL     1      36.044 -22.748 -13.970  0.00  0.00    +0.021 C 
BRANCH   7  12
ATOM     12  S   UNL     1      34.811 -23.553 -11.677  0.00  0.00    +0.057 S 
ATOM     13  O   UNL     1      35.846 -22.801 -10.982  0.00  0.00    -0.153 OA
ATOM     14  O   UNL     1      33.435 -23.498 -11.205  0.00  0.00    -0.153 OA
BRANCH  12  15
ATOM     15  N   UNL     1      35.292 -25.191 -11.773  0.00  0.00    -0.203 NA
ATOM     16  H   UNL     1      35.896 -25.414 -10.981  0.00  0.00    +0.144 HD
ATOM     17  H   UNL     1      35.800 -25.346 -12.643  0.00  0.00    +0.144 HD
ENDBRANCH  12  15
ENDBRANCH   7  12
ENDBRANCH   2   6
BRANCH   3  18
ATOM     18  C   UNL     1      35.473 -20.876 -19.482  0.00  0.00    +0.152 C 
BRANCH  18  19
ATOM     19  S   UNL     1      33.927 -20.008 -19.824  0.00  0.00    -0.047 S 
BRANCH  19  31
ATOM     20  O   UNL     1      35.439 -17.888 -19.888  0.00  0.00    -0.262 OA
ATOM     21  N   UNL     1      33.915 -18.026 -21.672  0.00  0.00    -0.250 N 
ATOM     22  C   UNL     1      33.659 -18.530 -24.096  0.00  0.00    +0.027 C 
ATOM     23  C   UNL     1      33.026 -17.180 -24.359  0.00  0.00    +0.029 C 
ATOM     24  C   UNL     1      33.360 -18.963 -22.671  0.00  0.00    +0.099 C 
ATOM     25  C   UNL     1      33.368 -16.198 -23.269  0.00  0.00    -0.009 C 
ATOM     26  C   UNL     1      33.786 -16.613 -21.983  0.00  0.00    +0.051 C 
ATOM     27  C   UNL     1      33.217 -14.829 -23.561  0.00  0.00    -0.007 C 
ATOM     28  C   UNL     1      34.021 -15.612 -21.022  0.00  0.00    +0.014 C 
ATOM     29  C   UNL     1      33.481 -13.862 -22.598  0.00  0.00    -0.022 C 
ATOM     30  C   UNL     1      33.878 -14.255 -21.328  0.00  0.00    -0.003 C 
ATOM     31  C   UNL     1      34.541 -18.473 -20.485  0.00  0.00    +0.280 C 
ATOM     32  C   UNL     1      33.353 -12.416 -22.932  0.00  0.00    +0.031 C 
ENDBRANCH  19  31
ENDBRANCH  18  19
ENDBRANCH   3  18
TORSDOF 6
ENDMDL
