MODEL 1
REMARK VINA RESULT:     -11.6      0.000      0.000
REMARK  Name = 176407
REMARK  5 active torsions:
REMARK  status: ('A' for Active; 'I' for Inactive)
REMARK    1  A    between atoms: N_1  and  C_20
REMARK    2  A    between atoms: C_11  and  C_16
REMARK    3  A    between atoms: C_20  and  C_21
REMARK    4  A    between atoms: C_21  and  C_22
REMARK    5  A    between atoms: C_27  and  O_28
REMARK                            x       y       z     vdW  Elec       q    Type
REMARK                         _______ _______ _______ _____ _____    ______ ____
ROOT
ATOM      1  N   UNL     1      33.901 -17.368 -22.427  0.00  0.00    -0.258 N 
ATOM      2  N   UNL     1      32.933 -13.831 -24.012  0.00  0.00    -0.059 N 
ATOM      3  N   UNL     1      33.920 -15.053 -22.269  0.00  0.00    -0.245 NA
ATOM      4  N   UNL     1      32.915 -16.108 -24.165  0.00  0.00    -0.294 NA
ATOM      5  N   UNL     1      32.675 -12.579 -24.418  0.00  0.00    -0.090 NA
ATOM      6  N   UNL     1      33.773 -12.617 -22.410  0.00  0.00    -0.267 NA
ATOM      7  N   UNL     1      31.930 -14.825 -25.899  0.00  0.00    -0.318 N 
ATOM      8  C   UNL     1      33.584 -16.132 -22.941  0.00  0.00    +0.213 C 
ATOM      9  C   UNL     1      33.588 -13.858 -22.814  0.00  0.00    +0.251 C 
ATOM     10  C   UNL     1      32.585 -14.973 -24.707  0.00  0.00    +0.282 C 
ATOM     11  C   UNL     1      33.204 -11.880 -23.412  0.00  0.00    +0.153 C 
ATOM     12  H   UNL     1      33.647 -18.173 -22.933  0.00  0.00    +0.160 HD
ATOM     13  H   UNL     1      31.719 -13.924 -26.237  0.00  0.00    +0.146 HD
ATOM     14  H   UNL     1      31.669 -15.619 -26.420  0.00  0.00    +0.146 HD
ENDROOT
BRANCH  11  16
ATOM     15  O   UNL     1      32.250  -9.669 -22.720  0.00  0.00    -0.439 OA
ATOM     16  C   UNL     1      33.178 -10.406 -23.383  0.00  0.00    +0.221 C 
ATOM     17  C   UNL     1      34.081  -9.586 -24.020  0.00  0.00    +0.052 C 
ATOM     18  C   UNL     1      33.681  -8.260 -23.729  0.00  0.00    +0.045 C 
ATOM     19  C   UNL     1      32.563  -8.364 -22.935  0.00  0.00    +0.181 C 
ENDBRANCH  11  16
BRANCH   1  20
ATOM     20  C   UNL     1      34.586 -17.519 -21.183  0.00  0.00    +0.103 C 
BRANCH  20  21
ATOM     21  C   UNL     1      35.121 -18.941 -21.023  0.00  0.00    +0.048 C 
BRANCH  21  22
ATOM     22  C   UNL     1      34.247 -19.808 -20.151  0.00  0.00    -0.020 C 
ATOM     23  C   UNL     1      32.869 -19.684 -20.232  0.00  0.00    -0.001 C 
ATOM     24  C   UNL     1      34.838 -20.713 -19.283  0.00  0.00    -0.001 C 
ATOM     25  C   UNL     1      32.061 -20.485 -19.425  0.00  0.00    +0.036 C 
ATOM     26  C   UNL     1      34.031 -21.514 -18.476  0.00  0.00    +0.036 C 
ATOM     27  C   UNL     1      32.642 -21.400 -18.547  0.00  0.00    +0.134 C 
BRANCH  27  28
ATOM     28  O   UNL     1      31.853 -22.182 -17.761  0.00  0.00    -0.506 OA
ATOM     29  H   UNL     1      32.166 -23.013 -17.462  0.00  0.00    +0.292 HD
ENDBRANCH  27  28
ENDBRANCH  21  22
ENDBRANCH  20  21
ENDBRANCH   1  20
TORSDOF 5
ENDMDL
MODEL 2
REMARK VINA RESULT:     -11.5      1.943      2.414
REMARK  Name = 176407
REMARK  5 active torsions:
REMARK  status: ('A' for Active; 'I' for Inactive)
REMARK    1  A    between atoms: N_1  and  C_20
REMARK    2  A    between atoms: C_11  and  C_16
REMARK    3  A    between atoms: C_20  and  C_21
REMARK    4  A    between atoms: C_21  and  C_22
REMARK    5  A    between atoms: C_27  and  O_28
REMARK                            x       y       z     vdW  Elec       q    Type
REMARK                         _______ _______ _______ _____ _____    ______ ____
ROOT
ATOM      1  N   UNL     1      35.020 -17.380 -22.009  0.00  0.00    -0.258 N 
ATOM      2  N   UNL     1      32.840 -14.081 -22.580  0.00  0.00    -0.059 N 
ATOM      3  N   UNL     1      33.940 -15.537 -21.104  0.00  0.00    -0.245 NA
ATOM      4  N   UNL     1      33.903 -15.896 -23.467  0.00  0.00    -0.294 NA
ATOM      5  N   UNL     1      32.114 -12.955 -22.616  0.00  0.00    -0.090 NA
ATOM      6  N   UNL     1      32.716 -13.515 -20.480  0.00  0.00    -0.267 NA
ATOM      7  N   UNL     1      32.775 -14.394 -24.915  0.00  0.00    -0.318 N 
ATOM      8  C   UNL     1      34.270 -16.238 -22.166  0.00  0.00    +0.213 C 
ATOM      9  C   UNL     1      33.202 -14.419 -21.307  0.00  0.00    +0.251 C 
ATOM     10  C   UNL     1      33.193 -14.828 -23.687  0.00  0.00    +0.282 C 
ATOM     11  C   UNL     1      32.066 -12.651 -21.317  0.00  0.00    +0.153 C 
ATOM     12  H   UNL     1      35.264 -17.903 -22.807  0.00  0.00    +0.160 HD
ATOM     13  H   UNL     1      32.239 -13.570 -24.990  0.00  0.00    +0.146 HD
ATOM     14  H   UNL     1      33.010 -14.903 -25.724  0.00  0.00    +0.146 HD
ENDROOT
BRANCH  11  16
ATOM     15  O   UNL     1      31.228 -10.298 -21.512  0.00  0.00    -0.439 OA
ATOM     16  C   UNL     1      31.359 -11.458 -20.818  0.00  0.00    +0.221 C 
ATOM     17  C   UNL     1      30.744 -11.358 -19.591  0.00  0.00    +0.052 C 
ATOM     18  C   UNL     1      30.199 -10.053 -19.529  0.00  0.00    +0.045 C 
ATOM     19  C   UNL     1      30.521  -9.448 -20.721  0.00  0.00    +0.181 C 
ENDBRANCH  11  16
BRANCH   1  20
ATOM     20  C   UNL     1      35.455 -17.831 -20.726  0.00  0.00    +0.103 C 
BRANCH  20  21
ATOM     21  C   UNL     1      35.634 -19.349 -20.712  0.00  0.00    +0.048 C 
BRANCH  21  22
ATOM     22  C   UNL     1      34.559 -20.064 -19.931  0.00  0.00    -0.020 C 
ATOM     23  C   UNL     1      34.919 -21.049 -19.024  0.00  0.00    -0.001 C 
ATOM     24  C   UNL     1      33.231 -19.724 -20.135  0.00  0.00    -0.001 C 
ATOM     25  C   UNL     1      33.925 -21.710 -18.303  0.00  0.00    +0.036 C 
ATOM     26  C   UNL     1      32.237 -20.386 -19.414  0.00  0.00    +0.036 C 
ATOM     27  C   UNL     1      32.584 -21.379 -18.498  0.00  0.00    +0.134 C 
BRANCH  27  28
ATOM     28  O   UNL     1      31.616 -22.025 -17.793  0.00  0.00    -0.506 OA
ATOM     29  H   UNL     1      30.931 -22.478 -18.244  0.00  0.00    +0.292 HD
ENDBRANCH  27  28
ENDBRANCH  21  22
ENDBRANCH  20  21
ENDBRANCH   1  20
TORSDOF 5
ENDMDL
MODEL 3
REMARK VINA RESULT:     -11.1      7.145     12.431
REMARK  Name = 176407
REMARK  5 active torsions:
REMARK  status: ('A' for Active; 'I' for Inactive)
REMARK    1  A    between atoms: N_1  and  C_20
REMARK    2  A    between atoms: C_11  and  C_16
REMARK    3  A    between atoms: C_20  and  C_21
REMARK    4  A    between atoms: C_21  and  C_22
REMARK    5  A    between atoms: C_27  and  O_28
REMARK                            x       y       z     vdW  Elec       q    Type
REMARK                         _______ _______ _______ _____ _____    ______ ____
ROOT
ATOM      1  N   UNL     1      31.633 -21.894 -17.865  0.00  0.00    -0.258 N 
ATOM      2  N   UNL     1      32.830 -23.431 -14.377  0.00  0.00    -0.059 N 
ATOM      3  N   UNL     1      33.341 -22.792 -16.577  0.00  0.00    -0.245 NA
ATOM      4  N   UNL     1      31.152 -22.547 -15.647  0.00  0.00    -0.294 NA
ATOM      5  N   UNL     1      33.374 -23.961 -13.272  0.00  0.00    -0.090 NA
ATOM      6  N   UNL     1      34.900 -23.765 -14.965  0.00  0.00    -0.267 NA
ATOM      7  N   UNL     1      30.689 -23.210 -13.417  0.00  0.00    -0.318 N 
ATOM      8  C   UNL     1      32.082 -22.427 -16.679  0.00  0.00    +0.213 C 
ATOM      9  C   UNL     1      33.739 -23.312 -15.390  0.00  0.00    +0.251 C 
ATOM     10  C   UNL     1      31.510 -23.044 -14.499  0.00  0.00    +0.282 C 
ATOM     11  C   UNL     1      34.631 -24.146 -13.680  0.00  0.00    +0.153 C 
ATOM     12  H   UNL     1      30.689 -21.622 -17.938  0.00  0.00    +0.160 HD
ATOM     13  H   UNL     1      31.045 -23.596 -12.583  0.00  0.00    +0.146 HD
ATOM     14  H   UNL     1      29.743 -22.944 -13.471  0.00  0.00    +0.146 HD
ENDROOT
BRANCH  11  16
ATOM     15  O   UNL     1      35.404 -25.349 -11.622  0.00  0.00    -0.439 OA
ATOM     16  C   UNL     1      35.663 -24.723 -12.800  0.00  0.00    +0.221 C 
ATOM     17  C   UNL     1      37.016 -24.706 -13.050  0.00  0.00    +0.052 C 
ATOM     18  C   UNL     1      37.627 -25.363 -11.955  0.00  0.00    +0.045 C 
ATOM     19  C   UNL     1      36.604 -25.734 -11.114  0.00  0.00    +0.181 C 
ENDBRANCH  11  16
BRANCH   1  20
ATOM     20  C   UNL     1      32.492 -21.721 -18.992  0.00  0.00    +0.103 C 
BRANCH  20  21
ATOM     21  C   UNL     1      32.307 -20.337 -19.613  0.00  0.00    +0.048 C 
BRANCH  21  22
ATOM     22  C   UNL     1      33.597 -19.734 -20.112  0.00  0.00    -0.020 C 
ATOM     23  C   UNL     1      33.563 -18.834 -21.166  0.00  0.00    -0.001 C 
ATOM     24  C   UNL     1      34.791 -20.091 -19.508  0.00  0.00    -0.001 C 
ATOM     25  C   UNL     1      34.755 -18.277 -21.627  0.00  0.00    +0.036 C 
ATOM     26  C   UNL     1      35.984 -19.534 -19.969  0.00  0.00    +0.036 C 
ATOM     27  C   UNL     1      35.966 -18.627 -21.029  0.00  0.00    +0.134 C 
BRANCH  27  28
ATOM     28  O   UNL     1      37.129 -18.082 -21.480  0.00  0.00    -0.506 OA
ATOM     29  H   UNL     1      37.788 -17.813 -20.870  0.00  0.00    +0.292 HD
ENDBRANCH  27  28
ENDBRANCH  21  22
ENDBRANCH  20  21
ENDBRANCH   1  20
TORSDOF 5
ENDMDL
MODEL 4
REMARK VINA RESULT:     -11.0      5.790     11.257
REMARK  Name = 176407
REMARK  5 active torsions:
REMARK  status: ('A' for Active; 'I' for Inactive)
REMARK    1  A    between atoms: N_1  and  C_20
REMARK    2  A    between atoms: C_11  and  C_16
REMARK    3  A    between atoms: C_20  and  C_21
REMARK    4  A    between atoms: C_21  and  C_22
REMARK    5  A    between atoms: C_27  and  O_28
REMARK                            x       y       z     vdW  Elec       q    Type
REMARK                         _______ _______ _______ _____ _____    ______ ____
ROOT
ATOM      1  N   UNL     1      35.264 -20.869 -18.794  0.00  0.00    -0.258 N 
ATOM      2  N   UNL     1      33.159 -22.692 -15.929  0.00  0.00    -0.059 N 
ATOM      3  N   UNL     1      33.208 -21.602 -18.007  0.00  0.00    -0.245 NA
ATOM      4  N   UNL     1      35.180 -21.969 -16.705  0.00  0.00    -0.294 NA
ATOM      5  N   UNL     1      32.327 -23.278 -15.056  0.00  0.00    -0.090 NA
ATOM      6  N   UNL     1      31.220 -22.492 -16.899  0.00  0.00    -0.267 NA
ATOM      7  N   UNL     1      35.075 -23.075 -14.610  0.00  0.00    -0.318 N 
ATOM      8  C   UNL     1      34.507 -21.491 -17.829  0.00  0.00    +0.213 C 
ATOM      9  C   UNL     1      32.502 -22.222 -17.030  0.00  0.00    +0.251 C 
ATOM     10  C   UNL     1      34.524 -22.567 -15.755  0.00  0.00    +0.282 C 
ATOM     11  C   UNL     1      31.161 -23.130 -15.691  0.00  0.00    +0.153 C 
ATOM     12  H   UNL     1      36.236 -20.787 -18.656  0.00  0.00    +0.160 HD
ATOM     13  H   UNL     1      34.501 -23.515 -13.940  0.00  0.00    +0.146 HD
ATOM     14  H   UNL     1      36.045 -23.004 -14.456  0.00  0.00    +0.146 HD
ENDROOT
BRANCH  11  16
ATOM     15  O   UNL     1      28.663 -23.207 -15.520  0.00  0.00    -0.439 OA
ATOM     16  C   UNL     1      29.894 -23.625 -15.125  0.00  0.00    +0.221 C 
ATOM     17  C   UNL     1      29.786 -24.567 -14.128  0.00  0.00    +0.052 C 
ATOM     18  C   UNL     1      28.400 -24.739 -13.896  0.00  0.00    +0.045 C 
ATOM     19  C   UNL     1      27.760 -23.890 -14.768  0.00  0.00    +0.181 C 
ENDBRANCH  11  16
BRANCH   1  20
ATOM     20  C   UNL     1      34.686 -20.340 -19.987  0.00  0.00    +0.103 C 
BRANCH  20  21
ATOM     21  C   UNL     1      35.300 -18.985 -20.337  0.00  0.00    +0.048 C 
BRANCH  21  22
ATOM     22  C   UNL     1      34.647 -18.328 -21.528  0.00  0.00    -0.020 C 
ATOM     23  C   UNL     1      34.008 -19.116 -22.473  0.00  0.00    -0.001 C 
ATOM     24  C   UNL     1      34.697 -16.949 -21.656  0.00  0.00    -0.001 C 
ATOM     25  C   UNL     1      33.405 -18.509 -23.574  0.00  0.00    +0.036 C 
ATOM     26  C   UNL     1      34.094 -16.342 -22.757  0.00  0.00    +0.036 C 
ATOM     27  C   UNL     1      33.448 -17.122 -23.716  0.00  0.00    +0.134 C 
BRANCH  27  28
ATOM     28  O   UNL     1      32.858 -16.530 -24.791  0.00  0.00    -0.506 OA
ATOM     29  H   UNL     1      32.579 -15.638 -24.740  0.00  0.00    +0.292 HD
ENDBRANCH  27  28
ENDBRANCH  21  22
ENDBRANCH  20  21
ENDBRANCH   1  20
TORSDOF 5
ENDMDL
MODEL 5
REMARK VINA RESULT:     -10.7      4.751     11.031
REMARK  Name = 176407
REMARK  5 active torsions:
REMARK  status: ('A' for Active; 'I' for Inactive)
REMARK    1  A    between atoms: N_1  and  C_20
REMARK    2  A    between atoms: C_11  and  C_16
REMARK    3  A    between atoms: C_20  and  C_21
REMARK    4  A    between atoms: C_21  and  C_22
REMARK    5  A    between atoms: C_27  and  O_28
REMARK                            x       y       z     vdW  Elec       q    Type
REMARK                         _______ _______ _______ _____ _____    ______ ____
ROOT
ATOM      1  N   UNL     1      33.462 -19.938 -20.263  0.00  0.00    -0.258 N 
ATOM      2  N   UNL     1      33.489 -22.189 -16.963  0.00  0.00    -0.059 N 
ATOM      3  N   UNL     1      34.669 -20.907 -18.535  0.00  0.00    -0.245 NA
ATOM      4  N   UNL     1      32.304 -21.234 -18.665  0.00  0.00    -0.294 NA
ATOM      5  N   UNL     1      33.652 -22.920 -15.851  0.00  0.00    -0.090 NA
ATOM      6  N   UNL     1      35.633 -22.056 -16.605  0.00  0.00    -0.267 NA
ATOM      7  N   UNL     1      31.160 -22.541 -17.049  0.00  0.00    -0.318 N 
ATOM      8  C   UNL     1      33.511 -20.707 -19.125  0.00  0.00    +0.213 C 
ATOM      9  C   UNL     1      34.669 -21.671 -17.416  0.00  0.00    +0.251 C 
ATOM     10  C   UNL     1      32.279 -21.972 -17.593  0.00  0.00    +0.282 C 
ATOM     11  C   UNL     1      34.971 -22.809 -15.675  0.00  0.00    +0.153 C 
ATOM     12  H   UNL     1      32.593 -19.791 -20.702  0.00  0.00    +0.160 HD
ATOM     13  H   UNL     1      31.232 -23.086 -16.232  0.00  0.00    +0.146 HD
ATOM     14  H   UNL     1      30.282 -22.405 -17.474  0.00  0.00    +0.146 HD
ENDROOT
BRANCH  11  16
ATOM     15  O   UNL     1      36.022 -24.766 -14.517  0.00  0.00    -0.439 OA
ATOM     16  C   UNL     1      35.668 -23.455 -14.548  0.00  0.00    +0.221 C 
ATOM     17  C   UNL     1      36.049 -22.824 -13.387  0.00  0.00    +0.052 C 
ATOM     18  C   UNL     1      36.678 -23.812 -12.591  0.00  0.00    +0.045 C 
ATOM     19  C   UNL     1      36.635 -24.975 -13.322  0.00  0.00    +0.181 C 
ENDBRANCH  11  16
BRANCH   1  20
ATOM     20  C   UNL     1      34.631 -19.344 -20.828  0.00  0.00    +0.103 C 
BRANCH  20  21
ATOM     21  C   UNL     1      34.615 -17.827 -20.649  0.00  0.00    +0.048 C 
BRANCH  21  22
ATOM     22  C   UNL     1      34.214 -17.087 -21.902  0.00  0.00    -0.020 C 
ATOM     23  C   UNL     1      33.857 -17.807 -23.031  0.00  0.00    -0.001 C 
ATOM     24  C   UNL     1      34.211 -15.701 -21.900  0.00  0.00    -0.001 C 
ATOM     25  C   UNL     1      33.488 -17.123 -24.189  0.00  0.00    +0.036 C 
ATOM     26  C   UNL     1      33.841 -15.017 -23.058  0.00  0.00    +0.036 C 
ATOM     27  C   UNL     1      33.479 -15.728 -24.202  0.00  0.00    +0.134 C 
BRANCH  27  28
ATOM     28  O   UNL     1      33.118 -15.061 -25.333  0.00  0.00    -0.506 OA
ATOM     29  H   UNL     1      33.098 -15.509 -26.155  0.00  0.00    +0.292 HD
ENDBRANCH  27  28
ENDBRANCH  21  22
ENDBRANCH  20  21
ENDBRANCH   1  20
TORSDOF 5
ENDMDL
MODEL 6
REMARK VINA RESULT:     -10.6      7.957     10.950
REMARK  Name = 176407
REMARK  5 active torsions:
REMARK  status: ('A' for Active; 'I' for Inactive)
REMARK    1  A    between atoms: N_1  and  C_20
REMARK    2  A    between atoms: C_11  and  C_16
REMARK    3  A    between atoms: C_20  and  C_21
REMARK    4  A    between atoms: C_21  and  C_22
REMARK    5  A    between atoms: C_27  and  O_28
REMARK                            x       y       z     vdW  Elec       q    Type
REMARK                         _______ _______ _______ _____ _____    ______ ____
ROOT
ATOM      1  N   UNL     1      32.443 -24.742 -12.927  0.00  0.00    -0.258 N 
ATOM      2  N   UNL     1      34.424 -22.660 -15.701  0.00  0.00    -0.059 N 
ATOM      3  N   UNL     1      32.397 -23.535 -14.908  0.00  0.00    -0.245 NA
ATOM      4  N   UNL     1      34.467 -23.848 -13.753  0.00  0.00    -0.294 NA
ATOM      5  N   UNL     1      34.952 -21.943 -16.704  0.00  0.00    -0.090 NA
ATOM      6  N   UNL     1      32.694 -22.224 -16.949  0.00  0.00    -0.267 NA
ATOM      7  N   UNL     1      36.489 -22.943 -14.599  0.00  0.00    -0.318 N 
ATOM      8  C   UNL     1      33.091 -24.020 -13.901  0.00  0.00    +0.213 C 
ATOM      9  C   UNL     1      33.077 -22.830 -15.844  0.00  0.00    +0.251 C 
ATOM     10  C   UNL     1      35.141 -23.176 -14.639  0.00  0.00    +0.282 C 
ATOM     11  C   UNL     1      33.861 -21.703 -17.435  0.00  0.00    +0.153 C 
ATOM     12  H   UNL     1      32.966 -25.104 -12.175  0.00  0.00    +0.160 HD
ATOM     13  H   UNL     1      36.920 -22.420 -15.315  0.00  0.00    +0.146 HD
ATOM     14  H   UNL     1      37.029 -23.296 -13.855  0.00  0.00    +0.146 HD
ENDROOT
BRANCH  11  16
ATOM     15  O   UNL     1      35.054 -20.451 -19.248  0.00  0.00    -0.439 OA
ATOM     16  C   UNL     1      33.912 -20.924 -18.686  0.00  0.00    +0.221 C 
ATOM     17  C   UNL     1      32.819 -20.573 -19.445  0.00  0.00    +0.052 C 
ATOM     18  C   UNL     1      33.324 -19.837 -20.544  0.00  0.00    +0.045 C 
ATOM     19  C   UNL     1      34.688 -19.791 -20.378  0.00  0.00    +0.181 C 
ENDBRANCH  11  16
BRANCH   1  20
ATOM     20  C   UNL     1      31.036 -24.983 -12.971  0.00  0.00    +0.103 C 
BRANCH  20  21
ATOM     21  C   UNL     1      30.254 -23.675 -12.858  0.00  0.00    +0.048 C 
BRANCH  21  22
ATOM     22  C   UNL     1      29.216 -23.511 -13.941  0.00  0.00    -0.020 C 
ATOM     23  C   UNL     1      28.758 -24.629 -14.619  0.00  0.00    -0.001 C 
ATOM     24  C   UNL     1      28.739 -22.244 -14.237  0.00  0.00    -0.001 C 
ATOM     25  C   UNL     1      27.799 -24.477 -15.620  0.00  0.00    +0.036 C 
ATOM     26  C   UNL     1      27.780 -22.091 -15.238  0.00  0.00    +0.036 C 
ATOM     27  C   UNL     1      27.309 -23.208 -15.929  0.00  0.00    +0.134 C 
BRANCH  27  28
ATOM     28  O   UNL     1      26.373 -23.060 -16.906  0.00  0.00    -0.506 OA
ATOM     29  H   UNL     1      26.001 -23.816 -17.316  0.00  0.00    +0.292 HD
ENDBRANCH  27  28
ENDBRANCH  21  22
ENDBRANCH  20  21
ENDBRANCH   1  20
TORSDOF 5
ENDMDL
MODEL 7
REMARK VINA RESULT:     -10.6      5.745     11.721
REMARK  Name = 176407
REMARK  5 active torsions:
REMARK  status: ('A' for Active; 'I' for Inactive)
REMARK    1  A    between atoms: N_1  and  C_20
REMARK    2  A    between atoms: C_11  and  C_16
REMARK    3  A    between atoms: C_20  and  C_21
REMARK    4  A    between atoms: C_21  and  C_22
REMARK    5  A    between atoms: C_27  and  O_28
REMARK                            x       y       z     vdW  Elec       q    Type
REMARK                         _______ _______ _______ _____ _____    ______ ____
ROOT
ATOM      1  N   UNL     1      32.815 -21.064 -19.347  0.00  0.00    -0.258 N 
ATOM      2  N   UNL     1      32.642 -22.837 -15.771  0.00  0.00    -0.059 N 
ATOM      3  N   UNL     1      33.934 -22.007 -17.545  0.00  0.00    -0.245 NA
ATOM      4  N   UNL     1      31.545 -21.909 -17.544  0.00  0.00    -0.294 NA
ATOM      5  N   UNL     1      32.740 -23.436 -14.575  0.00  0.00    -0.090 NA
ATOM      6  N   UNL     1      34.793 -23.055 -15.512  0.00  0.00    -0.267 NA
ATOM      7  N   UNL     1      30.286 -22.764 -15.724  0.00  0.00    -0.318 N 
ATOM      8  C   UNL     1      32.796 -21.676 -18.115  0.00  0.00    +0.213 C 
ATOM      9  C   UNL     1      33.865 -22.607 -16.333  0.00  0.00    +0.251 C 
ATOM     10  C   UNL     1      31.454 -22.485 -16.381  0.00  0.00    +0.282 C 
ATOM     11  C   UNL     1      34.066 -23.547 -14.463  0.00  0.00    +0.153 C 
ATOM     12  H   UNL     1      31.961 -20.818 -19.770  0.00  0.00    +0.160 HD
ATOM     13  H   UNL     1      30.310 -23.203 -14.843  0.00  0.00    +0.146 HD
ATOM     14  H   UNL     1      29.422 -22.525 -16.132  0.00  0.00    +0.146 HD
ENDROOT
BRANCH  11  16
ATOM     15  O   UNL     1      34.363 -23.883 -11.999  0.00  0.00    -0.439 OA
ATOM     16  C   UNL     1      34.703 -24.160 -13.284  0.00  0.00    +0.221 C 
ATOM     17  C   UNL     1      35.722 -25.084 -13.326  0.00  0.00    +0.052 C 
ATOM     18  C   UNL     1      36.026 -25.396 -11.979  0.00  0.00    +0.045 C 
ATOM     19  C   UNL     1      35.173 -24.639 -11.211  0.00  0.00    +0.181 C 
ENDBRANCH  11  16
BRANCH   1  20
ATOM     20  C   UNL     1      34.035 -20.773 -20.029  0.00  0.00    +0.103 C 
BRANCH  20  21
ATOM     21  C   UNL     1      34.393 -19.293 -19.903  0.00  0.00    +0.048 C 
BRANCH  21  22
ATOM     22  C   UNL     1      34.207 -18.527 -21.190  0.00  0.00    -0.020 C 
ATOM     23  C   UNL     1      34.474 -17.167 -21.215  0.00  0.00    -0.001 C 
ATOM     24  C   UNL     1      33.773 -19.196 -22.322  0.00  0.00    -0.001 C 
ATOM     25  C   UNL     1      34.302 -16.459 -22.404  0.00  0.00    +0.036 C 
ATOM     26  C   UNL     1      33.601 -18.488 -23.511  0.00  0.00    +0.036 C 
ATOM     27  C   UNL     1      33.866 -17.119 -23.552  0.00  0.00    +0.134 C 
BRANCH  27  28
ATOM     28  O   UNL     1      33.699 -16.427 -24.713  0.00  0.00    -0.506 OA
ATOM     29  H   UNL     1      33.021 -15.785 -24.781  0.00  0.00    +0.292 HD
ENDBRANCH  27  28
ENDBRANCH  21  22
ENDBRANCH  20  21
ENDBRANCH   1  20
TORSDOF 5
ENDMDL
MODEL 8
REMARK VINA RESULT:     -10.3      6.095      9.339
REMARK  Name = 176407
REMARK  5 active torsions:
REMARK  status: ('A' for Active; 'I' for Inactive)
REMARK    1  A    between atoms: N_1  and  C_20
REMARK    2  A    between atoms: C_11  and  C_16
REMARK    3  A    between atoms: C_20  and  C_21
REMARK    4  A    between atoms: C_21  and  C_22
REMARK    5  A    between atoms: C_27  and  O_28
REMARK                            x       y       z     vdW  Elec       q    Type
REMARK                         _______ _______ _______ _____ _____    ______ ____
ROOT
ATOM      1  N   UNL     1      35.475 -23.010 -15.177  0.00  0.00    -0.258 N 
ATOM      2  N   UNL     1      33.640 -21.299 -18.286  0.00  0.00    -0.059 N 
ATOM      3  N   UNL     1      35.607 -21.659 -17.058  0.00  0.00    -0.245 NA
ATOM      4  N   UNL     1      33.513 -22.628 -16.435  0.00  0.00    -0.294 NA
ATOM      5  N   UNL     1      33.163 -20.664 -19.366  0.00  0.00    -0.090 NA
ATOM      6  N   UNL     1      35.404 -20.296 -19.077  0.00  0.00    -0.267 NA
ATOM      7  N   UNL     1      31.553 -22.232 -17.711  0.00  0.00    -0.318 N 
ATOM      8  C   UNL     1      34.878 -22.405 -16.258  0.00  0.00    +0.213 C 
ATOM      9  C   UNL     1      34.977 -21.083 -18.110  0.00  0.00    +0.251 C 
ATOM     10  C   UNL     1      32.885 -22.086 -17.437  0.00  0.00    +0.282 C 
ATOM     11  C   UNL     1      34.272 -20.069 -19.811  0.00  0.00    +0.153 C 
ATOM     12  H   UNL     1      34.925 -23.568 -14.580  0.00  0.00    +0.160 HD
ATOM     13  H   UNL     1      31.159 -21.784 -18.495  0.00  0.00    +0.146 HD
ATOM     14  H   UNL     1      30.987 -22.786 -17.126  0.00  0.00    +0.146 HD
ENDROOT
BRANCH  11  16
ATOM     15  O   UNL     1      33.530 -19.466 -22.127  0.00  0.00    -0.439 OA
ATOM     16  C   UNL     1      34.277 -19.224 -21.018  0.00  0.00    +0.221 C 
ATOM     17  C   UNL     1      35.033 -18.086 -21.185  0.00  0.00    +0.052 C 
ATOM     18  C   UNL     1      34.730 -17.599 -22.479  0.00  0.00    +0.045 C 
ATOM     19  C   UNL     1      33.811 -18.473 -23.011  0.00  0.00    +0.181 C 
ENDBRANCH  11  16
BRANCH   1  20
ATOM     20  C   UNL     1      36.866 -22.856 -14.894  0.00  0.00    +0.103 C 
BRANCH  20  21
ATOM     21  C   UNL     1      37.357 -23.956 -13.954  0.00  0.00    +0.048 C 
BRANCH  21  22
ATOM     22  C   UNL     1      36.632 -23.972 -12.630  0.00  0.00    -0.020 C 
ATOM     23  C   UNL     1      36.616 -22.827 -11.850  0.00  0.00    -0.001 C 
ATOM     24  C   UNL     1      35.996 -25.132 -12.219  0.00  0.00    -0.001 C 
ATOM     25  C   UNL     1      35.946 -22.842 -10.627  0.00  0.00    +0.036 C 
ATOM     26  C   UNL     1      35.326 -25.148 -10.996  0.00  0.00    +0.036 C 
ATOM     27  C   UNL     1      35.301 -24.003 -10.200  0.00  0.00    +0.134 C 
BRANCH  27  28
ATOM     28  O   UNL     1      34.647 -24.016  -9.006  0.00  0.00    -0.506 OA
ATOM     29  H   UNL     1      34.940 -24.580  -8.318  0.00  0.00    +0.292 HD
ENDBRANCH  27  28
ENDBRANCH  21  22
ENDBRANCH  20  21
ENDBRANCH   1  20
TORSDOF 5
ENDMDL
MODEL 9
REMARK VINA RESULT:     -10.2      2.004      3.357
REMARK  Name = 176407
REMARK  5 active torsions:
REMARK  status: ('A' for Active; 'I' for Inactive)
REMARK    1  A    between atoms: N_1  and  C_20
REMARK    2  A    between atoms: C_11  and  C_16
REMARK    3  A    between atoms: C_20  and  C_21
REMARK    4  A    between atoms: C_21  and  C_22
REMARK    5  A    between atoms: C_27  and  O_28
REMARK                            x       y       z     vdW  Elec       q    Type
REMARK                         _______ _______ _______ _____ _____    ______ ____
ROOT
ATOM      1  N   UNL     1      33.076 -15.092 -22.565  0.00  0.00    -0.258 N 
ATOM      2  N   UNL     1      32.266 -11.190 -22.281  0.00  0.00    -0.059 N 
ATOM      3  N   UNL     1      33.515 -12.921 -23.257  0.00  0.00    -0.245 NA
ATOM      4  N   UNL     1      31.836 -13.327 -21.603  0.00  0.00    -0.294 NA
ATOM      5  N   UNL     1      32.104  -9.859 -22.295  0.00  0.00    -0.090 NA
ATOM      6  N   UNL     1      33.727 -10.538 -23.759  0.00  0.00    -0.267 NA
ATOM      7  N   UNL     1      30.602 -11.540 -20.648  0.00  0.00    -0.318 N 
ATOM      8  C   UNL     1      32.825 -13.742 -22.495  0.00  0.00    +0.213 C 
ATOM      9  C   UNL     1      33.233 -11.600 -23.154  0.00  0.00    +0.251 C 
ATOM     10  C   UNL     1      31.549 -12.063 -21.487  0.00  0.00    +0.282 C 
ATOM     11  C   UNL     1      33.014  -9.510 -23.207  0.00  0.00    +0.153 C 
ATOM     12  H   UNL     1      32.557 -15.703 -21.993  0.00  0.00    +0.160 HD
ATOM     13  H   UNL     1      30.449 -10.567 -20.625  0.00  0.00    +0.146 HD
ATOM     14  H   UNL     1      30.073 -12.135 -20.069  0.00  0.00    +0.146 HD
ENDROOT
BRANCH  11  16
ATOM     15  O   UNL     1      32.649  -7.504 -24.664  0.00  0.00    -0.439 OA
ATOM     16  C   UNL     1      33.234  -8.105 -23.595  0.00  0.00    +0.221 C 
ATOM     17  C   UNL     1      34.057  -7.221 -22.936  0.00  0.00    +0.052 C 
ATOM     18  C   UNL     1      33.971  -5.999 -23.645  0.00  0.00    +0.045 C 
ATOM     19  C   UNL     1      33.102  -6.223 -24.687  0.00  0.00    +0.181 C 
ENDBRANCH  11  16
BRANCH   1  20
ATOM     20  C   UNL     1      34.064 -15.635 -23.441  0.00  0.00    +0.103 C 
BRANCH  20  21
ATOM     21  C   UNL     1      33.864 -17.139 -23.624  0.00  0.00    +0.048 C 
BRANCH  21  22
ATOM     22  C   UNL     1      34.264 -17.941 -22.410  0.00  0.00    -0.020 C 
ATOM     23  C   UNL     1      35.520 -17.753 -21.855  0.00  0.00    -0.001 C 
ATOM     24  C   UNL     1      33.369 -18.852 -21.873  0.00  0.00    -0.001 C 
ATOM     25  C   UNL     1      35.890 -18.495 -20.734  0.00  0.00    +0.036 C 
ATOM     26  C   UNL     1      33.739 -19.594 -20.751  0.00  0.00    +0.036 C 
ATOM     27  C   UNL     1      34.999 -19.416 -20.182  0.00  0.00    +0.134 C 
BRANCH  27  28
ATOM     28  O   UNL     1      35.361 -20.139 -19.087  0.00  0.00    -0.506 OA
ATOM     29  H   UNL     1      35.697 -21.007 -19.189  0.00  0.00    +0.292 HD
ENDBRANCH  27  28
ENDBRANCH  21  22
ENDBRANCH  20  21
ENDBRANCH   1  20
TORSDOF 5
ENDMDL
