MODEL 1
REMARK VINA RESULT:     -12.3      0.000      0.000
REMARK  Name = 448889
REMARK  5 active torsions:
REMARK  status: ('A' for Active; 'I' for Inactive)
REMARK    1  A    between atoms: C_1  and  N_2
REMARK    2  A    between atoms: C_1  and  C_16
REMARK    3  A    between atoms: C_6  and  C_10
REMARK    4  A    between atoms: C_16  and  C_17
REMARK    5  A    between atoms: C_17  and  C_21
REMARK                            x       y       z     vdW  Elec       q    Type
REMARK                         _______ _______ _______ _____ _____    ______ ____
ROOT
ATOM      1  C   UNL     1      34.206 -15.637 -24.109  0.00  0.00    -0.076 C 
ENDROOT
BRANCH   1   2
ATOM      2  N   UNL     1      34.367 -16.752 -23.179  0.00  0.00    +0.390 N 
ATOM      3  C   UNL     1      33.374 -17.800 -23.434  0.00  0.00    -0.072 C 
ATOM      4  C   UNL     1      33.673 -19.026 -22.557  0.00  0.00    +0.003 C 
ATOM      5  C   UNL     1      34.285 -16.286 -21.786  0.00  0.00    -0.051 C 
ATOM      6  C   UNL     1      33.922 -18.670 -21.109  0.00  0.00    -0.031 C 
ATOM      7  C   UNL     1      34.202 -17.396 -20.773  0.00  0.00    -0.053 C 
ATOM      8  H   UNL     1      35.293 -17.153 -23.329  0.00  0.00    -0.079 HD
BRANCH   6  10
ATOM      9  F   UNL     1      33.670 -22.766 -17.277  0.00  0.00    -0.204 F 
ATOM     10  C   UNL     1      33.857 -19.751 -20.097  0.00  0.00    -0.004 C 
ATOM     11  C   UNL     1      35.032 -20.299 -19.579  0.00  0.00    +0.002 C 
ATOM     12  C   UNL     1      32.618 -20.224 -19.658  0.00  0.00    +0.002 C 
ATOM     13  C   UNL     1      34.969 -21.317 -18.626  0.00  0.00    +0.030 C 
ATOM     14  C   UNL     1      32.556 -21.242 -18.705  0.00  0.00    +0.030 C 
ATOM     15  C   UNL     1      33.731 -21.789 -18.190  0.00  0.00    +0.140 C 
ENDBRANCH   6  10
ENDBRANCH   1   2
BRANCH   1  16
ATOM     16  C   UNL     1      32.950 -14.834 -23.759  0.00  0.00    -0.014 C 
BRANCH  16  17
ATOM     17  C   UNL     1      33.213 -13.338 -23.694  0.00  0.00    +0.074 C 
BRANCH  17  21
ATOM     18  O   UNL     1      31.102 -13.697 -19.512  0.00  0.00    -0.209 OA
ATOM     19  N   UNL     1      32.306 -11.369 -22.546  0.00  0.00    -0.290 N 
ATOM     20  N   UNL     1      32.133 -13.529 -21.552  0.00  0.00    -0.322 NA
ATOM     21  C   UNL     1      32.504 -12.729 -22.510  0.00  0.00    +0.173 C 
ATOM     22  C   UNL     1      31.655 -10.750 -21.477  0.00  0.00    +0.058 C 
ATOM     23  C   UNL     1      31.222 -11.536 -20.400  0.00  0.00    +0.108 C 
ATOM     24  C   UNL     1      31.426  -9.371 -21.453  0.00  0.00    -0.008 C 
ATOM     25  C   UNL     1      31.481 -13.004 -20.450  0.00  0.00    +0.207 C 
ATOM     26  C   UNL     1      30.568 -10.955 -19.310  0.00  0.00    +0.014 C 
ATOM     27  C   UNL     1      30.772  -8.788 -20.366  0.00  0.00    -0.003 C 
ATOM     28  C   UNL     1      30.344  -9.578 -19.299  0.00  0.00    +0.001 C 
ATOM     29  C   UNL     1      31.867  -8.488 -22.575  0.00  0.00    +0.032 C 
ATOM     30  H   UNL     1      32.619 -10.839 -23.313  0.00  0.00    +0.154 HD
ENDBRANCH  17  21
ENDBRANCH  16  17
ENDBRANCH   1  16
TORSDOF 5
ENDMDL
MODEL 2
REMARK VINA RESULT:     -12.0      1.565      2.426
REMARK  Name = 448889
REMARK  5 active torsions:
REMARK  status: ('A' for Active; 'I' for Inactive)
REMARK    1  A    between atoms: C_1  and  N_2
REMARK    2  A    between atoms: C_1  and  C_16
REMARK    3  A    between atoms: C_6  and  C_10
REMARK    4  A    between atoms: C_16  and  C_17
REMARK    5  A    between atoms: C_17  and  C_21
REMARK                            x       y       z     vdW  Elec       q    Type
REMARK                         _______ _______ _______ _____ _____    ______ ____
ROOT
ATOM      1  C   UNL     1      34.112 -15.802 -23.953  0.00  0.00    -0.076 C 
ENDROOT
BRANCH   1   2
ATOM      2  N   UNL     1      33.787 -16.706 -22.851  0.00  0.00    +0.390 N 
ATOM      3  C   UNL     1      34.876 -16.756 -21.870  0.00  0.00    -0.072 C 
ATOM      4  C   UNL     1      34.439 -17.578 -20.648  0.00  0.00    +0.003 C 
ATOM      5  C   UNL     1      33.480 -18.053 -23.356  0.00  0.00    -0.051 C 
ATOM      6  C   UNL     1      33.803 -18.899 -21.021  0.00  0.00    -0.031 C 
ATOM      7  C   UNL     1      33.369 -19.099 -22.280  0.00  0.00    -0.053 C 
ATOM      8  H   UNL     1      32.958 -16.341 -22.382  0.00  0.00    -0.079 HD
BRANCH   6  10
ATOM      9  F   UNL     1      33.311 -22.837 -17.049  0.00  0.00    -0.204 F 
ATOM     10  C   UNL     1      33.674 -19.938 -19.972  0.00  0.00    -0.004 C 
ATOM     11  C   UNL     1      34.816 -20.513 -19.410  0.00  0.00    +0.002 C 
ATOM     12  C   UNL     1      32.409 -20.345 -19.542  0.00  0.00    +0.002 C 
ATOM     13  C   UNL     1      34.694 -21.491 -18.422  0.00  0.00    +0.030 C 
ATOM     14  C   UNL     1      32.287 -21.323 -18.555  0.00  0.00    +0.030 C 
ATOM     15  C   UNL     1      33.429 -21.897 -17.995  0.00  0.00    +0.140 C 
ENDBRANCH   6  10
ENDBRANCH   1   2
BRANCH   1  16
ATOM     16  C   UNL     1      33.073 -14.681 -24.041  0.00  0.00    -0.014 C 
BRANCH  16  17
ATOM     17  C   UNL     1      32.720 -14.105 -22.679  0.00  0.00    +0.074 C 
BRANCH  17  21
ATOM     18  O   UNL     1      34.006 -10.003 -24.575  0.00  0.00    -0.209 OA
ATOM     19  N   UNL     1      31.862 -11.973 -21.819  0.00  0.00    -0.290 N 
ATOM     20  N   UNL     1      33.383 -12.007 -23.654  0.00  0.00    -0.322 NA
ATOM     21  C   UNL     1      32.668 -12.598 -22.741  0.00  0.00    +0.173 C 
ATOM     22  C   UNL     1      31.774 -10.580 -21.829  0.00  0.00    +0.058 C 
ATOM     23  C   UNL     1      32.510  -9.861 -22.781  0.00  0.00    +0.108 C 
ATOM     24  C   UNL     1      30.971  -9.886 -20.919  0.00  0.00    -0.008 C 
ATOM     25  C   UNL     1      33.357 -10.626 -23.741  0.00  0.00    +0.207 C 
ATOM     26  C   UNL     1      32.448  -8.466 -22.826  0.00  0.00    +0.014 C 
ATOM     27  C   UNL     1      30.908  -8.492 -20.961  0.00  0.00    -0.003 C 
ATOM     28  C   UNL     1      31.645  -7.785 -21.911  0.00  0.00    +0.001 C 
ATOM     29  C   UNL     1      30.166 -10.603 -19.885  0.00  0.00    +0.032 C 
ATOM     30  H   UNL     1      31.355 -12.500 -21.161  0.00  0.00    +0.154 HD
ENDBRANCH  17  21
ENDBRANCH  16  17
ENDBRANCH   1  16
TORSDOF 5
ENDMDL
MODEL 3
REMARK VINA RESULT:     -11.9      1.361      2.356
REMARK  Name = 448889
REMARK  5 active torsions:
REMARK  status: ('A' for Active; 'I' for Inactive)
REMARK    1  A    between atoms: C_1  and  N_2
REMARK    2  A    between atoms: C_1  and  C_16
REMARK    3  A    between atoms: C_6  and  C_10
REMARK    4  A    between atoms: C_16  and  C_17
REMARK    5  A    between atoms: C_17  and  C_21
REMARK                            x       y       z     vdW  Elec       q    Type
REMARK                         _______ _______ _______ _____ _____    ______ ____
ROOT
ATOM      1  C   UNL     1      34.164 -15.638 -24.206  0.00  0.00    -0.076 C 
ENDROOT
BRANCH   1   2
ATOM      2  N   UNL     1      34.344 -16.732 -23.255  0.00  0.00    +0.390 N 
ATOM      3  C   UNL     1      33.407 -17.827 -23.525  0.00  0.00    -0.072 C 
ATOM      4  C   UNL     1      33.732 -19.026 -22.621  0.00  0.00    +0.003 C 
ATOM      5  C   UNL     1      34.196 -16.251 -21.872  0.00  0.00    -0.051 C 
ATOM      6  C   UNL     1      33.918 -18.639 -21.171  0.00  0.00    -0.031 C 
ATOM      7  C   UNL     1      34.129 -17.349 -20.845  0.00  0.00    -0.053 C 
ATOM      8  H   UNL     1      35.291 -17.093 -23.369  0.00  0.00    -0.079 HD
BRANCH   6  10
ATOM      9  F   UNL     1      33.729 -22.688 -17.285  0.00  0.00    -0.204 F 
ATOM     10  C   UNL     1      33.867 -19.708 -20.145  0.00  0.00    -0.004 C 
ATOM     11  C   UNL     1      32.637 -20.180 -19.684  0.00  0.00    +0.002 C 
ATOM     12  C   UNL     1      35.051 -20.248 -19.638  0.00  0.00    +0.002 C 
ATOM     13  C   UNL     1      32.589 -21.186 -18.719  0.00  0.00    +0.030 C 
ATOM     14  C   UNL     1      35.004 -21.254 -18.673  0.00  0.00    +0.030 C 
ATOM     15  C   UNL     1      33.774 -21.723 -18.212  0.00  0.00    +0.140 C 
ENDBRANCH   6  10
ENDBRANCH   1   2
BRANCH   1  16
ATOM     16  C   UNL     1      33.235 -14.573 -23.617  0.00  0.00    -0.014 C 
BRANCH  16  17
ATOM     17  C   UNL     1      33.458 -13.200 -24.231  0.00  0.00    +0.074 C 
BRANCH  17  21
ATOM     18  O   UNL     1      32.371  -8.715 -23.353  0.00  0.00    -0.209 OA
ATOM     19  N   UNL     1      32.325 -12.541 -22.156  0.00  0.00    -0.290 N 
ATOM     20  N   UNL     1      32.905 -10.901 -23.787  0.00  0.00    -0.322 NA
ATOM     21  C   UNL     1      32.863 -12.127 -23.353  0.00  0.00    +0.173 C 
ATOM     22  C   UNL     1      31.760 -11.591 -21.303  0.00  0.00    +0.058 C 
ATOM     23  C   UNL     1      31.759 -10.245 -21.692  0.00  0.00    +0.108 C 
ATOM     24  C   UNL     1      31.195 -11.949 -20.075  0.00  0.00    -0.008 C 
ATOM     25  C   UNL     1      32.366  -9.892 -23.008  0.00  0.00    +0.207 C 
ATOM     26  C   UNL     1      31.202  -9.264 -20.867  0.00  0.00    +0.014 C 
ATOM     27  C   UNL     1      30.639 -10.971 -19.249  0.00  0.00    -0.003 C 
ATOM     28  C   UNL     1      30.643  -9.633 -19.644  0.00  0.00    +0.001 C 
ATOM     29  C   UNL     1      31.170 -13.369 -19.613  0.00  0.00    +0.032 C 
ATOM     30  H   UNL     1      32.338 -13.492 -21.906  0.00  0.00    +0.154 HD
ENDBRANCH  17  21
ENDBRANCH  16  17
ENDBRANCH   1  16
TORSDOF 5
ENDMDL
MODEL 4
REMARK VINA RESULT:     -11.8      1.481      2.589
REMARK  Name = 448889
REMARK  5 active torsions:
REMARK  status: ('A' for Active; 'I' for Inactive)
REMARK    1  A    between atoms: C_1  and  N_2
REMARK    2  A    between atoms: C_1  and  C_16
REMARK    3  A    between atoms: C_6  and  C_10
REMARK    4  A    between atoms: C_16  and  C_17
REMARK    5  A    between atoms: C_17  and  C_21
REMARK                            x       y       z     vdW  Elec       q    Type
REMARK                         _______ _______ _______ _____ _____    ______ ____
ROOT
ATOM      1  C   UNL     1      34.094 -15.756 -24.033  0.00  0.00    -0.076 C 
ENDROOT
BRANCH   1   2
ATOM      2  N   UNL     1      33.805 -16.653 -22.917  0.00  0.00    +0.390 N 
ATOM      3  C   UNL     1      34.942 -16.734 -21.995  0.00  0.00    -0.072 C 
ATOM      4  C   UNL     1      34.549 -17.547 -20.752  0.00  0.00    +0.003 C 
ATOM      5  C   UNL     1      33.436 -17.991 -23.406  0.00  0.00    -0.051 C 
ATOM      6  C   UNL     1      33.861 -18.850 -21.091  0.00  0.00    -0.031 C 
ATOM      7  C   UNL     1      33.354 -19.036 -22.326  0.00  0.00    -0.053 C 
ATOM      8  H   UNL     1      33.012 -16.268 -22.404  0.00  0.00    -0.079 HD
BRANCH   6  10
ATOM      9  F   UNL     1      33.483 -22.781 -17.100  0.00  0.00    -0.204 F 
ATOM     10  C   UNL     1      33.760 -19.888 -20.038  0.00  0.00    -0.004 C 
ATOM     11  C   UNL     1      32.508 -20.308 -19.584  0.00  0.00    +0.002 C 
ATOM     12  C   UNL     1      34.919 -20.450 -19.497  0.00  0.00    +0.002 C 
ATOM     13  C   UNL     1      32.414 -21.285 -18.593  0.00  0.00    +0.030 C 
ATOM     14  C   UNL     1      34.825 -21.427 -18.505  0.00  0.00    +0.030 C 
ATOM     15  C   UNL     1      33.573 -21.844 -18.053  0.00  0.00    +0.140 C 
ENDBRANCH   6  10
ENDBRANCH   1   2
BRANCH   1  16
ATOM     16  C   UNL     1      33.273 -14.470 -23.904  0.00  0.00    -0.014 C 
BRANCH  16  17
ATOM     17  C   UNL     1      33.219 -13.953 -22.476  0.00  0.00    +0.074 C 
BRANCH  17  21
ATOM     18  O   UNL     1      30.674 -10.352 -20.855  0.00  0.00    -0.209 OA
ATOM     19  N   UNL     1      33.551 -11.672 -23.316  0.00  0.00    -0.290 N 
ATOM     20  N   UNL     1      31.912 -12.113 -21.642  0.00  0.00    -0.322 NA
ATOM     21  C   UNL     1      32.853 -12.490 -22.458  0.00  0.00    +0.173 C 
ATOM     22  C   UNL     1      33.255 -10.307 -23.343  0.00  0.00    +0.058 C 
ATOM     23  C   UNL     1      32.255  -9.814 -22.494  0.00  0.00    +0.108 C 
ATOM     24  C   UNL     1      33.931  -9.425 -24.190  0.00  0.00    -0.008 C 
ATOM     25  C   UNL     1      31.552 -10.777 -21.599  0.00  0.00    +0.207 C 
ATOM     26  C   UNL     1      31.930  -8.455 -22.489  0.00  0.00    +0.014 C 
ATOM     27  C   UNL     1      33.608  -8.066 -24.188  0.00  0.00    -0.003 C 
ATOM     28  C   UNL     1      32.610  -7.584 -23.341  0.00  0.00    +0.001 C 
ATOM     29  C   UNL     1      35.005  -9.899 -25.114  0.00  0.00    +0.032 C 
ATOM     30  H   UNL     1      34.249 -12.043 -23.902  0.00  0.00    +0.154 HD
ENDBRANCH  17  21
ENDBRANCH  16  17
ENDBRANCH   1  16
TORSDOF 5
ENDMDL
MODEL 5
REMARK VINA RESULT:     -11.7      5.260     10.568
REMARK  Name = 448889
REMARK  5 active torsions:
REMARK  status: ('A' for Active; 'I' for Inactive)
REMARK    1  A    between atoms: C_1  and  N_2
REMARK    2  A    between atoms: C_1  and  C_16
REMARK    3  A    between atoms: C_6  and  C_10
REMARK    4  A    between atoms: C_16  and  C_17
REMARK    5  A    between atoms: C_17  and  C_21
REMARK                            x       y       z     vdW  Elec       q    Type
REMARK                         _______ _______ _______ _____ _____    ______ ____
ROOT
ATOM      1  C   UNL     1      35.391 -21.234 -18.992  0.00  0.00    -0.076 C 
ENDROOT
BRANCH   1   2
ATOM      2  N   UNL     1      34.945 -19.960 -19.552  0.00  0.00    +0.390 N 
ATOM      3  C   UNL     1      33.935 -20.165 -20.595  0.00  0.00    -0.072 C 
ATOM      4  C   UNL     1      33.367 -18.810 -21.044  0.00  0.00    +0.003 C 
ATOM      5  C   UNL     1      36.086 -19.195 -20.078  0.00  0.00    -0.051 C 
ATOM      6  C   UNL     1      34.441 -17.787 -21.337  0.00  0.00    -0.031 C 
ATOM      7  C   UNL     1      35.693 -17.985 -20.882  0.00  0.00    -0.053 C 
ATOM      8  H   UNL     1      34.516 -19.421 -18.800  0.00  0.00    -0.079 HD
BRANCH   6  10
ATOM      9  F   UNL     1      33.042 -13.223 -24.293  0.00  0.00    -0.204 F 
ATOM     10  C   UNL     1      34.071 -16.582 -22.118  0.00  0.00    -0.004 C 
ATOM     11  C   UNL     1      33.877 -16.673 -23.497  0.00  0.00    +0.002 C 
ATOM     12  C   UNL     1      33.915 -15.352 -21.475  0.00  0.00    +0.002 C 
ATOM     13  C   UNL     1      33.529 -15.540 -24.232  0.00  0.00    +0.030 C 
ATOM     14  C   UNL     1      33.567 -14.219 -22.210  0.00  0.00    +0.030 C 
ATOM     15  C   UNL     1      33.375 -14.312 -23.588  0.00  0.00    +0.140 C 
ENDBRANCH   6  10
ENDBRANCH   1   2
BRANCH   1  16
ATOM     16  C   UNL     1      34.713 -21.484 -17.642  0.00  0.00    -0.014 C 
BRANCH  16  17
ATOM     17  C   UNL     1      33.305 -22.037 -17.790  0.00  0.00    +0.074 C 
BRANCH  17  21
ATOM     18  O   UNL     1      34.184 -24.274 -13.753  0.00  0.00    -0.209 OA
ATOM     19  N   UNL     1      31.497 -22.656 -16.250  0.00  0.00    -0.290 N 
ATOM     20  N   UNL     1      33.762 -23.183 -15.724  0.00  0.00    -0.322 NA
ATOM     21  C   UNL     1      32.850 -22.671 -16.499  0.00  0.00    +0.173 C 
ATOM     22  C   UNL     1      31.018 -23.228 -15.070  0.00  0.00    +0.058 C 
ATOM     23  C   UNL     1      31.931 -23.801 -14.175  0.00  0.00    +0.108 C 
ATOM     24  C   UNL     1      29.655 -23.242 -14.760  0.00  0.00    -0.008 C 
ATOM     25  C   UNL     1      33.380 -23.771 -14.531  0.00  0.00    +0.207 C 
ATOM     26  C   UNL     1      31.493 -24.383 -12.983  0.00  0.00    +0.014 C 
ATOM     27  C   UNL     1      29.214 -23.823 -13.570  0.00  0.00    -0.003 C 
ATOM     28  C   UNL     1      30.130 -24.392 -12.685  0.00  0.00    +0.001 C 
ATOM     29  C   UNL     1      28.640 -22.645 -15.679  0.00  0.00    +0.032 C 
ATOM     30  H   UNL     1      30.877 -22.247 -16.895  0.00  0.00    +0.154 HD
ENDBRANCH  17  21
ENDBRANCH  16  17
ENDBRANCH   1  16
TORSDOF 5
ENDMDL
MODEL 6
REMARK VINA RESULT:     -11.7      2.760      5.082
REMARK  Name = 448889
REMARK  5 active torsions:
REMARK  status: ('A' for Active; 'I' for Inactive)
REMARK    1  A    between atoms: C_1  and  N_2
REMARK    2  A    between atoms: C_1  and  C_16
REMARK    3  A    between atoms: C_6  and  C_10
REMARK    4  A    between atoms: C_16  and  C_17
REMARK    5  A    between atoms: C_17  and  C_21
REMARK                            x       y       z     vdW  Elec       q    Type
REMARK                         _______ _______ _______ _____ _____    ______ ____
ROOT
ATOM      1  C   UNL     1      34.857 -19.396 -20.985  0.00  0.00    -0.076 C 
ENDROOT
BRANCH   1   2
ATOM      2  N   UNL     1      34.344 -19.926 -19.724  0.00  0.00    +0.390 N 
ATOM      3  C   UNL     1      35.123 -21.087 -19.283  0.00  0.00    -0.072 C 
ATOM      4  C   UNL     1      34.670 -21.516 -17.879  0.00  0.00    +0.003 C 
ATOM      5  C   UNL     1      32.919 -20.272 -19.845  0.00  0.00    -0.051 C 
ATOM      6  C   UNL     1      33.167 -21.623 -17.750  0.00  0.00    -0.031 C 
ATOM      7  C   UNL     1      32.374 -21.042 -18.672  0.00  0.00    -0.053 C 
ATOM      8  H   UNL     1      34.439 -19.197 -19.017  0.00  0.00    -0.079 HD
BRANCH   6  10
ATOM      9  F   UNL     1      31.062 -24.443 -13.375  0.00  0.00    -0.204 F 
ATOM     10  C   UNL     1      32.610 -22.368 -16.596  0.00  0.00    -0.004 C 
ATOM     11  C   UNL     1      31.229 -22.527 -16.463  0.00  0.00    +0.002 C 
ATOM     12  C   UNL     1      33.467 -22.913 -15.637  0.00  0.00    +0.002 C 
ATOM     13  C   UNL     1      30.706 -23.228 -15.377  0.00  0.00    +0.030 C 
ATOM     14  C   UNL     1      32.943 -23.614 -14.550  0.00  0.00    +0.030 C 
ATOM     15  C   UNL     1      31.564 -23.771 -14.419  0.00  0.00    +0.140 C 
ENDBRANCH   6  10
ENDBRANCH   1   2
BRANCH   1  16
ATOM     16  C   UNL     1      33.698 -19.049 -21.923  0.00  0.00    -0.014 C 
BRANCH  16  17
ATOM     17  C   UNL     1      34.172 -18.480 -23.251  0.00  0.00    +0.074 C 
BRANCH  17  21
ATOM     18  O   UNL     1      32.811 -14.795 -25.827  0.00  0.00    -0.209 OA
ATOM     19  N   UNL     1      33.714 -16.300 -22.222  0.00  0.00    -0.290 N 
ATOM     20  N   UNL     1      33.476 -16.596 -24.576  0.00  0.00    -0.322 NA
ATOM     21  C   UNL     1      33.758 -17.036 -23.383  0.00  0.00    +0.173 C 
ATOM     22  C   UNL     1      33.337 -14.957 -22.284  0.00  0.00    +0.058 C 
ATOM     23  C   UNL     1      33.014 -14.401 -23.529  0.00  0.00    +0.108 C 
ATOM     24  C   UNL     1      33.272 -14.158 -21.140  0.00  0.00    -0.008 C 
ATOM     25  C   UNL     1      33.090 -15.277 -24.734  0.00  0.00    +0.207 C 
ATOM     26  C   UNL     1      32.630 -13.061 -23.634  0.00  0.00    +0.014 C 
ATOM     27  C   UNL     1      32.889 -12.819 -21.241  0.00  0.00    -0.003 C 
ATOM     28  C   UNL     1      32.571 -12.273 -22.485  0.00  0.00    +0.001 C 
ATOM     29  C   UNL     1      33.605 -14.701 -19.788  0.00  0.00    +0.032 C 
ATOM     30  H   UNL     1      33.946 -16.714 -21.361  0.00  0.00    +0.154 HD
ENDBRANCH  17  21
ENDBRANCH  16  17
ENDBRANCH   1  16
TORSDOF 5
ENDMDL
MODEL 7
REMARK VINA RESULT:     -11.5      3.439      6.221
REMARK  Name = 448889
REMARK  5 active torsions:
REMARK  status: ('A' for Active; 'I' for Inactive)
REMARK    1  A    between atoms: C_1  and  N_2
REMARK    2  A    between atoms: C_1  and  C_16
REMARK    3  A    between atoms: C_6  and  C_10
REMARK    4  A    between atoms: C_16  and  C_17
REMARK    5  A    between atoms: C_17  and  C_21
REMARK                            x       y       z     vdW  Elec       q    Type
REMARK                         _______ _______ _______ _____ _____    ______ ____
ROOT
ATOM      1  C   UNL     1      35.367 -20.920 -19.586  0.00  0.00    -0.076 C 
ENDROOT
BRANCH   1   2
ATOM      2  N   UNL     1      34.595 -21.705 -18.626  0.00  0.00    +0.390 N 
ATOM      3  C   UNL     1      33.202 -21.252 -18.570  0.00  0.00    -0.072 C 
ATOM      4  C   UNL     1      32.381 -22.199 -17.681  0.00  0.00    +0.003 C 
ATOM      5  C   UNL     1      35.214 -21.649 -17.292  0.00  0.00    -0.051 C 
ATOM      6  C   UNL     1      33.049 -22.494 -16.357  0.00  0.00    -0.031 C 
ATOM      7  C   UNL     1      34.360 -22.230 -16.196  0.00  0.00    -0.053 C 
ATOM      8  H   UNL     1      34.598 -22.675 -18.941  0.00  0.00    -0.079 HD
BRANCH   6  10
ATOM      9  F   UNL     1      29.941 -24.701 -12.234  0.00  0.00    -0.204 F 
ATOM     10  C   UNL     1      32.228 -23.077 -15.269  0.00  0.00    -0.004 C 
ATOM     11  C   UNL     1      30.834 -23.019 -15.334  0.00  0.00    +0.002 C 
ATOM     12  C   UNL     1      32.846 -23.686 -14.175  0.00  0.00    +0.002 C 
ATOM     13  C   UNL     1      30.061 -23.568 -14.311  0.00  0.00    +0.030 C 
ATOM     14  C   UNL     1      32.074 -24.235 -13.151  0.00  0.00    +0.030 C 
ATOM     15  C   UNL     1      30.682 -24.175 -13.218  0.00  0.00    +0.140 C 
ENDBRANCH   6  10
ENDBRANCH   1   2
BRANCH   1  16
ATOM     16  C   UNL     1      34.529 -19.749 -20.106  0.00  0.00    -0.014 C 
BRANCH  16  17
ATOM     17  C   UNL     1      35.357 -18.494 -20.330  0.00  0.00    +0.074 C 
BRANCH  17  21
ATOM     18  O   UNL     1      33.745 -17.692 -24.670  0.00  0.00    -0.209 OA
ATOM     19  N   UNL     1      34.333 -16.348 -20.939  0.00  0.00    -0.290 N 
ATOM     20  N   UNL     1      34.534 -18.089 -22.555  0.00  0.00    -0.322 NA
ATOM     21  C   UNL     1      34.701 -17.605 -21.358  0.00  0.00    +0.173 C 
ATOM     22  C   UNL     1      33.721 -15.482 -21.847  0.00  0.00    +0.058 C 
ATOM     23  C   UNL     1      33.500 -15.922 -23.159  0.00  0.00    +0.108 C 
ATOM     24  C   UNL     1      33.323 -14.193 -21.481  0.00  0.00    -0.008 C 
ATOM     25  C   UNL     1      33.933 -17.302 -23.522  0.00  0.00    +0.207 C 
ATOM     26  C   UNL     1      32.889 -15.087 -24.098  0.00  0.00    +0.014 C 
ATOM     27  C   UNL     1      32.713 -13.356 -22.417  0.00  0.00    -0.003 C 
ATOM     28  C   UNL     1      32.498 -13.802 -23.721  0.00  0.00    +0.001 C 
ATOM     29  C   UNL     1      33.535 -13.675 -20.096  0.00  0.00    +0.032 C 
ATOM     30  H   UNL     1      34.500 -16.063 -20.012  0.00  0.00    +0.154 HD
ENDBRANCH  17  21
ENDBRANCH  16  17
ENDBRANCH   1  16
TORSDOF 5
ENDMDL
MODEL 8
REMARK VINA RESULT:     -11.5      4.933     10.445
REMARK  Name = 448889
REMARK  5 active torsions:
REMARK  status: ('A' for Active; 'I' for Inactive)
REMARK    1  A    between atoms: C_1  and  N_2
REMARK    2  A    between atoms: C_1  and  C_16
REMARK    3  A    between atoms: C_6  and  C_10
REMARK    4  A    between atoms: C_16  and  C_17
REMARK    5  A    between atoms: C_17  and  C_21
REMARK                            x       y       z     vdW  Elec       q    Type
REMARK                         _______ _______ _______ _____ _____    ______ ____
ROOT
ATOM      1  C   UNL     1      35.423 -21.157 -18.660  0.00  0.00    -0.076 C 
ENDROOT
BRANCH   1   2
ATOM      2  N   UNL     1      34.962 -19.940 -19.323  0.00  0.00    +0.390 N 
ATOM      3  C   UNL     1      33.975 -20.245 -20.364  0.00  0.00    -0.072 C 
ATOM      4  C   UNL     1      33.388 -18.941 -20.925  0.00  0.00    +0.003 C 
ATOM      5  C   UNL     1      36.097 -19.193 -19.888  0.00  0.00    -0.051 C 
ATOM      6  C   UNL     1      34.446 -17.920 -21.277  0.00  0.00    -0.031 C 
ATOM      7  C   UNL     1      35.695 -18.056 -20.789  0.00  0.00    -0.053 C 
ATOM      8  H   UNL     1      34.509 -19.354 -18.622  0.00  0.00    -0.079 HD
BRANCH   6  10
ATOM      9  F   UNL     1      33.006 -13.631 -24.602  0.00  0.00    -0.204 F 
ATOM     10  C   UNL     1      34.067 -16.787 -22.155  0.00  0.00    -0.004 C 
ATOM     11  C   UNL     1      33.979 -15.495 -21.633  0.00  0.00    +0.002 C 
ATOM     12  C   UNL     1      33.796 -17.010 -23.507  0.00  0.00    +0.002 C 
ATOM     13  C   UNL     1      33.622 -14.429 -22.459  0.00  0.00    +0.030 C 
ATOM     14  C   UNL     1      33.439 -15.943 -24.332  0.00  0.00    +0.030 C 
ATOM     15  C   UNL     1      33.350 -14.654 -23.809  0.00  0.00    +0.140 C 
ENDBRANCH   6  10
ENDBRANCH   1   2
BRANCH   1  16
ATOM     16  C   UNL     1      34.456 -21.547 -17.540  0.00  0.00    -0.014 C 
BRANCH  16  17
ATOM     17  C   UNL     1      33.186 -22.197 -18.066  0.00  0.00    +0.074 C 
BRANCH  17  21
ATOM     18  O   UNL     1      28.894 -22.106 -16.157  0.00  0.00    -0.209 OA
ATOM     19  N   UNL     1      32.767 -23.081 -15.815  0.00  0.00    -0.290 N 
ATOM     20  N   UNL     1      30.985 -22.147 -17.094  0.00  0.00    -0.322 NA
ATOM     21  C   UNL     1      32.232 -22.484 -16.933  0.00  0.00    +0.173 C 
ATOM     22  C   UNL     1      31.932 -23.370 -14.734  0.00  0.00    +0.058 C 
ATOM     23  C   UNL     1      30.572 -23.043 -14.823  0.00  0.00    +0.108 C 
ATOM     24  C   UNL     1      32.416 -23.978 -13.572  0.00  0.00    -0.008 C 
ATOM     25  C   UNL     1      30.082 -22.397 -16.075  0.00  0.00    +0.207 C 
ATOM     26  C   UNL     1      29.702 -23.318 -13.764  0.00  0.00    +0.014 C 
ATOM     27  C   UNL     1      31.549 -24.253 -12.513  0.00  0.00    -0.003 C 
ATOM     28  C   UNL     1      30.197 -23.923 -12.609  0.00  0.00    +0.001 C 
ATOM     29  C   UNL     1      33.856 -24.347 -13.427  0.00  0.00    +0.032 C 
ATOM     30  H   UNL     1      33.726 -23.300 -15.778  0.00  0.00    +0.154 HD
ENDBRANCH  17  21
ENDBRANCH  16  17
ENDBRANCH   1  16
TORSDOF 5
ENDMDL
MODEL 9
REMARK VINA RESULT:     -11.3      2.380      3.725
REMARK  Name = 448889
REMARK  5 active torsions:
REMARK  status: ('A' for Active; 'I' for Inactive)
REMARK    1  A    between atoms: C_1  and  N_2
REMARK    2  A    between atoms: C_1  and  C_16
REMARK    3  A    between atoms: C_6  and  C_10
REMARK    4  A    between atoms: C_16  and  C_17
REMARK    5  A    between atoms: C_17  and  C_21
REMARK                            x       y       z     vdW  Elec       q    Type
REMARK                         _______ _______ _______ _____ _____    ______ ____
ROOT
ATOM      1  C   UNL     1      32.792 -13.527 -24.269  0.00  0.00    -0.076 C 
ENDROOT
BRANCH   1   2
ATOM      2  N   UNL     1      32.961 -14.689 -23.399  0.00  0.00    +0.390 N 
ATOM      3  C   UNL     1      33.828 -14.374 -22.259  0.00  0.00    -0.072 C 
ATOM      4  C   UNL     1      33.851 -15.557 -21.279  0.00  0.00    +0.003 C 
ATOM      5  C   UNL     1      33.494 -15.832 -24.155  0.00  0.00    -0.051 C 
ATOM      6  C   UNL     1      34.090 -16.885 -21.962  0.00  0.00    -0.031 C 
ATOM      7  C   UNL     1      33.921 -16.991 -23.294  0.00  0.00    -0.053 C 
ATOM      8  H   UNL     1      32.043 -14.944 -23.035  0.00  0.00    -0.079 HD
BRANCH   6  10
ATOM      9  F   UNL     1      35.646 -21.261 -18.806  0.00  0.00    -0.204 F 
ATOM     10  C   UNL     1      34.500 -18.041 -21.129  0.00  0.00    -0.004 C 
ATOM     11  C   UNL     1      33.561 -19.004 -20.755  0.00  0.00    +0.002 C 
ATOM     12  C   UNL     1      35.828 -18.169 -20.716  0.00  0.00    +0.002 C 
ATOM     13  C   UNL     1      33.948 -20.092 -19.972  0.00  0.00    +0.030 C 
ATOM     14  C   UNL     1      36.214 -19.257 -19.933  0.00  0.00    +0.030 C 
ATOM     15  C   UNL     1      35.275 -20.218 -19.560  0.00  0.00    +0.140 C 
ENDBRANCH   6  10
ENDBRANCH   1   2
BRANCH   1  16
ATOM     16  C   UNL     1      33.056 -12.238 -23.486  0.00  0.00    -0.014 C 
BRANCH  16  17
ATOM     17  C   UNL     1      33.409 -11.068 -24.392  0.00  0.00    +0.074 C 
BRANCH  17  21
ATOM     18  O   UNL     1      34.248  -6.484 -23.801  0.00  0.00    -0.209 OA
ATOM     19  N   UNL     1      32.285  -9.779 -22.633  0.00  0.00    -0.290 N 
ATOM     20  N   UNL     1      33.843  -8.720 -24.094  0.00  0.00    -0.322 NA
ATOM     21  C   UNL     1      33.181  -9.760 -23.676  0.00  0.00    +0.173 C 
ATOM     22  C   UNL     1      32.034  -8.596 -21.933  0.00  0.00    +0.058 C 
ATOM     23  C   UNL     1      32.703  -7.427 -22.318  0.00  0.00    +0.108 C 
ATOM     24  C   UNL     1      31.133  -8.550 -20.866  0.00  0.00    -0.008 C 
ATOM     25  C   UNL     1      33.657  -7.504 -23.461  0.00  0.00    +0.207 C 
ATOM     26  C   UNL     1      32.479  -6.222 -21.645  0.00  0.00    +0.014 C 
ATOM     27  C   UNL     1      30.907  -7.349 -20.191  0.00  0.00    -0.003 C 
ATOM     28  C   UNL     1      31.579  -6.190 -20.579  0.00  0.00    +0.001 C 
ATOM     29  C   UNL     1      30.393  -9.768 -20.416  0.00  0.00    +0.032 C 
ATOM     30  H   UNL     1      31.828 -10.613 -22.383  0.00  0.00    +0.154 HD
ENDBRANCH  17  21
ENDBRANCH  16  17
ENDBRANCH   1  16
TORSDOF 5
ENDMDL
