MODEL 1
REMARK VINA RESULT:     -12.2      0.000      0.000
REMARK  Name = 11476460
REMARK  8 active torsions:
REMARK  status: ('A' for Active; 'I' for Inactive)
REMARK    1  A    between atoms: C_2  and  N_10
REMARK    2  A    between atoms: C_5  and  C_23
REMARK    3  A    between atoms: C_11  and  C_14
REMARK    4  A    between atoms: C_14  and  O_15
REMARK    5  A    between atoms: O_15  and  P_16
REMARK    6  A    between atoms: P_16  and  O_18
REMARK    7  A    between atoms: P_16  and  O_20
REMARK    8  A    between atoms: C_27  and  C_32
REMARK                            x       y       z     vdW  Elec       q    Type
REMARK                         _______ _______ _______ _____ _____    ______ ____
ROOT
ATOM      1  F   UNL     1      32.515 -22.123 -17.720  0.00  0.00    -0.204 F 
ATOM      2  C   UNL     1      35.151 -22.893 -15.332  0.00  0.00    +0.059 C 
ATOM      3  C   UNL     1      33.907 -22.881 -15.970  0.00  0.00    +0.045 C 
ATOM      4  C   UNL     1      36.203 -22.138 -15.859  0.00  0.00    +0.015 C 
ATOM      5  C   UNL     1      34.769 -21.370 -17.646  0.00  0.00    +0.029 C 
ATOM      6  C   UNL     1      33.716 -22.122 -17.124  0.00  0.00    +0.141 C 
ATOM      7  C   UNL     1      36.013 -21.378 -17.013  0.00  0.00    +0.004 C 
ENDROOT
BRANCH   2  10
ATOM      8  O   UNL     1      35.472 -25.399 -12.710  0.00  0.00    -0.434 OA
ATOM      9  O   UNL     1      34.853 -25.880 -14.839  0.00  0.00    -0.226 OA
ATOM     10  N   UNL     1      35.345 -23.668 -14.154  0.00  0.00    -0.221 N 
ATOM     11  C   UNL     1      36.038 -24.271 -12.029  0.00  0.00    +0.221 C 
ATOM     12  C   UNL     1      35.632 -23.082 -12.873  0.00  0.00    +0.148 C 
ATOM     13  C   UNL     1      35.196 -25.046 -14.012  0.00  0.00    +0.409 C 
BRANCH  11  14
ATOM     14  C   UNL     1      37.547 -24.456 -11.942  0.00  0.00    +0.199 C 
BRANCH  14  15
ATOM     15  O   UNL     1      38.087 -24.398 -13.250  0.00  0.00    -0.269 OA
BRANCH  15  16
ATOM     16  P   UNL     1      38.921 -25.673 -13.799  0.00  0.00    +0.473 P 
ATOM     17  O   UNL     1      40.091 -26.079 -12.951  0.00  0.00    -0.227 OA
BRANCH  16  18
ATOM     18  O   UNL     1      39.279 -25.271 -15.324  0.00  0.00    -0.303 OA
ATOM     19  H   UNL     1      38.928 -25.945 -15.927  0.00  0.00    +0.222 HD
ENDBRANCH  16  18
BRANCH  16  20
ATOM     20  O   UNL     1      37.778 -26.805 -13.973  0.00  0.00    -0.303 OA
ATOM     21  H   UNL     1      37.842 -27.194 -14.859  0.00  0.00    +0.222 HD
ENDBRANCH  16  20
ENDBRANCH  15  16
ENDBRANCH  14  15
ENDBRANCH  11  14
ENDBRANCH   2  10
BRANCH   5  23
ATOM     22  N   UNL     1      33.078 -19.745 -20.543  0.00  0.00    -0.234 NA
ATOM     23  C   UNL     1      34.576 -20.579 -18.843  0.00  0.00    +0.021 C 
ATOM     24  C   UNL     1      35.641 -19.917 -19.440  0.00  0.00    +0.004 C 
ATOM     25  C   UNL     1      33.327 -20.464 -19.426  0.00  0.00    +0.100 C 
ATOM     26  C   UNL     1      35.425 -19.166 -20.590  0.00  0.00    +0.029 C 
ATOM     27  C   UNL     1      34.136 -19.112 -21.097  0.00  0.00    +0.146 C 
BRANCH  27  32
ATOM     28  N   UNL     1      34.071 -17.040 -22.382  0.00  0.00    -0.105 NA
ATOM     29  N   UNL     1      33.655 -16.850 -23.642  0.00  0.00    -0.113 N 
ATOM     30  N   UNL     1      33.343 -18.923 -23.409  0.00  0.00    -0.085 NA
ATOM     31  N   UNL     1      33.215 -17.938 -24.290  0.00  0.00    -0.018 NA
ATOM     32  C   UNL     1      33.856 -18.354 -22.283  0.00  0.00    +0.092 C 
ATOM     33  C   UNL     1      33.678 -15.552 -24.265  0.00  0.00    +0.163 C 
ENDBRANCH  27  32
ENDBRANCH   5  23
TORSDOF 8
ENDMDL
MODEL 2
REMARK VINA RESULT:     -11.7      1.052      1.556
REMARK  Name = 11476460
REMARK  8 active torsions:
REMARK  status: ('A' for Active; 'I' for Inactive)
REMARK    1  A    between atoms: C_2  and  N_10
REMARK    2  A    between atoms: C_5  and  C_23
REMARK    3  A    between atoms: C_11  and  C_14
REMARK    4  A    between atoms: C_14  and  O_15
REMARK    5  A    between atoms: O_15  and  P_16
REMARK    6  A    between atoms: P_16  and  O_18
REMARK    7  A    between atoms: P_16  and  O_20
REMARK    8  A    between atoms: C_27  and  C_32
REMARK                            x       y       z     vdW  Elec       q    Type
REMARK                         _______ _______ _______ _____ _____    ______ ____
ROOT
ATOM      1  F   UNL     1      36.596 -20.482 -17.221  0.00  0.00    -0.204 F 
ATOM      2  C   UNL     1      34.899 -23.006 -15.223  0.00  0.00    +0.059 C 
ATOM      3  C   UNL     1      35.866 -22.096 -15.661  0.00  0.00    +0.045 C 
ATOM      4  C   UNL     1      33.716 -23.159 -15.953  0.00  0.00    +0.015 C 
ATOM      5  C   UNL     1      34.473 -21.504 -17.543  0.00  0.00    +0.029 C 
ATOM      6  C   UNL     1      35.654 -21.347 -16.818  0.00  0.00    +0.141 C 
ATOM      7  C   UNL     1      33.504 -22.410 -17.111  0.00  0.00    +0.004 C 
ENDROOT
BRANCH   2  10
ATOM      8  O   UNL     1      35.359 -25.497 -12.607  0.00  0.00    -0.434 OA
ATOM      9  O   UNL     1      34.918 -26.014 -14.771  0.00  0.00    -0.226 OA
ATOM     10  N   UNL     1      35.116 -23.771 -14.042  0.00  0.00    -0.221 N 
ATOM     11  C   UNL     1      35.754 -24.322 -11.887  0.00  0.00    +0.221 C 
ATOM     12  C   UNL     1      35.262 -23.174 -12.742  0.00  0.00    +0.148 C 
ATOM     13  C   UNL     1      35.117 -25.159 -13.920  0.00  0.00    +0.409 C 
BRANCH  11  14
ATOM     14  C   UNL     1      37.268 -24.336 -11.716  0.00  0.00    +0.199 C 
BRANCH  14  15
ATOM     15  O   UNL     1      37.771 -25.555 -12.232  0.00  0.00    -0.269 OA
BRANCH  15  16
ATOM     16  P   UNL     1      38.683 -25.511 -13.569  0.00  0.00    +0.473 P 
ATOM     17  O   UNL     1      40.091 -25.999 -13.393  0.00  0.00    -0.227 OA
BRANCH  16  18
ATOM     18  O   UNL     1      38.540 -23.984 -14.081  0.00  0.00    -0.303 OA
ATOM     19  H   UNL     1      39.313 -23.749 -14.618  0.00  0.00    +0.222 HD
ENDBRANCH  16  18
BRANCH  16  20
ATOM     20  O   UNL     1      37.799 -26.345 -14.637  0.00  0.00    -0.303 OA
ATOM     21  H   UNL     1      37.835 -27.289 -14.418  0.00  0.00    +0.222 HD
ENDBRANCH  16  20
ENDBRANCH  15  16
ENDBRANCH  14  15
ENDBRANCH  11  14
ENDBRANCH   2  10
BRANCH   5  23
ATOM     22  N   UNL     1      35.167 -19.432 -20.562  0.00  0.00    -0.234 NA
ATOM     23  C   UNL     1      34.248 -20.730 -18.745  0.00  0.00    +0.021 C 
ATOM     24  C   UNL     1      32.965 -20.529 -19.236  0.00  0.00    +0.004 C 
ATOM     25  C   UNL     1      35.306 -20.166 -19.437  0.00  0.00    +0.100 C 
ATOM     26  C   UNL     1      32.780 -19.779 -20.392  0.00  0.00    +0.029 C 
ATOM     27  C   UNL     1      33.904 -19.257 -21.012  0.00  0.00    +0.146 C 
BRANCH  27  32
ATOM     28  N   UNL     1      33.981 -17.157 -22.249  0.00  0.00    -0.105 NA
ATOM     29  N   UNL     1      33.732 -16.941 -23.549  0.00  0.00    -0.113 N 
ATOM     30  N   UNL     1      33.420 -19.022 -23.404  0.00  0.00    -0.085 NA
ATOM     31  N   UNL     1      33.396 -18.018 -24.272  0.00  0.00    -0.018 NA
ATOM     32  C   UNL     1      33.772 -18.474 -22.208  0.00  0.00    +0.092 C 
ATOM     33  C   UNL     1      33.821 -15.629 -24.135  0.00  0.00    +0.163 C 
ENDBRANCH  27  32
ENDBRANCH   5  23
TORSDOF 8
ENDMDL
MODEL 3
REMARK VINA RESULT:     -10.9      7.100     11.043
REMARK  Name = 11476460
REMARK  8 active torsions:
REMARK  status: ('A' for Active; 'I' for Inactive)
REMARK    1  A    between atoms: C_2  and  N_10
REMARK    2  A    between atoms: C_5  and  C_23
REMARK    3  A    between atoms: C_11  and  C_14
REMARK    4  A    between atoms: C_14  and  O_15
REMARK    5  A    between atoms: O_15  and  P_16
REMARK    6  A    between atoms: P_16  and  O_18
REMARK    7  A    between atoms: P_16  and  O_20
REMARK    8  A    between atoms: C_27  and  C_32
REMARK                            x       y       z     vdW  Elec       q    Type
REMARK                         _______ _______ _______ _____ _____    ______ ____
ROOT
ATOM      1  F   UNL     1      32.225 -20.753 -19.060  0.00  0.00    -0.204 F 
ATOM      2  C   UNL     1      34.272 -18.808 -21.356  0.00  0.00    +0.059 C 
ATOM      3  C   UNL     1      33.157 -19.401 -20.757  0.00  0.00    +0.045 C 
ATOM      4  C   UNL     1      35.541 -19.014 -20.804  0.00  0.00    +0.015 C 
ATOM      5  C   UNL     1      34.575 -20.393 -19.071  0.00  0.00    +0.029 C 
ATOM      6  C   UNL     1      33.307 -20.192 -19.618  0.00  0.00    +0.141 C 
ATOM      7  C   UNL     1      35.692 -19.805 -19.665  0.00  0.00    +0.004 C 
ENDROOT
BRANCH   2  10
ATOM      8  O   UNL     1      33.602 -17.300 -24.601  0.00  0.00    -0.434 OA
ATOM      9  O   UNL     1      33.088 -19.448 -24.083  0.00  0.00    -0.226 OA
ATOM     10  N   UNL     1      34.118 -18.002 -22.518  0.00  0.00    -0.221 N 
ATOM     11  C   UNL     1      33.998 -16.130 -23.874  0.00  0.00    +0.221 C 
ATOM     12  C   UNL     1      34.652 -16.671 -22.620  0.00  0.00    +0.148 C 
ATOM     13  C   UNL     1      33.552 -18.371 -23.736  0.00  0.00    +0.409 C 
BRANCH  11  14
ATOM     14  C   UNL     1      32.763 -15.286 -23.589  0.00  0.00    +0.199 C 
BRANCH  14  15
ATOM     15  O   UNL     1      33.062 -13.932 -23.880  0.00  0.00    -0.269 OA
BRANCH  15  16
ATOM     16  P   UNL     1      33.000 -12.852 -22.675  0.00  0.00    +0.473 P 
ATOM     17  O   UNL     1      31.657 -12.707 -22.021  0.00  0.00    -0.227 OA
BRANCH  16  18
ATOM     18  O   UNL     1      33.596 -11.503 -23.338  0.00  0.00    -0.303 OA
ATOM     19  H   UNL     1      33.384 -10.743 -22.771  0.00  0.00    +0.222 HD
ENDBRANCH  16  18
BRANCH  16  20
ATOM     20  O   UNL     1      34.190 -13.339 -21.692  0.00  0.00    -0.303 OA
ATOM     21  H   UNL     1      34.018 -14.249 -21.404  0.00  0.00    +0.222 HD
ENDBRANCH  16  20
ENDBRANCH  15  16
ENDBRANCH  14  15
ENDBRANCH  11  14
ENDBRANCH   2  10
BRANCH   5  23
ATOM     22  N   UNL     1      33.820 -22.866 -16.386  0.00  0.00    -0.234 NA
ATOM     23  C   UNL     1      34.737 -21.214 -17.890  0.00  0.00    +0.021 C 
ATOM     24  C   UNL     1      35.902 -21.158 -17.136  0.00  0.00    +0.004 C 
ATOM     25  C   UNL     1      33.735 -22.075 -17.479  0.00  0.00    +0.100 C 
ATOM     26  C   UNL     1      36.028 -21.957 -16.005  0.00  0.00    +0.029 C 
ATOM     27  C   UNL     1      34.968 -22.786 -15.676  0.00  0.00    +0.146 C 
BRANCH  27  32
ATOM     28  N   UNL     1      34.807 -23.200 -13.278  0.00  0.00    -0.105 NA
ATOM     29  N   UNL     1      35.006 -24.346 -12.611  0.00  0.00    -0.113 N 
ATOM     30  N   UNL     1      35.364 -24.952 -14.599  0.00  0.00    -0.085 NA
ATOM     31  N   UNL     1      35.338 -25.411 -13.354  0.00  0.00    -0.018 NA
ATOM     32  C   UNL     1      35.042 -23.631 -14.519  0.00  0.00    +0.092 C 
ATOM     33  C   UNL     1      34.872 -24.429 -11.180  0.00  0.00    +0.163 C 
ENDBRANCH  27  32
ENDBRANCH   5  23
TORSDOF 8
ENDMDL
MODEL 4
REMARK VINA RESULT:     -10.4      1.864      2.638
REMARK  Name = 11476460
REMARK  8 active torsions:
REMARK  status: ('A' for Active; 'I' for Inactive)
REMARK    1  A    between atoms: C_2  and  N_10
REMARK    2  A    between atoms: C_5  and  C_23
REMARK    3  A    between atoms: C_11  and  C_14
REMARK    4  A    between atoms: C_14  and  O_15
REMARK    5  A    between atoms: O_15  and  P_16
REMARK    6  A    between atoms: P_16  and  O_18
REMARK    7  A    between atoms: P_16  and  O_20
REMARK    8  A    between atoms: C_27  and  C_32
REMARK                            x       y       z     vdW  Elec       q    Type
REMARK                         _______ _______ _______ _____ _____    ______ ____
ROOT
ATOM      1  F   UNL     1      32.332 -21.682 -18.683  0.00  0.00    -0.204 F 
ATOM      2  C   UNL     1      34.855 -22.579 -16.218  0.00  0.00    +0.059 C 
ATOM      3  C   UNL     1      33.647 -22.545 -16.923  0.00  0.00    +0.045 C 
ATOM      4  C   UNL     1      35.913 -21.761 -16.626  0.00  0.00    +0.015 C 
ATOM      5  C   UNL     1      34.557 -20.886 -18.425  0.00  0.00    +0.029 C 
ATOM      6  C   UNL     1      33.498 -21.701 -18.023  0.00  0.00    +0.141 C 
ATOM      7  C   UNL     1      35.764 -20.916 -17.726  0.00  0.00    +0.004 C 
ENDROOT
BRANCH   2  10
ATOM      8  O   UNL     1      35.874 -24.539 -13.324  0.00  0.00    -0.434 OA
ATOM      9  O   UNL     1      37.240 -23.084 -14.401  0.00  0.00    -0.226 OA
ATOM     10  N   UNL     1      35.006 -23.441 -15.096  0.00  0.00    -0.221 N 
ATOM     11  C   UNL     1      34.469 -24.827 -13.321  0.00  0.00    +0.221 C 
ATOM     12  C   UNL     1      33.990 -24.371 -14.683  0.00  0.00    +0.148 C 
ATOM     13  C   UNL     1      36.140 -23.609 -14.303  0.00  0.00    +0.409 C 
BRANCH  11  14
ATOM     14  C   UNL     1      33.815 -24.071 -12.172  0.00  0.00    +0.199 C 
BRANCH  14  15
ATOM     15  O   UNL     1      34.268 -24.624 -10.949  0.00  0.00    -0.269 OA
BRANCH  15  16
ATOM     16  P   UNL     1      35.473 -23.880 -10.164  0.00  0.00    +0.473 P 
ATOM     17  O   UNL     1      35.279 -23.752  -8.681  0.00  0.00    -0.227 OA
BRANCH  16  18
ATOM     18  O   UNL     1      35.647 -22.485 -10.961  0.00  0.00    -0.303 OA
ATOM     19  H   UNL     1      36.355 -21.963 -10.549  0.00  0.00    +0.222 HD
ENDBRANCH  16  18
BRANCH  16  20
ATOM     20  O   UNL     1      36.775 -24.729 -10.612  0.00  0.00    -0.303 OA
ATOM     21  H   UNL     1      37.355 -24.170 -11.151  0.00  0.00    +0.222 HD
ENDBRANCH  16  20
ENDBRANCH  15  16
ENDBRANCH  14  15
ENDBRANCH  11  14
ENDBRANCH   2  10
BRANCH   5  23
ATOM     22  N   UNL     1      32.985 -19.085 -21.284  0.00  0.00    -0.234 NA
ATOM     23  C   UNL     1      34.408 -20.008 -19.565  0.00  0.00    +0.021 C 
ATOM     24  C   UNL     1      35.481 -19.266 -20.040  0.00  0.00    +0.004 C 
ATOM     25  C   UNL     1      33.193 -19.884 -20.214  0.00  0.00    +0.100 C 
ATOM     26  C   UNL     1      35.308 -18.431 -21.138  0.00  0.00    +0.029 C 
ATOM     27  C   UNL     1      34.051 -18.377 -21.719  0.00  0.00    +0.146 C 
BRANCH  27  32
ATOM     28  N   UNL     1      33.884 -16.202 -22.810  0.00  0.00    -0.105 NA
ATOM     29  N   UNL     1      33.589 -15.928 -24.088  0.00  0.00    -0.113 N 
ATOM     30  N   UNL     1      33.498 -18.035 -24.083  0.00  0.00    -0.085 NA
ATOM     31  N   UNL     1      33.352 -16.983 -24.880  0.00  0.00    -0.018 NA
ATOM     32  C   UNL     1      33.815 -17.534 -22.856  0.00  0.00    +0.092 C 
ATOM     33  C   UNL     1      33.528 -14.577 -24.584  0.00  0.00    +0.163 C 
ENDBRANCH  27  32
ENDBRANCH   5  23
TORSDOF 8
ENDMDL
MODEL 5
REMARK VINA RESULT:     -10.3      7.124     11.140
REMARK  Name = 11476460
REMARK  8 active torsions:
REMARK  status: ('A' for Active; 'I' for Inactive)
REMARK    1  A    between atoms: C_2  and  N_10
REMARK    2  A    between atoms: C_5  and  C_23
REMARK    3  A    between atoms: C_11  and  C_14
REMARK    4  A    between atoms: C_14  and  O_15
REMARK    5  A    between atoms: O_15  and  P_16
REMARK    6  A    between atoms: P_16  and  O_18
REMARK    7  A    between atoms: P_16  and  O_20
REMARK    8  A    between atoms: C_27  and  C_32
REMARK                            x       y       z     vdW  Elec       q    Type
REMARK                         _______ _______ _______ _____ _____    ______ ____
ROOT
ATOM      1  F   UNL     1      36.531 -20.078 -19.142  0.00  0.00    -0.204 F 
ATOM      2  C   UNL     1      33.994 -18.849 -21.443  0.00  0.00    +0.059 C 
ATOM      3  C   UNL     1      35.235 -19.073 -20.840  0.00  0.00    +0.045 C 
ATOM      4  C   UNL     1      32.848 -19.440 -20.900  0.00  0.00    +0.015 C 
ATOM      5  C   UNL     1      34.185 -20.465 -19.168  0.00  0.00    +0.029 C 
ATOM      6  C   UNL     1      35.331 -19.878 -19.706  0.00  0.00    +0.141 C 
ATOM      7  C   UNL     1      32.944 -20.246 -19.766  0.00  0.00    +0.004 C 
ENDROOT
BRANCH   2  10
ATOM      8  O   UNL     1      33.446 -17.286 -24.685  0.00  0.00    -0.434 OA
ATOM      9  O   UNL     1      32.827 -19.412 -24.195  0.00  0.00    -0.226 OA
ATOM     10  N   UNL     1      33.896 -18.027 -22.601  0.00  0.00    -0.221 N 
ATOM     11  C   UNL     1      33.883 -16.140 -23.941  0.00  0.00    +0.221 C 
ATOM     12  C   UNL     1      34.491 -16.721 -22.682  0.00  0.00    +0.148 C 
ATOM     13  C   UNL     1      33.333 -18.360 -23.831  0.00  0.00    +0.409 C 
BRANCH  11  14
ATOM     14  C   UNL     1      32.682 -15.243 -23.669  0.00  0.00    +0.199 C 
BRANCH  14  15
ATOM     15  O   UNL     1      33.077 -13.894 -23.839  0.00  0.00    -0.269 OA
BRANCH  15  16
ATOM     16  P   UNL     1      33.197 -12.953 -22.527  0.00  0.00    +0.473 P 
ATOM     17  O   UNL     1      34.124 -13.463 -21.463  0.00  0.00    -0.227 OA
BRANCH  16  18
ATOM     18  O   UNL     1      31.662 -12.742 -22.063  0.00  0.00    -0.303 OA
ATOM     19  H   UNL     1      31.086 -13.329 -22.578  0.00  0.00    +0.222 HD
ENDBRANCH  16  18
BRANCH  16  20
ATOM     20  O   UNL     1      33.598 -11.514 -23.149  0.00  0.00    -0.303 OA
ATOM     21  H   UNL     1      34.564 -11.435 -23.181  0.00  0.00    +0.222 HD
ENDBRANCH  16  20
ENDBRANCH  15  16
ENDBRANCH  14  15
ENDBRANCH  11  14
ENDBRANCH   2  10
BRANCH   5  23
ATOM     22  N   UNL     1      35.620 -22.164 -16.177  0.00  0.00    -0.234 NA
ATOM     23  C   UNL     1      34.279 -21.301 -17.991  0.00  0.00    +0.021 C 
ATOM     24  C   UNL     1      33.184 -22.027 -17.541  0.00  0.00    +0.004 C 
ATOM     25  C   UNL     1      35.463 -21.402 -17.282  0.00  0.00    +0.100 C 
ATOM     26  C   UNL     1      33.305 -22.823 -16.407  0.00  0.00    +0.029 C 
ATOM     27  C   UNL     1      34.533 -22.857 -15.767  0.00  0.00    +0.146 C 
BRANCH  27  32
ATOM     28  N   UNL     1      35.671 -24.587 -14.479  0.00  0.00    -0.105 NA
ATOM     29  N   UNL     1      35.401 -25.021 -13.240  0.00  0.00    -0.113 N 
ATOM     30  N   UNL     1      33.919 -23.543 -13.496  0.00  0.00    -0.085 NA
ATOM     31  N   UNL     1      34.371 -24.431 -12.618  0.00  0.00    -0.018 NA
ATOM     32  C   UNL     1      34.716 -23.662 -14.594  0.00  0.00    +0.092 C 
ATOM     33  C   UNL     1      36.172 -26.062 -12.611  0.00  0.00    +0.163 C 
ENDBRANCH  27  32
ENDBRANCH   5  23
TORSDOF 8
ENDMDL
MODEL 6
REMARK VINA RESULT:      -9.9     11.607     15.522
REMARK  Name = 11476460
REMARK  8 active torsions:
REMARK  status: ('A' for Active; 'I' for Inactive)
REMARK    1  A    between atoms: C_2  and  N_10
REMARK    2  A    between atoms: C_5  and  C_23
REMARK    3  A    between atoms: C_11  and  C_14
REMARK    4  A    between atoms: C_14  and  O_15
REMARK    5  A    between atoms: O_15  and  P_16
REMARK    6  A    between atoms: P_16  and  O_18
REMARK    7  A    between atoms: P_16  and  O_20
REMARK    8  A    between atoms: C_27  and  C_32
REMARK                            x       y       z     vdW  Elec       q    Type
REMARK                         _______ _______ _______ _____ _____    ______ ____
ROOT
ATOM      1  F   UNL     1      31.520 -11.465 -21.361  0.00  0.00    -0.204 F 
ATOM      2  C   UNL     1      32.678  -8.810 -23.565  0.00  0.00    +0.059 C 
ATOM      3  C   UNL     1      31.992  -9.478 -22.545  0.00  0.00    +0.045 C 
ATOM      4  C   UNL     1      33.564  -9.522 -24.380  0.00  0.00    +0.015 C 
ATOM      5  C   UNL     1      33.074 -11.549 -23.159  0.00  0.00    +0.029 C 
ATOM      6  C   UNL     1      32.189 -10.844 -22.343  0.00  0.00    +0.141 C 
ATOM      7  C   UNL     1      33.761 -10.888 -24.177  0.00  0.00    +0.004 C 
ENDROOT
BRANCH   2  10
ATOM      8  O   UNL     1      31.733  -5.443 -24.579  0.00  0.00    -0.434 OA
ATOM      9  O   UNL     1      30.899  -7.324 -25.534  0.00  0.00    -0.226 OA
ATOM     10  N   UNL     1      32.477  -7.417 -23.772  0.00  0.00    -0.221 N 
ATOM     11  C   UNL     1      32.488  -5.132 -23.400  0.00  0.00    +0.221 C 
ATOM     12  C   UNL     1      33.241  -6.408 -23.089  0.00  0.00    +0.148 C 
ATOM     13  C   UNL     1      31.629  -6.811 -24.697  0.00  0.00    +0.409 C 
BRANCH  11  14
ATOM     14  C   UNL     1      31.526  -4.720 -22.294  0.00  0.00    +0.199 C 
BRANCH  14  15
ATOM     15  O   UNL     1      31.880  -5.404 -21.106  0.00  0.00    -0.269 OA
BRANCH  15  16
ATOM     16  P   UNL     1      30.808  -5.454 -19.893  0.00  0.00    +0.473 P 
ATOM     17  O   UNL     1      29.478  -4.828 -20.197  0.00  0.00    -0.227 OA
BRANCH  16  18
ATOM     18  O   UNL     1      31.608  -4.806 -18.646  0.00  0.00    -0.303 OA
ATOM     19  H   UNL     1      31.859  -3.893 -18.862  0.00  0.00    +0.222 HD
ENDBRANCH  16  18
BRANCH  16  20
ATOM     20  O   UNL     1      30.754  -7.027 -19.522  0.00  0.00    -0.303 OA
ATOM     21  H   UNL     1      31.267  -7.530 -20.174  0.00  0.00    +0.222 HD
ENDBRANCH  16  20
ENDBRANCH  15  16
ENDBRANCH  14  15
ENDBRANCH  11  14
ENDBRANCH   2  10
BRANCH   5  23
ATOM     22  N   UNL     1      33.917 -14.763 -21.471  0.00  0.00    -0.234 NA
ATOM     23  C   UNL     1      33.281 -12.967 -22.953  0.00  0.00    +0.021 C 
ATOM     24  C   UNL     1      33.065 -13.876 -23.981  0.00  0.00    +0.004 C 
ATOM     25  C   UNL     1      33.702 -13.454 -21.729  0.00  0.00    +0.100 C 
ATOM     26  C   UNL     1      33.274 -15.231 -23.754  0.00  0.00    +0.029 C 
ATOM     27  C   UNL     1      33.696 -15.621 -22.492  0.00  0.00    +0.146 C 
BRANCH  27  32
ATOM     28  N   UNL     1      34.233 -17.461 -20.985  0.00  0.00    -0.105 NA
ATOM     29  N   UNL     1      34.341 -18.768 -21.266  0.00  0.00    -0.113 N 
ATOM     30  N   UNL     1      33.858 -17.974 -23.159  0.00  0.00    -0.085 NA
ATOM     31  N   UNL     1      34.127 -19.118 -22.542  0.00  0.00    -0.018 NA
ATOM     32  C   UNL     1      33.929 -17.007 -22.203  0.00  0.00    +0.092 C 
ATOM     33  C   UNL     1      34.669 -19.740 -20.255  0.00  0.00    +0.163 C 
ENDBRANCH  27  32
ENDBRANCH   5  23
TORSDOF 8
ENDMDL
MODEL 7
REMARK VINA RESULT:      -9.8      6.068      9.262
REMARK  Name = 11476460
REMARK  8 active torsions:
REMARK  status: ('A' for Active; 'I' for Inactive)
REMARK    1  A    between atoms: C_2  and  N_10
REMARK    2  A    between atoms: C_5  and  C_23
REMARK    3  A    between atoms: C_11  and  C_14
REMARK    4  A    between atoms: C_14  and  O_15
REMARK    5  A    between atoms: O_15  and  P_16
REMARK    6  A    between atoms: P_16  and  O_18
REMARK    7  A    between atoms: P_16  and  O_20
REMARK    8  A    between atoms: C_27  and  C_32
REMARK                            x       y       z     vdW  Elec       q    Type
REMARK                         _______ _______ _______ _____ _____    ______ ____
ROOT
ATOM      1  F   UNL     1      33.454 -14.684 -24.450  0.00  0.00    -0.204 F 
ATOM      2  C   UNL     1      33.970 -16.641 -21.426  0.00  0.00    +0.059 C 
ATOM      3  C   UNL     1      33.846 -16.302 -22.777  0.00  0.00    +0.045 C 
ATOM      4  C   UNL     1      33.815 -15.651 -20.450  0.00  0.00    +0.015 C 
ATOM      5  C   UNL     1      33.416 -14.003 -22.172  0.00  0.00    +0.029 C 
ATOM      6  C   UNL     1      33.570 -14.987 -23.149  0.00  0.00    +0.141 C 
ATOM      7  C   UNL     1      33.539 -14.335 -20.823  0.00  0.00    +0.004 C 
ENDROOT
BRANCH   2  10
ATOM      8  O   UNL     1      35.253 -19.813 -20.180  0.00  0.00    -0.434 OA
ATOM      9  O   UNL     1      36.321 -17.831 -19.906  0.00  0.00    -0.226 OA
ATOM     10  N   UNL     1      34.252 -17.983 -21.045  0.00  0.00    -0.221 N 
ATOM     11  C   UNL     1      33.945 -20.233 -20.593  0.00  0.00    +0.221 C 
ATOM     12  C   UNL     1      33.443 -19.098 -21.460  0.00  0.00    +0.148 C 
ATOM     13  C   UNL     1      35.356 -18.449 -20.335  0.00  0.00    +0.409 C 
BRANCH  11  14
ATOM     14  C   UNL     1      33.090 -20.463 -19.354  0.00  0.00    +0.199 C 
BRANCH  14  15
ATOM     15  O   UNL     1      33.808 -21.290 -18.455  0.00  0.00    -0.269 OA
BRANCH  15  16
ATOM     16  P   UNL     1      33.010 -22.471 -17.687  0.00  0.00    +0.473 P 
ATOM     17  O   UNL     1      33.573 -22.850 -16.348  0.00  0.00    -0.227 OA
BRANCH  16  18
ATOM     18  O   UNL     1      32.951 -23.666 -18.775  0.00  0.00    -0.303 OA
ATOM     19  H   UNL     1      32.041 -23.996 -18.843  0.00  0.00    +0.222 HD
ENDBRANCH  16  18
BRANCH  16  20
ATOM     20  O   UNL     1      31.489 -21.921 -17.657  0.00  0.00    -0.303 OA
ATOM     21  H   UNL     1      30.953 -22.486 -17.080  0.00  0.00    +0.222 HD
ENDBRANCH  16  20
ENDBRANCH  15  16
ENDBRANCH  14  15
ENDBRANCH  11  14
ENDBRANCH   2  10
BRANCH   5  23
ATOM     22  N   UNL     1      31.972 -10.568 -22.091  0.00  0.00    -0.234 NA
ATOM     23  C   UNL     1      33.128 -12.637 -22.553  0.00  0.00    +0.021 C 
ATOM     24  C   UNL     1      33.690 -12.081 -23.695  0.00  0.00    +0.004 C 
ATOM     25  C   UNL     1      32.284 -11.849 -21.792  0.00  0.00    +0.100 C 
ATOM     26  C   UNL     1      33.393 -10.766 -24.037  0.00  0.00    +0.029 C 
ATOM     27  C   UNL     1      32.536 -10.059 -23.209  0.00  0.00    +0.146 C 
BRANCH  27  32
ATOM     28  N   UNL     1      31.235  -8.023 -22.878  0.00  0.00    -0.105 NA
ATOM     29  N   UNL     1      31.329  -6.855 -23.529  0.00  0.00    -0.113 N 
ATOM     30  N   UNL     1      32.827  -7.988 -24.488  0.00  0.00    -0.085 NA
ATOM     31  N   UNL     1      32.260  -6.788 -24.491  0.00  0.00    -0.018 NA
ATOM     32  C   UNL     1      32.194  -8.699 -23.514  0.00  0.00    +0.092 C 
ATOM     33  C   UNL     1      30.480  -5.735 -23.214  0.00  0.00    +0.163 C 
ENDBRANCH  27  32
ENDBRANCH   5  23
TORSDOF 8
ENDMDL
MODEL 8
REMARK VINA RESULT:      -9.6     11.727     15.199
REMARK  Name = 11476460
REMARK  8 active torsions:
REMARK  status: ('A' for Active; 'I' for Inactive)
REMARK    1  A    between atoms: C_2  and  N_10
REMARK    2  A    between atoms: C_5  and  C_23
REMARK    3  A    between atoms: C_11  and  C_14
REMARK    4  A    between atoms: C_14  and  O_15
REMARK    5  A    between atoms: O_15  and  P_16
REMARK    6  A    between atoms: P_16  and  O_18
REMARK    7  A    between atoms: P_16  and  O_20
REMARK    8  A    between atoms: C_27  and  C_32
REMARK                            x       y       z     vdW  Elec       q    Type
REMARK                         _______ _______ _______ _____ _____    ______ ____
ROOT
ATOM      1  F   UNL     1      31.202 -11.615 -21.061  0.00  0.00    -0.204 F 
ATOM      2  C   UNL     1      32.264  -8.652 -22.889  0.00  0.00    +0.059 C 
ATOM      3  C   UNL     1      31.597  -9.474 -21.975  0.00  0.00    +0.045 C 
ATOM      4  C   UNL     1      33.192  -9.215 -23.772  0.00  0.00    +0.015 C 
ATOM      5  C   UNL     1      32.780 -11.401 -22.827  0.00  0.00    +0.029 C 
ATOM      6  C   UNL     1      31.854 -10.845 -21.944  0.00  0.00    +0.141 C 
ATOM      7  C   UNL     1      33.449 -10.586 -23.741  0.00  0.00    +0.004 C 
ENDROOT
BRANCH   2  10
ATOM      8  O   UNL     1      31.126  -5.237 -23.434  0.00  0.00    -0.434 OA
ATOM      9  O   UNL     1      30.266  -7.036 -24.515  0.00  0.00    -0.226 OA
ATOM     10  N   UNL     1      32.002  -7.254 -22.921  0.00  0.00    -0.221 N 
ATOM     11  C   UNL     1      31.977  -5.025 -22.299  0.00  0.00    +0.221 C 
ATOM     12  C   UNL     1      32.794  -6.295 -22.200  0.00  0.00    +0.148 C 
ATOM     13  C   UNL     1      31.054  -6.587 -23.694  0.00  0.00    +0.409 C 
BRANCH  11  14
ATOM     14  C   UNL     1      31.109  -4.774 -21.073  0.00  0.00    +0.199 C 
BRANCH  14  15
ATOM     15  O   UNL     1      30.924  -6.001 -20.390  0.00  0.00    -0.269 OA
BRANCH  15  16
ATOM     16  P   UNL     1      31.331  -6.082 -18.825  0.00  0.00    +0.473 P 
ATOM     17  O   UNL     1      30.269  -6.636 -17.921  0.00  0.00    -0.227 OA
BRANCH  16  18
ATOM     18  O   UNL     1      31.821  -4.581 -18.477  0.00  0.00    -0.303 OA
ATOM     19  H   UNL     1      32.644  -4.620 -17.964  0.00  0.00    +0.222 HD
ENDBRANCH  16  18
BRANCH  16  20
ATOM     20  O   UNL     1      32.711  -6.926 -18.854  0.00  0.00    -0.303 OA
ATOM     21  H   UNL     1      33.293  -6.570 -19.544  0.00  0.00    +0.222 HD
ENDBRANCH  16  20
ENDBRANCH  15  16
ENDBRANCH  14  15
ENDBRANCH  11  14
ENDBRANCH   2  10
BRANCH   5  23
ATOM     22  N   UNL     1      33.044 -14.944 -23.953  0.00  0.00    -0.234 NA
ATOM     23  C   UNL     1      33.049 -12.822 -22.800  0.00  0.00    +0.021 C 
ATOM     24  C   UNL     1      33.546 -13.433 -21.656  0.00  0.00    +0.004 C 
ATOM     25  C   UNL     1      32.817 -13.612 -23.912  0.00  0.00    +0.100 C 
ATOM     26  C   UNL     1      33.793 -14.801 -21.659  0.00  0.00    +0.029 C 
ATOM     27  C   UNL     1      33.528 -15.506 -22.823  0.00  0.00    +0.146 C 
BRANCH  27  32
ATOM     28  N   UNL     1      33.566 -17.651 -23.981  0.00  0.00    -0.105 NA
ATOM     29  N   UNL     1      33.922 -18.853 -23.505  0.00  0.00    -0.113 N 
ATOM     30  N   UNL     1      34.209 -17.631 -21.810  0.00  0.00    -0.085 NA
ATOM     31  N   UNL     1      34.311 -18.889 -22.223  0.00  0.00    -0.018 NA
ATOM     32  C   UNL     1      33.763 -16.920 -22.883  0.00  0.00    +0.092 C 
ATOM     33  C   UNL     1      33.889 -20.038 -24.323  0.00  0.00    +0.163 C 
ENDBRANCH  27  32
ENDBRANCH   5  23
TORSDOF 8
ENDMDL
MODEL 9
REMARK VINA RESULT:      -9.5      2.554      3.809
REMARK  Name = 11476460
REMARK  8 active torsions:
REMARK  status: ('A' for Active; 'I' for Inactive)
REMARK    1  A    between atoms: C_2  and  N_10
REMARK    2  A    between atoms: C_5  and  C_23
REMARK    3  A    between atoms: C_11  and  C_14
REMARK    4  A    between atoms: C_14  and  O_15
REMARK    5  A    between atoms: O_15  and  P_16
REMARK    6  A    between atoms: P_16  and  O_18
REMARK    7  A    between atoms: P_16  and  O_20
REMARK    8  A    between atoms: C_27  and  C_32
REMARK                            x       y       z     vdW  Elec       q    Type
REMARK                         _______ _______ _______ _____ _____    ______ ____
ROOT
ATOM      1  F   UNL     1      36.711 -20.223 -17.620  0.00  0.00    -0.204 F 
ATOM      2  C   UNL     1      34.847 -22.687 -15.697  0.00  0.00    +0.059 C 
ATOM      3  C   UNL     1      35.868 -21.821 -16.100  0.00  0.00    +0.045 C 
ATOM      4  C   UNL     1      33.674 -22.769 -16.454  0.00  0.00    +0.015 C 
ATOM      5  C   UNL     1      34.548 -21.132 -18.002  0.00  0.00    +0.029 C 
ATOM      6  C   UNL     1      35.719 -21.045 -17.250  0.00  0.00    +0.141 C 
ATOM      7  C   UNL     1      33.525 -21.994 -17.604  0.00  0.00    +0.004 C 
ENDROOT
BRANCH   2  10
ATOM      8  O   UNL     1      35.756 -24.298 -12.561  0.00  0.00    -0.434 OA
ATOM      9  O   UNL     1      36.852 -22.506 -13.416  0.00  0.00    -0.226 OA
ATOM     10  N   UNL     1      34.999 -23.478 -14.524  0.00  0.00    -0.221 N 
ATOM     11  C   UNL     1      34.518 -24.973 -12.823  0.00  0.00    +0.221 C 
ATOM     12  C   UNL     1      34.222 -24.662 -14.275  0.00  0.00    +0.148 C 
ATOM     13  C   UNL     1      35.946 -23.323 -13.514  0.00  0.00    +0.409 C 
BRANCH  11  14
ATOM     14  C   UNL     1      33.457 -24.443 -11.868  0.00  0.00    +0.199 C 
BRANCH  14  15
ATOM     15  O   UNL     1      32.189 -24.906 -12.296  0.00  0.00    -0.269 OA
BRANCH  15  16
ATOM     16  P   UNL     1      31.050 -23.814 -12.661  0.00  0.00    +0.473 P 
ATOM     17  O   UNL     1      30.901 -23.519 -14.125  0.00  0.00    -0.227 OA
BRANCH  16  18
ATOM     18  O   UNL     1      31.425 -22.544 -11.735  0.00  0.00    -0.303 OA
ATOM     19  H   UNL     1      30.819 -21.811 -11.929  0.00  0.00    +0.222 HD
ENDBRANCH  16  18
BRANCH  16  20
ATOM     20  O   UNL     1      29.729 -24.417 -11.948  0.00  0.00    -0.303 OA
ATOM     21  H   UNL     1      29.651 -25.361 -12.159  0.00  0.00    +0.222 HD
ENDBRANCH  16  20
ENDBRANCH  15  16
ENDBRANCH  14  15
ENDBRANCH  11  14
ENDBRANCH   2  10
BRANCH   5  23
ATOM     22  N   UNL     1      32.921 -19.391 -20.868  0.00  0.00    -0.234 NA
ATOM     23  C   UNL     1      34.389 -20.330 -19.196  0.00  0.00    +0.021 C 
ATOM     24  C   UNL     1      35.486 -19.747 -19.816  0.00  0.00    +0.004 C 
ATOM     25  C   UNL     1      33.140 -20.125 -19.755  0.00  0.00    +0.100 C 
ATOM     26  C   UNL     1      35.302 -18.984 -20.963  0.00  0.00    +0.029 C 
ATOM     27  C   UNL     1      34.011 -18.837 -21.445  0.00  0.00    +0.146 C 
BRANCH  27  32
ATOM     28  N   UNL     1      33.884 -16.733 -22.672  0.00  0.00    -0.105 NA
ATOM     29  N   UNL     1      33.550 -16.531 -23.954  0.00  0.00    -0.113 N 
ATOM     30  N   UNL     1      33.380 -18.628 -23.804  0.00  0.00    -0.085 NA
ATOM     31  N   UNL     1      33.243 -17.626 -24.664  0.00  0.00    -0.018 NA
ATOM     32  C   UNL     1      33.763 -18.061 -22.627  0.00  0.00    +0.092 C 
ATOM     33  C   UNL     1      33.520 -15.214 -24.536  0.00  0.00    +0.163 C 
ENDBRANCH  27  32
ENDBRANCH   5  23
TORSDOF 8
ENDMDL
