MODEL 1
REMARK VINA RESULT:     -11.9      0.000      0.000
REMARK  Name = 9969613
REMARK  5 active torsions:
REMARK  status: ('A' for Active; 'I' for Inactive)
REMARK    1  A    between atoms: C_3  and  O_7
REMARK    2  A    between atoms: C_4  and  O_17
REMARK    3  A    between atoms: O_7  and  C_13
REMARK    4  A    between atoms: O_17  and  C_21
REMARK    5  A    between atoms: C_18  and  N_24
REMARK                            x       y       z     vdW  Elec       q    Type
REMARK                         _______ _______ _______ _____ _____    ______ ____
ROOT
ATOM      1  N   UNL     1      33.667 -22.940 -15.810  0.00  0.00    -0.283 NA
ATOM      2  N   UNL     1      31.309 -22.889 -16.310  0.00  0.00    -0.151 NA
ATOM      3  C   UNL     1      33.344 -22.789 -14.515  0.00  0.00    +0.296 C 
ATOM      4  C   UNL     1      32.611 -22.981 -16.645  0.00  0.00    +0.260 C 
ATOM      5  C   UNL     1      32.063 -22.682 -14.033  0.00  0.00    +0.094 C 
ATOM      6  C   UNL     1      31.071 -22.739 -14.989  0.00  0.00    +0.119 C 
ENDROOT
BRANCH   3   7
ATOM      7  O   UNL     1      34.397 -22.740 -13.617  0.00  0.00    -0.427 OA
BRANCH   7  13
ATOM      8  O   UNL     1      38.957 -24.231 -14.111  0.00  0.00    -0.435 OA
ATOM      9  O   UNL     1      38.305 -26.546 -13.973  0.00  0.00    -0.435 OA
ATOM     10  C   UNL     1      37.614 -24.381 -13.950  0.00  0.00    +0.179 C 
ATOM     11  C   UNL     1      37.241 -25.703 -13.871  0.00  0.00    +0.177 C 
ATOM     12  C   UNL     1      36.689 -23.361 -13.869  0.00  0.00    +0.078 C 
ATOM     13  C   UNL     1      35.347 -23.713 -13.703  0.00  0.00    +0.151 C 
ATOM     14  C   UNL     1      35.923 -26.078 -13.707  0.00  0.00    +0.043 C 
ATOM     15  C   UNL     1      39.388 -25.606 -14.125  0.00  0.00    +0.429 C 
ATOM     16  C   UNL     1      34.966 -25.063 -13.623  0.00  0.00    +0.041 C 
ENDBRANCH   7  13
ENDBRANCH   3   7
BRANCH   4  17
ATOM     17  O   UNL     1      32.891 -23.136 -17.982  0.00  0.00    -0.383 OA
BRANCH  17  21
ATOM     18  C   UNL     1      33.703 -19.694 -20.157  0.00  0.00    +0.057 C 
ATOM     19  C   UNL     1      32.382 -20.064 -19.905  0.00  0.00    +0.018 C 
ATOM     20  C   UNL     1      34.752 -20.480 -19.677  0.00  0.00    +0.018 C 
ATOM     21  C   UNL     1      33.161 -21.993 -18.704  0.00  0.00    +0.160 C 
ATOM     22  C   UNL     1      32.110 -21.221 -19.174  0.00  0.00    +0.040 C 
ATOM     23  C   UNL     1      34.479 -21.636 -18.946  0.00  0.00    +0.040 C 
BRANCH  18  24
ATOM     24  N   UNL     1      33.974 -18.547 -20.880  0.00  0.00    -0.246 N 
ATOM     25  N   UNL     1      34.118 -17.158 -22.617  0.00  0.00    -0.224 NA
ATOM     26  C   UNL     1      34.505 -17.380 -20.394  0.00  0.00    +0.092 C 
ATOM     27  C   UNL     1      33.760 -18.359 -22.222  0.00  0.00    +0.172 C 
ATOM     28  C   UNL     1      34.584 -16.542 -21.482  0.00  0.00    +0.117 C 
ENDBRANCH  18  24
ENDBRANCH  17  21
ENDBRANCH   4  17
TORSDOF 5
ENDMDL
MODEL 2
REMARK VINA RESULT:     -11.9      2.736      5.533
REMARK  Name = 9969613
REMARK  5 active torsions:
REMARK  status: ('A' for Active; 'I' for Inactive)
REMARK    1  A    between atoms: C_3  and  O_7
REMARK    2  A    between atoms: C_4  and  O_17
REMARK    3  A    between atoms: O_7  and  C_13
REMARK    4  A    between atoms: O_17  and  C_21
REMARK    5  A    between atoms: C_18  and  N_24
REMARK                            x       y       z     vdW  Elec       q    Type
REMARK                         _______ _______ _______ _____ _____    ______ ____
ROOT
ATOM      1  N   UNL     1      32.492 -23.164 -15.629  0.00  0.00    -0.283 NA
ATOM      2  N   UNL     1      34.745 -22.446 -16.095  0.00  0.00    -0.151 NA
ATOM      3  C   UNL     1      32.766 -23.008 -14.324  0.00  0.00    +0.296 C 
ATOM      4  C   UNL     1      33.517 -22.868 -16.452  0.00  0.00    +0.260 C 
ATOM      5  C   UNL     1      33.972 -22.587 -13.820  0.00  0.00    +0.094 C 
ATOM      6  C   UNL     1      34.939 -22.316 -14.766  0.00  0.00    +0.119 C 
ENDROOT
BRANCH   3   7
ATOM      7  O   UNL     1      31.742 -23.301 -13.439  0.00  0.00    -0.427 OA
BRANCH   7  13
ATOM      8  O   UNL     1      28.017 -21.821 -16.119  0.00  0.00    -0.435 OA
ATOM      9  O   UNL     1      26.723 -23.772 -15.552  0.00  0.00    -0.435 OA
ATOM     10  C   UNL     1      28.688 -22.662 -15.287  0.00  0.00    +0.179 C 
ATOM     11  C   UNL     1      27.950 -23.778 -14.963  0.00  0.00    +0.177 C 
ATOM     12  C   UNL     1      29.963 -22.468 -14.795  0.00  0.00    +0.078 C 
ATOM     13  C   UNL     1      30.488 -23.449 -13.949  0.00  0.00    +0.151 C 
ATOM     14  C   UNL     1      28.445 -24.760 -14.129  0.00  0.00    +0.043 C 
ATOM     15  C   UNL     1      26.773 -22.530 -16.283  0.00  0.00    +0.429 C 
ATOM     16  C   UNL     1      29.733 -24.587 -13.617  0.00  0.00    +0.041 C 
ENDBRANCH   7  13
ENDBRANCH   3   7
BRANCH   4  17
ATOM     17  O   UNL     1      33.284 -23.011 -17.800  0.00  0.00    -0.383 OA
BRANCH  17  21
ATOM     18  C   UNL     1      33.812 -19.652 -20.180  0.00  0.00    +0.057 C 
ATOM     19  C   UNL     1      34.919 -20.387 -19.757  0.00  0.00    +0.018 C 
ATOM     20  C   UNL     1      32.528 -20.045 -19.804  0.00  0.00    +0.018 C 
ATOM     21  C   UNL     1      33.459 -21.896 -18.591  0.00  0.00    +0.160 C 
ATOM     22  C   UNL     1      34.741 -21.516 -18.957  0.00  0.00    +0.040 C 
ATOM     23  C   UNL     1      32.350 -21.174 -19.004  0.00  0.00    +0.040 C 
BRANCH  18  24
ATOM     24  N   UNL     1      33.988 -18.533 -20.973  0.00  0.00    -0.246 N 
ATOM     25  N   UNL     1      34.472 -16.434 -21.549  0.00  0.00    -0.224 NA
ATOM     26  C   UNL     1      33.788 -18.451 -22.328  0.00  0.00    +0.092 C 
ATOM     27  C   UNL     1      34.399 -17.292 -20.555  0.00  0.00    +0.172 C 
ATOM     28  C   UNL     1      34.092 -17.151 -22.657  0.00  0.00    +0.117 C 
ENDBRANCH  18  24
ENDBRANCH  17  21
ENDBRANCH   4  17
TORSDOF 5
ENDMDL
MODEL 3
REMARK VINA RESULT:     -11.3      4.323      8.335
REMARK  Name = 9969613
REMARK  5 active torsions:
REMARK  status: ('A' for Active; 'I' for Inactive)
REMARK    1  A    between atoms: C_3  and  O_7
REMARK    2  A    between atoms: C_4  and  O_17
REMARK    3  A    between atoms: O_7  and  C_13
REMARK    4  A    between atoms: O_17  and  C_21
REMARK    5  A    between atoms: C_18  and  N_24
REMARK                            x       y       z     vdW  Elec       q    Type
REMARK                         _______ _______ _______ _____ _____    ______ ____
ROOT
ATOM      1  N   UNL     1      34.885 -17.203 -22.026  0.00  0.00    -0.283 NA
ATOM      2  N   UNL     1      33.488 -17.008 -23.981  0.00  0.00    -0.151 NA
ATOM      3  C   UNL     1      34.509 -18.489 -21.947  0.00  0.00    +0.296 C 
ATOM      4  C   UNL     1      34.342 -16.527 -23.057  0.00  0.00    +0.260 C 
ATOM      5  C   UNL     1      33.648 -19.110 -22.818  0.00  0.00    +0.094 C 
ATOM      6  C   UNL     1      33.161 -18.310 -23.830  0.00  0.00    +0.119 C 
ENDROOT
BRANCH   3   7
ATOM      7  O   UNL     1      35.041 -19.225 -20.902  0.00  0.00    -0.427 OA
BRANCH   7  13
ATOM      8  O   UNL     1      34.045 -22.450 -17.458  0.00  0.00    -0.435 OA
ATOM      9  O   UNL     1      31.675 -22.062 -17.661  0.00  0.00    -0.435 OA
ATOM     10  C   UNL     1      33.753 -21.518 -18.405  0.00  0.00    +0.179 C 
ATOM     11  C   UNL     1      32.400 -21.295 -18.521  0.00  0.00    +0.177 C 
ATOM     12  C   UNL     1      34.668 -20.843 -19.186  0.00  0.00    +0.078 C 
ATOM     13  C   UNL     1      34.176 -19.916 -20.109  0.00  0.00    +0.151 C 
ATOM     14  C   UNL     1      31.887 -20.386 -19.424  0.00  0.00    +0.043 C 
ATOM     15  C   UNL     1      32.724 -22.791 -16.991  0.00  0.00    +0.429 C 
ATOM     16  C   UNL     1      32.794 -19.690 -20.228  0.00  0.00    +0.041 C 
ENDBRANCH   7  13
ENDBRANCH   3   7
BRANCH   4  17
ATOM     17  O   UNL     1      34.698 -15.204 -23.180  0.00  0.00    -0.383 OA
BRANCH  17  21
ATOM     18  C   UNL     1      32.164 -12.393 -21.473  0.00  0.00    +0.057 C 
ATOM     19  C   UNL     1      32.564 -12.256 -22.802  0.00  0.00    +0.018 C 
ATOM     20  C   UNL     1      32.615 -13.476 -20.717  0.00  0.00    +0.018 C 
ATOM     21  C   UNL     1      33.856 -14.271 -22.613  0.00  0.00    +0.160 C 
ATOM     22  C   UNL     1      33.415 -13.201 -23.375  0.00  0.00    +0.040 C 
ATOM     23  C   UNL     1      33.467 -14.420 -21.291  0.00  0.00    +0.040 C 
BRANCH  18  24
ATOM     24  N   UNL     1      31.320 -11.458 -20.904  0.00  0.00    -0.246 N 
ATOM     25  N   UNL     1      30.291  -9.512 -20.552  0.00  0.00    -0.224 NA
ATOM     26  C   UNL     1      30.465 -11.661 -19.851  0.00  0.00    +0.092 C 
ATOM     27  C   UNL     1      31.175 -10.148 -21.288  0.00  0.00    +0.172 C 
ATOM     28  C   UNL     1      29.845 -10.449 -19.654  0.00  0.00    +0.117 C 
ENDBRANCH  18  24
ENDBRANCH  17  21
ENDBRANCH   4  17
TORSDOF 5
ENDMDL
MODEL 4
REMARK VINA RESULT:     -11.2      3.748      7.288
REMARK  Name = 9969613
REMARK  5 active torsions:
REMARK  status: ('A' for Active; 'I' for Inactive)
REMARK    1  A    between atoms: C_3  and  O_7
REMARK    2  A    between atoms: C_4  and  O_17
REMARK    3  A    between atoms: O_7  and  C_13
REMARK    4  A    between atoms: O_17  and  C_21
REMARK    5  A    between atoms: C_18  and  N_24
REMARK                            x       y       z     vdW  Elec       q    Type
REMARK                         _______ _______ _______ _____ _____    ______ ____
ROOT
ATOM      1  N   UNL     1      33.491 -23.960 -13.721  0.00  0.00    -0.283 NA
ATOM      2  N   UNL     1      33.920 -23.625 -11.373  0.00  0.00    -0.151 NA
ATOM      3  C   UNL     1      34.705 -23.442 -13.966  0.00  0.00    +0.296 C 
ATOM      4  C   UNL     1      33.165 -24.022 -12.416  0.00  0.00    +0.260 C 
ATOM      5  C   UNL     1      35.577 -22.999 -13.003  0.00  0.00    +0.094 C 
ATOM      6  C   UNL     1      35.126 -23.116 -11.705  0.00  0.00    +0.119 C 
ENDROOT
BRANCH   3   7
ATOM      7  O   UNL     1      35.084 -23.358 -15.295  0.00  0.00    -0.427 OA
BRANCH   7  13
ATOM      8  O   UNL     1      34.026 -20.627 -19.126  0.00  0.00    -0.435 OA
ATOM      9  O   UNL     1      31.665 -21.033 -18.871  0.00  0.00    -0.435 OA
ATOM     10  C   UNL     1      33.753 -21.435 -18.066  0.00  0.00    +0.179 C 
ATOM     11  C   UNL     1      32.404 -21.668 -17.920  0.00  0.00    +0.177 C 
ATOM     12  C   UNL     1      34.681 -21.985 -17.205  0.00  0.00    +0.078 C 
ATOM     13  C   UNL     1      34.206 -22.794 -16.169  0.00  0.00    +0.151 C 
ATOM     14  C   UNL     1      31.909 -22.462 -16.905  0.00  0.00    +0.043 C 
ATOM     15  C   UNL     1      32.700 -20.377 -19.631  0.00  0.00    +0.429 C 
ATOM     16  C   UNL     1      32.829 -23.030 -16.020  0.00  0.00    +0.041 C 
ENDBRANCH   7  13
ENDBRANCH   3   7
BRANCH   4  17
ATOM     17  O   UNL     1      31.930 -24.546 -12.115  0.00  0.00    -0.383 OA
BRANCH  17  21
ATOM     18  C   UNL     1      28.726 -23.303 -14.443  0.00  0.00    +0.057 C 
ATOM     19  C   UNL     1      28.945 -24.663 -14.228  0.00  0.00    +0.018 C 
ATOM     20  C   UNL     1      29.584 -22.360 -13.876  0.00  0.00    +0.018 C 
ATOM     21  C   UNL     1      30.866 -24.133 -12.888  0.00  0.00    +0.160 C 
ATOM     22  C   UNL     1      30.021 -25.081 -13.445  0.00  0.00    +0.040 C 
ATOM     23  C   UNL     1      30.660 -22.778 -13.093  0.00  0.00    +0.040 C 
BRANCH  18  24
ATOM     24  N   UNL     1      27.659 -22.888 -15.218  0.00  0.00    -0.246 N 
ATOM     25  N   UNL     1      26.280 -22.728 -16.963  0.00  0.00    -0.224 NA
ATOM     26  C   UNL     1      26.691 -21.984 -14.861  0.00  0.00    +0.092 C 
ATOM     27  C   UNL     1      27.364 -23.305 -16.492  0.00  0.00    +0.172 C 
ATOM     28  C   UNL     1      25.856 -21.903 -15.951  0.00  0.00    +0.117 C 
ENDBRANCH  18  24
ENDBRANCH  17  21
ENDBRANCH   4  17
TORSDOF 5
ENDMDL
MODEL 5
REMARK VINA RESULT:     -11.0      0.982      1.800
REMARK  Name = 9969613
REMARK  5 active torsions:
REMARK  status: ('A' for Active; 'I' for Inactive)
REMARK    1  A    between atoms: C_3  and  O_7
REMARK    2  A    between atoms: C_4  and  O_17
REMARK    3  A    between atoms: O_7  and  C_13
REMARK    4  A    between atoms: O_17  and  C_21
REMARK    5  A    between atoms: C_18  and  N_24
REMARK                            x       y       z     vdW  Elec       q    Type
REMARK                         _______ _______ _______ _____ _____    ______ ____
ROOT
ATOM      1  N   UNL     1      33.276 -23.285 -15.754  0.00  0.00    -0.283 NA
ATOM      2  N   UNL     1      31.528 -22.401 -17.158  0.00  0.00    -0.151 NA
ATOM      3  C   UNL     1      32.404 -23.250 -14.734  0.00  0.00    +0.296 C 
ATOM      4  C   UNL     1      32.776 -22.850 -16.927  0.00  0.00    +0.260 C 
ATOM      5  C   UNL     1      31.104 -22.818 -14.826  0.00  0.00    +0.094 C 
ATOM      6  C   UNL     1      30.714 -22.398 -16.081  0.00  0.00    +0.119 C 
ENDROOT
BRANCH   3   7
ATOM      7  O   UNL     1      32.872 -23.688 -13.506  0.00  0.00    -0.427 OA
BRANCH   7  13
ATOM      8  O   UNL     1      36.969 -26.080 -14.374  0.00  0.00    -0.435 OA
ATOM      9  O   UNL     1      38.253 -24.536 -13.042  0.00  0.00    -0.435 OA
ATOM     10  C   UNL     1      36.198 -25.096 -13.837  0.00  0.00    +0.179 C 
ATOM     11  C   UNL     1      36.931 -24.213 -13.076  0.00  0.00    +0.177 C 
ATOM     12  C   UNL     1      34.836 -24.951 -14.003  0.00  0.00    +0.078 C 
ATOM     13  C   UNL     1      34.215 -23.871 -13.370  0.00  0.00    +0.151 C 
ATOM     14  C   UNL     1      36.342 -23.139 -12.440  0.00  0.00    +0.043 C 
ATOM     15  C   UNL     1      38.269 -25.719 -13.866  0.00  0.00    +0.429 C 
ATOM     16  C   UNL     1      34.964 -22.971 -12.592  0.00  0.00    +0.041 C 
ENDBRANCH   7  13
ENDBRANCH   3   7
BRANCH   4  17
ATOM     17  O   UNL     1      33.632 -22.867 -18.004  0.00  0.00    -0.383 OA
BRANCH  17  21
ATOM     18  C   UNL     1      33.926 -19.386 -20.246  0.00  0.00    +0.057 C 
ATOM     19  C   UNL     1      35.078 -19.993 -19.746  0.00  0.00    +0.018 C 
ATOM     20  C   UNL     1      32.675 -19.949 -19.992  0.00  0.00    +0.018 C 
ATOM     21  C   UNL     1      33.730 -21.712 -18.748  0.00  0.00    +0.160 C 
ATOM     22  C   UNL     1      34.979 -21.163 -18.993  0.00  0.00    +0.040 C 
ATOM     23  C   UNL     1      32.576 -21.119 -19.239  0.00  0.00    +0.040 C 
BRANCH  18  24
ATOM     24  N   UNL     1      34.024 -18.227 -20.993  0.00  0.00    -0.246 N 
ATOM     25  N   UNL     1      34.288 -16.067 -21.473  0.00  0.00    -0.224 NA
ATOM     26  C   UNL     1      33.921 -18.122 -22.356  0.00  0.00    +0.092 C 
ATOM     27  C   UNL     1      34.245 -16.961 -20.511  0.00  0.00    +0.172 C 
ATOM     28  C   UNL     1      34.087 -16.784 -22.626  0.00  0.00    +0.117 C 
ENDBRANCH  18  24
ENDBRANCH  17  21
ENDBRANCH   4  17
TORSDOF 5
ENDMDL
MODEL 6
REMARK VINA RESULT:     -10.2      6.798     13.042
REMARK  Name = 9969613
REMARK  5 active torsions:
REMARK  status: ('A' for Active; 'I' for Inactive)
REMARK    1  A    between atoms: C_3  and  O_7
REMARK    2  A    between atoms: C_4  and  O_17
REMARK    3  A    between atoms: O_7  and  C_13
REMARK    4  A    between atoms: O_17  and  C_21
REMARK    5  A    between atoms: C_18  and  N_24
REMARK                            x       y       z     vdW  Elec       q    Type
REMARK                         _______ _______ _______ _____ _____    ______ ____
ROOT
ATOM      1  N   UNL     1      33.699 -14.402 -23.030  0.00  0.00    -0.283 NA
ATOM      2  N   UNL     1      33.163 -15.491 -25.113  0.00  0.00    -0.151 NA
ATOM      3  C   UNL     1      32.790 -13.465 -23.345  0.00  0.00    +0.296 C 
ATOM      4  C   UNL     1      33.833 -15.377 -23.950  0.00  0.00    +0.260 C 
ATOM      5  C   UNL     1      32.037 -13.456 -24.493  0.00  0.00    +0.094 C 
ATOM      6  C   UNL     1      32.268 -14.509 -25.353  0.00  0.00    +0.119 C 
ENDROOT
BRANCH   3   7
ATOM      7  O   UNL     1      32.617 -12.440 -22.429  0.00  0.00    -0.427 OA
BRANCH   7  13
ATOM      8  O   UNL     1      31.500  -7.750 -22.482  0.00  0.00    -0.435 OA
ATOM      9  O   UNL     1      33.211  -7.272 -24.109  0.00  0.00    -0.435 OA
ATOM     10  C   UNL     1      32.190  -8.864 -22.847  0.00  0.00    +0.179 C 
ATOM     11  C   UNL     1      33.169  -8.591 -23.777  0.00  0.00    +0.177 C 
ATOM     12  C   UNL     1      31.976 -10.141 -22.373  0.00  0.00    +0.078 C 
ATOM     13  C   UNL     1      32.791 -11.163 -22.869  0.00  0.00    +0.151 C 
ATOM     14  C   UNL     1      33.985  -9.582 -24.283  0.00  0.00    +0.043 C 
ATOM     15  C   UNL     1      32.152  -6.746 -23.284  0.00  0.00    +0.429 C 
ATOM     16  C   UNL     1      33.788 -10.885 -23.819  0.00  0.00    +0.041 C 
ENDBRANCH   7  13
ENDBRANCH   3   7
BRANCH   4  17
ATOM     17  O   UNL     1      34.752 -16.362 -23.671  0.00  0.00    -0.383 OA
BRANCH  17  21
ATOM     18  C   UNL     1      33.696 -19.189 -20.821  0.00  0.00    +0.057 C 
ATOM     19  C   UNL     1      34.556 -18.144 -20.482  0.00  0.00    +0.018 C 
ATOM     20  C   UNL     1      33.190 -19.283 -22.118  0.00  0.00    +0.018 C 
ATOM     21  C   UNL     1      34.401 -17.300 -22.725  0.00  0.00    +0.160 C 
ATOM     22  C   UNL     1      34.911 -17.194 -21.440  0.00  0.00    +0.040 C 
ATOM     23  C   UNL     1      33.545 -18.333 -23.076  0.00  0.00    +0.040 C 
BRANCH  18  24
ATOM     24  N   UNL     1      33.344 -20.130 -19.872  0.00  0.00    -0.246 N 
ATOM     25  N   UNL     1      32.062 -21.401 -18.564  0.00  0.00    -0.224 NA
ATOM     26  C   UNL     1      34.200 -20.909 -19.136  0.00  0.00    +0.092 C 
ATOM     27  C   UNL     1      32.070 -20.467 -19.489  0.00  0.00    +0.172 C 
ATOM     28  C   UNL     1      33.387 -21.681 -18.339  0.00  0.00    +0.117 C 
ENDBRANCH  18  24
ENDBRANCH  17  21
ENDBRANCH   4  17
TORSDOF 5
ENDMDL
MODEL 7
REMARK VINA RESULT:     -10.2      4.540     10.598
REMARK  Name = 9969613
REMARK  5 active torsions:
REMARK  status: ('A' for Active; 'I' for Inactive)
REMARK    1  A    between atoms: C_3  and  O_7
REMARK    2  A    between atoms: C_4  and  O_17
REMARK    3  A    between atoms: O_7  and  C_13
REMARK    4  A    between atoms: O_17  and  C_21
REMARK    5  A    between atoms: C_18  and  N_24
REMARK                            x       y       z     vdW  Elec       q    Type
REMARK                         _______ _______ _______ _____ _____    ______ ____
ROOT
ATOM      1  N   UNL     1      34.944 -17.024 -22.007  0.00  0.00    -0.283 NA
ATOM      2  N   UNL     1      33.945 -18.989 -22.982  0.00  0.00    -0.151 NA
ATOM      3  C   UNL     1      34.246 -16.293 -22.891  0.00  0.00    +0.296 C 
ATOM      4  C   UNL     1      34.748 -18.353 -22.108  0.00  0.00    +0.260 C 
ATOM      5  C   UNL     1      33.393 -16.807 -23.836  0.00  0.00    +0.094 C 
ATOM      6  C   UNL     1      33.280 -18.182 -23.836  0.00  0.00    +0.119 C 
ENDROOT
BRANCH   3   7
ATOM      7  O   UNL     1      34.416 -14.920 -22.827  0.00  0.00    -0.427 OA
BRANCH   7  13
ATOM      8  O   UNL     1      31.548 -11.170 -21.840  0.00  0.00    -0.435 OA
ATOM      9  O   UNL     1      31.069 -12.008 -19.632  0.00  0.00    -0.435 OA
ATOM     10  C   UNL     1      32.186 -12.345 -21.583  0.00  0.00    +0.179 C 
ATOM     11  C   UNL     1      31.911 -12.824 -20.323  0.00  0.00    +0.177 C 
ATOM     12  C   UNL     1      33.020 -13.020 -22.450  0.00  0.00    +0.078 C 
ATOM     13  C   UNL     1      33.586 -14.218 -22.006  0.00  0.00    +0.151 C 
ATOM     14  C   UNL     1      32.457 -14.004 -19.859  0.00  0.00    +0.043 C 
ATOM     15  C   UNL     1      30.843 -10.963 -20.600  0.00  0.00    +0.429 C 
ATOM     16  C   UNL     1      33.307 -14.706 -20.718  0.00  0.00    +0.041 C 
ENDBRANCH   7  13
ENDBRANCH   3   7
BRANCH   4  17
ATOM     17  O   UNL     1      35.442 -19.145 -21.222  0.00  0.00    -0.383 OA
BRANCH  17  21
ATOM     18  C   UNL     1      33.219 -21.229 -18.403  0.00  0.00    +0.057 C 
ATOM     19  C   UNL     1      34.606 -21.377 -18.446  0.00  0.00    +0.018 C 
ATOM     20  C   UNL     1      32.580 -20.380 -19.307  0.00  0.00    +0.018 C 
ATOM     21  C   UNL     1      34.704 -19.837 -20.286  0.00  0.00    +0.160 C 
ATOM     22  C   UNL     1      35.352 -20.676 -19.394  0.00  0.00    +0.040 C 
ATOM     23  C   UNL     1      33.327 -19.680 -20.254  0.00  0.00    +0.040 C 
BRANCH  18  24
ATOM     24  N   UNL     1      32.479 -21.923 -17.463  0.00  0.00    -0.246 N 
ATOM     25  N   UNL     1      30.713 -22.629 -16.301  0.00  0.00    -0.224 NA
ATOM     26  C   UNL     1      32.958 -22.825 -16.548  0.00  0.00    +0.092 C 
ATOM     27  C   UNL     1      31.123 -21.843 -17.272  0.00  0.00    +0.172 C 
ATOM     28  C   UNL     1      31.853 -23.244 -15.845  0.00  0.00    +0.117 C 
ENDBRANCH  18  24
ENDBRANCH  17  21
ENDBRANCH   4  17
TORSDOF 5
ENDMDL
MODEL 8
REMARK VINA RESULT:     -10.1      8.976     14.185
REMARK  Name = 9969613
REMARK  5 active torsions:
REMARK  status: ('A' for Active; 'I' for Inactive)
REMARK    1  A    between atoms: C_3  and  O_7
REMARK    2  A    between atoms: C_4  and  O_17
REMARK    3  A    between atoms: O_7  and  C_13
REMARK    4  A    between atoms: O_17  and  C_21
REMARK    5  A    between atoms: C_18  and  N_24
REMARK                            x       y       z     vdW  Elec       q    Type
REMARK                         _______ _______ _______ _____ _____    ______ ____
ROOT
ATOM      1  N   UNL     1      32.351  -9.947 -24.126  0.00  0.00    -0.283 NA
ATOM      2  N   UNL     1      34.387 -10.793 -25.102  0.00  0.00    -0.151 NA
ATOM      3  C   UNL     1      33.000  -8.794 -23.897  0.00  0.00    +0.296 C 
ATOM      4  C   UNL     1      33.097 -10.895 -24.726  0.00  0.00    +0.260 C 
ATOM      5  C   UNL     1      34.310  -8.552 -24.226  0.00  0.00    +0.094 C 
ATOM      6  C   UNL     1      34.965  -9.602 -24.836  0.00  0.00    +0.119 C 
ENDROOT
BRANCH   3   7
ATOM      7  O   UNL     1      32.273  -7.789 -23.281  0.00  0.00    -0.427 OA
BRANCH   7  13
ATOM      8  O   UNL     1      30.142 -10.110 -19.630  0.00  0.00    -0.435 OA
ATOM      9  O   UNL     1      30.983  -8.527 -18.020  0.00  0.00    -0.435 OA
ATOM     10  C   UNL     1      30.895  -9.135 -20.209  0.00  0.00    +0.179 C 
ATOM     11  C   UNL     1      31.376  -8.231 -19.289  0.00  0.00    +0.177 C 
ATOM     12  C   UNL     1      31.175  -9.019 -21.555  0.00  0.00    +0.078 C 
ATOM     13  C   UNL     1      31.970  -7.944 -21.963  0.00  0.00    +0.151 C 
ATOM     14  C   UNL     1      32.162  -7.161 -19.666  0.00  0.00    +0.043 C 
ATOM     15  C   UNL     1      30.203  -9.719 -18.245  0.00  0.00    +0.429 C 
ATOM     16  C   UNL     1      32.460  -7.021 -21.024  0.00  0.00    +0.041 C 
ENDBRANCH   7  13
ENDBRANCH   3   7
BRANCH   4  17
ATOM     17  O   UNL     1      32.476 -12.095 -24.983  0.00  0.00    -0.383 OA
BRANCH  17  21
ATOM     18  C   UNL     1      33.735 -15.386 -22.789  0.00  0.00    +0.057 C 
ATOM     19  C   UNL     1      33.689 -14.126 -22.192  0.00  0.00    +0.018 C 
ATOM     20  C   UNL     1      33.358 -15.540 -24.123  0.00  0.00    +0.018 C 
ATOM     21  C   UNL     1      32.894 -13.188 -24.255  0.00  0.00    +0.160 C 
ATOM     22  C   UNL     1      33.266 -13.021 -22.930  0.00  0.00    +0.040 C 
ATOM     23  C   UNL     1      32.935 -14.434 -24.860  0.00  0.00    +0.040 C 
BRANCH  18  24
ATOM     24  N   UNL     1      34.154 -16.483 -22.059  0.00  0.00    -0.246 N 
ATOM     25  N   UNL     1      34.709 -17.734 -20.299  0.00  0.00    -0.224 NA
ATOM     26  C   UNL     1      34.507 -17.711 -22.557  0.00  0.00    +0.092 C 
ATOM     27  C   UNL     1      34.293 -16.551 -20.695  0.00  0.00    +0.172 C 
ATOM     28  C   UNL     1      34.845 -18.462 -21.455  0.00  0.00    +0.117 C 
ENDBRANCH  18  24
ENDBRANCH  17  21
ENDBRANCH   4  17
TORSDOF 5
ENDMDL
MODEL 9
REMARK VINA RESULT:      -9.6      7.871     12.792
REMARK  Name = 9969613
REMARK  5 active torsions:
REMARK  status: ('A' for Active; 'I' for Inactive)
REMARK    1  A    between atoms: C_3  and  O_7
REMARK    2  A    between atoms: C_4  and  O_17
REMARK    3  A    between atoms: O_7  and  C_13
REMARK    4  A    between atoms: O_17  and  C_21
REMARK    5  A    between atoms: C_18  and  N_24
REMARK                            x       y       z     vdW  Elec       q    Type
REMARK                         _______ _______ _______ _____ _____    ______ ____
ROOT
ATOM      1  N   UNL     1      33.352 -11.921 -23.354  0.00  0.00    -0.283 NA
ATOM      2  N   UNL     1      32.941 -11.617 -25.709  0.00  0.00    -0.151 NA
ATOM      3  C   UNL     1      32.786 -13.133 -23.464  0.00  0.00    +0.296 C 
ATOM      4  C   UNL     1      33.396 -11.222 -24.505  0.00  0.00    +0.260 C 
ATOM      5  C   UNL     1      32.282 -13.662 -24.625  0.00  0.00    +0.094 C 
ATOM      6  C   UNL     1      32.387 -12.848 -25.734  0.00  0.00    +0.119 C 
ENDROOT
BRANCH   3   7
ATOM      7  O   UNL     1      32.718 -13.890 -22.305  0.00  0.00    -0.427 OA
BRANCH   7  13
ATOM      8  O   UNL     1      35.059 -17.463 -20.069  0.00  0.00    -0.435 OA
ATOM      9  O   UNL     1      35.321 -18.693 -22.124  0.00  0.00    -0.435 OA
ATOM     10  C   UNL     1      34.509 -16.816 -21.131  0.00  0.00    +0.179 C 
ATOM     11  C   UNL     1      34.657 -17.519 -22.306  0.00  0.00    +0.177 C 
ATOM     12  C   UNL     1      33.864 -15.597 -21.093  0.00  0.00    +0.078 C 
ATOM     13  C   UNL     1      33.362 -15.090 -22.294  0.00  0.00    +0.151 C 
ATOM     14  C   UNL     1      34.171 -17.040 -23.505  0.00  0.00    +0.043 C 
ATOM     15  C   UNL     1      35.571 -18.651 -20.704  0.00  0.00    +0.429 C 
ATOM     16  C   UNL     1      33.515 -15.807 -23.493  0.00  0.00    +0.041 C 
ENDBRANCH   7  13
ENDBRANCH   3   7
BRANCH   4  17
ATOM     17  O   UNL     1      33.968  -9.972 -24.443  0.00  0.00    -0.383 OA
BRANCH  17  21
ATOM     18  C   UNL     1      32.515  -7.366 -21.557  0.00  0.00    +0.057 C 
ATOM     19  C   UNL     1      31.778  -8.496 -21.911  0.00  0.00    +0.018 C 
ATOM     20  C   UNL     1      33.740  -7.112 -22.173  0.00  0.00    +0.018 C 
ATOM     21  C   UNL     1      33.486  -9.107 -23.484  0.00  0.00    +0.160 C 
ATOM     22  C   UNL     1      32.267  -9.372 -22.880  0.00  0.00    +0.040 C 
ATOM     23  C   UNL     1      34.228  -7.988 -23.143  0.00  0.00    +0.040 C 
BRANCH  18  24
ATOM     24  N   UNL     1      32.031  -6.498 -20.596  0.00  0.00    -0.246 N 
ATOM     25  N   UNL     1      31.501  -5.688 -18.588  0.00  0.00    -0.224 NA
ATOM     26  C   UNL     1      31.466  -5.267 -20.815  0.00  0.00    +0.092 C 
ATOM     27  C   UNL     1      32.028  -6.701 -19.239  0.00  0.00    +0.172 C 
ATOM     28  C   UNL     1      31.149  -4.791 -19.565  0.00  0.00    +0.117 C 
ENDBRANCH  18  24
ENDBRANCH  17  21
ENDBRANCH   4  17
TORSDOF 5
ENDMDL
