MODEL 1
REMARK VINA RESULT:     -12.3      0.000      0.000
REMARK  Name = 32778
REMARK  7 active torsions:
REMARK  status: ('A' for Active; 'I' for Inactive)
REMARK    1  A    between atoms: C_1  and  S_7
REMARK    2  A    between atoms: C_2  and  C_23
REMARK    3  A    between atoms: S_7  and  N_12
REMARK    4  A    between atoms: N_11  and  N_16
REMARK    5  A    between atoms: C_23  and  C_24
REMARK    6  A    between atoms: C_24  and  N_26
REMARK    7  A    between atoms: C_27  and  C_31
REMARK                            x       y       z     vdW  Elec       q    Type
REMARK                         _______ _______ _______ _____ _____    ______ ____
ROOT
ATOM      1  C   UNL     1      33.579 -20.958 -19.051  0.00  0.00    +0.125 C 
ATOM      2  C   UNL     1      34.619 -19.004 -20.748  0.00  0.00    -0.020 C 
ATOM      3  C   UNL     1      34.958 -20.763 -19.128  0.00  0.00    +0.020 C 
ATOM      4  C   UNL     1      32.720 -20.176 -19.823  0.00  0.00    +0.020 C 
ATOM      5  C   UNL     1      35.478 -19.786 -19.976  0.00  0.00    -0.003 C 
ATOM      6  C   UNL     1      33.240 -19.198 -20.671  0.00  0.00    -0.003 C 
ENDROOT
BRANCH   1   7
ATOM      7  S   UNL     1      32.921 -22.198 -17.977  0.00  0.00    +0.077 S 
ATOM      8  O   UNL     1      33.002 -23.475 -18.658  0.00  0.00    -0.150 OA
ATOM      9  O   UNL     1      31.646 -21.702 -17.494  0.00  0.00    -0.150 OA
BRANCH   7  12
ATOM     10  O   UNL     1      33.299 -23.997 -15.475  0.00  0.00    -0.250 OA
ATOM     11  N   UNL     1      35.132 -22.795 -14.734  0.00  0.00    -0.230 N 
ATOM     12  N   UNL     1      34.059 -22.163 -16.702  0.00  0.00    -0.168 N 
ATOM     13  C   UNL     1      34.102 -23.077 -15.602  0.00  0.00    +0.333 C 
ATOM     14  H   UNL     1      35.736 -22.036 -14.906  0.00  0.00    +0.171 HD
ATOM     15  H   UNL     1      34.743 -21.454 -16.727  0.00  0.00    +0.178 HD
BRANCH  11  16
ATOM     16  N   UNL     1      35.310 -23.593 -13.614  0.00  0.00    -0.205 NA
ATOM     17  C   UNL     1      37.008 -24.278 -10.991  0.00  0.00    +0.002 C 
ATOM     18  C   UNL     1      36.964 -25.664 -11.621  0.00  0.00    +0.002 C 
ATOM     19  C   UNL     1      35.719 -23.475 -11.120  0.00  0.00    +0.019 C 
ATOM     20  C   UNL     1      36.212 -25.804 -12.940  0.00  0.00    +0.019 C 
ATOM     21  C   UNL     1      35.600 -22.742 -12.459  0.00  0.00    +0.092 C 
ATOM     22  C   UNL     1      36.324 -24.615 -13.893  0.00  0.00    +0.092 C 
ENDBRANCH  11  16
ENDBRANCH   7  12
ENDBRANCH   1   7
BRANCH   2  23
ATOM     23  C   UNL     1      35.175 -17.958 -21.654  0.00  0.00    +0.048 C 
BRANCH  23  24
ATOM     24  C   UNL     1      34.360 -17.764 -22.940  0.00  0.00    +0.094 C 
BRANCH  24  26
ATOM     25  O   UNL     1      32.433 -16.746 -24.757  0.00  0.00    -0.268 OA
ATOM     26  N   UNL     1      34.126 -16.376 -23.235  0.00  0.00    -0.299 N 
ATOM     27  C   UNL     1      33.155 -15.960 -24.144  0.00  0.00    +0.267 C 
ATOM     28  H   UNL     1      34.670 -15.695 -22.777  0.00  0.00    +0.150 HD
BRANCH  27  31
ATOM     29  O   UNL     1      32.706 -12.651 -25.407  0.00  0.00    -0.358 OA
ATOM     30  N   UNL     1      32.693 -14.034 -25.551  0.00  0.00    -0.073 NA
ATOM     31  C   UNL     1      33.061 -14.509 -24.358  0.00  0.00    +0.176 C 
ATOM     32  C   UNL     1      33.316 -13.484 -23.431  0.00  0.00    +0.063 C 
ATOM     33  C   UNL     1      33.079 -12.337 -24.140  0.00  0.00    +0.155 C 
ATOM     34  C   UNL     1      33.146 -10.907 -23.812  0.00  0.00    +0.075 C 
ENDBRANCH  27  31
ENDBRANCH  24  26
ENDBRANCH  23  24
ENDBRANCH   2  23
TORSDOF 7
ENDMDL
MODEL 2
REMARK VINA RESULT:     -12.0      1.407      1.554
REMARK  Name = 32778
REMARK  7 active torsions:
REMARK  status: ('A' for Active; 'I' for Inactive)
REMARK    1  A    between atoms: C_1  and  S_7
REMARK    2  A    between atoms: C_2  and  C_23
REMARK    3  A    between atoms: S_7  and  N_12
REMARK    4  A    between atoms: N_11  and  N_16
REMARK    5  A    between atoms: C_23  and  C_24
REMARK    6  A    between atoms: C_24  and  N_26
REMARK    7  A    between atoms: C_27  and  C_31
REMARK                            x       y       z     vdW  Elec       q    Type
REMARK                         _______ _______ _______ _____ _____    ______ ____
ROOT
ATOM      1  C   UNL     1      33.134 -21.320 -18.720  0.00  0.00    +0.125 C 
ATOM      2  C   UNL     1      34.035 -19.431 -20.564  0.00  0.00    -0.020 C 
ATOM      3  C   UNL     1      34.502 -21.138 -18.919  0.00  0.00    +0.020 C 
ATOM      4  C   UNL     1      32.216 -20.558 -19.443  0.00  0.00    +0.020 C 
ATOM      5  C   UNL     1      34.953 -20.193 -19.841  0.00  0.00    -0.003 C 
ATOM      6  C   UNL     1      32.667 -19.613 -20.364  0.00  0.00    -0.003 C 
ENDROOT
BRANCH   1   7
ATOM      7  S   UNL     1      32.563 -22.519 -17.553  0.00  0.00    +0.077 S 
ATOM      8  O   UNL     1      32.778 -23.837 -18.118  0.00  0.00    -0.150 OA
ATOM      9  O   UNL     1      31.236 -22.104 -17.140  0.00  0.00    -0.150 OA
BRANCH   7  12
ATOM     10  O   UNL     1      33.427 -24.319 -15.176  0.00  0.00    -0.250 OA
ATOM     11  N   UNL     1      34.876 -22.724 -14.333  0.00  0.00    -0.230 N 
ATOM     12  N   UNL     1      33.659 -22.268 -16.266  0.00  0.00    -0.168 N 
ATOM     13  C   UNL     1      33.953 -23.211 -15.230  0.00  0.00    +0.333 C 
ATOM     14  H   UNL     1      35.253 -21.822 -14.445  0.00  0.00    +0.171 HD
ATOM     15  H   UNL     1      34.128 -21.402 -16.233  0.00  0.00    +0.178 HD
BRANCH  11  16
ATOM     16  N   UNL     1      35.268 -23.521 -13.268  0.00  0.00    -0.205 NA
ATOM     17  C   UNL     1      37.467 -24.231 -11.055  0.00  0.00    +0.002 C 
ATOM     18  C   UNL     1      37.263 -25.619 -11.649  0.00  0.00    +0.002 C 
ATOM     19  C   UNL     1      36.196 -23.401 -10.917  0.00  0.00    +0.019 C 
ATOM     20  C   UNL     1      36.247 -25.748 -12.779  0.00  0.00    +0.019 C 
ATOM     21  C   UNL     1      35.813 -22.671 -12.208  0.00  0.00    +0.092 C 
ATOM     22  C   UNL     1      36.180 -24.566 -13.745  0.00  0.00    +0.092 C 
ENDBRANCH  11  16
ENDBRANCH   7  12
ENDBRANCH   1   7
BRANCH   2  23
ATOM     23  C   UNL     1      34.518 -18.420 -21.548  0.00  0.00    +0.048 C 
BRANCH  23  24
ATOM     24  C   UNL     1      34.580 -16.995 -20.983  0.00  0.00    +0.094 C 
BRANCH  24  26
ATOM     25  O   UNL     1      33.461 -14.447 -20.425  0.00  0.00    -0.268 OA
ATOM     26  N   UNL     1      34.206 -16.003 -21.955  0.00  0.00    -0.299 N 
ATOM     27  C   UNL     1      33.660 -14.773 -21.595  0.00  0.00    +0.267 C 
ATOM     28  H   UNL     1      34.340 -16.201 -22.910  0.00  0.00    +0.150 HD
BRANCH  27  31
ATOM     29  O   UNL     1      33.019 -12.032 -23.790  0.00  0.00    -0.358 OA
ATOM     30  N   UNL     1      33.440 -12.561 -22.575  0.00  0.00    -0.073 NA
ATOM     31  C   UNL     1      33.301 -13.882 -22.708  0.00  0.00    +0.176 C 
ATOM     32  C   UNL     1      32.802 -14.244 -23.971  0.00  0.00    +0.063 C 
ATOM     33  C   UNL     1      32.641 -13.044 -24.612  0.00  0.00    +0.155 C 
ATOM     34  C   UNL     1      32.165 -12.661 -25.948  0.00  0.00    +0.075 C 
ENDBRANCH  27  31
ENDBRANCH  24  26
ENDBRANCH  23  24
ENDBRANCH   2  23
TORSDOF 7
ENDMDL
MODEL 3
REMARK VINA RESULT:     -12.0      1.827      1.937
REMARK  Name = 32778
REMARK  7 active torsions:
REMARK  status: ('A' for Active; 'I' for Inactive)
REMARK    1  A    between atoms: C_1  and  S_7
REMARK    2  A    between atoms: C_2  and  C_23
REMARK    3  A    between atoms: S_7  and  N_12
REMARK    4  A    between atoms: N_11  and  N_16
REMARK    5  A    between atoms: C_23  and  C_24
REMARK    6  A    between atoms: C_24  and  N_26
REMARK    7  A    between atoms: C_27  and  C_31
REMARK                            x       y       z     vdW  Elec       q    Type
REMARK                         _______ _______ _______ _____ _____    ______ ____
ROOT
ATOM      1  C   UNL     1      33.048 -21.266 -18.767  0.00  0.00    +0.125 C 
ATOM      2  C   UNL     1      33.763 -19.312 -20.624  0.00  0.00    -0.020 C 
ATOM      3  C   UNL     1      34.394 -21.002 -19.017  0.00  0.00    +0.020 C 
ATOM      4  C   UNL     1      32.059 -20.554 -19.445  0.00  0.00    +0.020 C 
ATOM      5  C   UNL     1      34.752 -20.025 -19.946  0.00  0.00    -0.003 C 
ATOM      6  C   UNL     1      32.417 -19.576 -20.373  0.00  0.00    -0.003 C 
ENDROOT
BRANCH   1   7
ATOM      7  S   UNL     1      32.596 -22.506 -17.591  0.00  0.00    +0.077 S 
ATOM      8  O   UNL     1      32.671 -23.798 -18.245  0.00  0.00    -0.150 OA
ATOM      9  O   UNL     1      31.358 -22.067 -16.972  0.00  0.00    -0.150 OA
BRANCH   7  12
ATOM     10  O   UNL     1      33.216 -24.023 -14.954  0.00  0.00    -0.250 OA
ATOM     11  N   UNL     1      35.146 -22.809 -14.563  0.00  0.00    -0.230 N 
ATOM     12  N   UNL     1      33.871 -22.366 -16.462  0.00  0.00    -0.168 N 
ATOM     13  C   UNL     1      34.019 -23.151 -15.274  0.00  0.00    +0.333 C 
ATOM     14  H   UNL     1      35.742 -22.095 -14.888  0.00  0.00    +0.171 HD
ATOM     15  H   UNL     1      34.563 -21.688 -16.643  0.00  0.00    +0.178 HD
BRANCH  11  16
ATOM     16  N   UNL     1      35.432 -23.481 -13.385  0.00  0.00    -0.205 NA
ATOM     17  C   UNL     1      37.465 -24.022 -10.975  0.00  0.00    +0.002 C 
ATOM     18  C   UNL     1      37.202 -25.461 -11.398  0.00  0.00    +0.002 C 
ATOM     19  C   UNL     1      36.246 -23.109 -11.018  0.00  0.00    +0.019 C 
ATOM     20  C   UNL     1      36.238 -25.677 -12.560  0.00  0.00    +0.019 C 
ATOM     21  C   UNL     1      35.976 -22.533 -12.412  0.00  0.00    +0.092 C 
ATOM     22  C   UNL     1      36.297 -24.630 -13.672  0.00  0.00    +0.092 C 
ENDBRANCH  11  16
ENDBRANCH   7  12
ENDBRANCH   1   7
BRANCH   2  23
ATOM     23  C   UNL     1      34.146 -18.267 -21.616  0.00  0.00    +0.048 C 
BRANCH  23  24
ATOM     24  C   UNL     1      34.875 -17.068 -20.994  0.00  0.00    +0.094 C 
BRANCH  24  26
ATOM     25  O   UNL     1      34.493 -15.031 -22.931  0.00  0.00    -0.268 OA
ATOM     26  N   UNL     1      34.021 -15.920 -20.856  0.00  0.00    -0.299 N 
ATOM     27  C   UNL     1      33.890 -14.962 -21.860  0.00  0.00    +0.267 C 
ATOM     28  H   UNL     1      33.510 -15.806 -20.023  0.00  0.00    +0.150 HD
BRANCH  27  31
ATOM     29  O   UNL     1      31.955 -11.962 -21.845  0.00  0.00    -0.358 OA
ATOM     30  N   UNL     1      32.842 -12.850 -22.445  0.00  0.00    -0.073 NA
ATOM     31  C   UNL     1      33.003 -13.831 -21.553  0.00  0.00    +0.176 C 
ATOM     32  C   UNL     1      32.252 -13.620 -20.384  0.00  0.00    +0.063 C 
ATOM     33  C   UNL     1      31.612 -12.432 -20.618  0.00  0.00    +0.155 C 
ATOM     34  C   UNL     1      30.675 -11.611 -19.840  0.00  0.00    +0.075 C 
ENDBRANCH  27  31
ENDBRANCH  24  26
ENDBRANCH  23  24
ENDBRANCH   2  23
TORSDOF 7
ENDMDL
MODEL 4
REMARK VINA RESULT:     -11.3      2.643     11.965
REMARK  Name = 32778
REMARK  7 active torsions:
REMARK  status: ('A' for Active; 'I' for Inactive)
REMARK    1  A    between atoms: C_1  and  S_7
REMARK    2  A    between atoms: C_2  and  C_23
REMARK    3  A    between atoms: S_7  and  N_12
REMARK    4  A    between atoms: N_11  and  N_16
REMARK    5  A    between atoms: C_23  and  C_24
REMARK    6  A    between atoms: C_24  and  N_26
REMARK    7  A    between atoms: C_27  and  C_31
REMARK                            x       y       z     vdW  Elec       q    Type
REMARK                         _______ _______ _______ _____ _____    ______ ____
ROOT
ATOM      1  C   UNL     1      34.532 -19.822 -19.957  0.00  0.00    +0.125 C 
ATOM      2  C   UNL     1      33.170 -21.646 -18.345  0.00  0.00    -0.020 C 
ATOM      3  C   UNL     1      35.246 -20.721 -19.164  0.00  0.00    +0.020 C 
ATOM      4  C   UNL     1      33.137 -19.834 -19.943  0.00  0.00    +0.020 C 
ATOM      5  C   UNL     1      34.564 -21.633 -18.358  0.00  0.00    -0.003 C 
ATOM      6  C   UNL     1      32.456 -20.747 -19.137  0.00  0.00    -0.003 C 
ENDROOT
BRANCH   1   7
ATOM      7  S   UNL     1      35.396 -18.665 -20.977  0.00  0.00    +0.077 S 
ATOM      8  O   UNL     1      35.030 -18.917 -22.356  0.00  0.00    -0.150 OA
ATOM      9  O   UNL     1      36.788 -18.703 -20.567  0.00  0.00    -0.150 OA
BRANCH   7  12
ATOM     10  O   UNL     1      33.835 -16.460 -22.505  0.00  0.00    -0.250 OA
ATOM     11  N   UNL     1      33.550 -15.170 -20.605  0.00  0.00    -0.230 N 
ATOM     12  N   UNL     1      34.697 -17.192 -20.464  0.00  0.00    -0.168 N 
ATOM     13  C   UNL     1      33.999 -16.268 -21.304  0.00  0.00    +0.333 C 
ATOM     14  H   UNL     1      33.723 -15.089 -19.639  0.00  0.00    +0.171 HD
ATOM     15  H   UNL     1      34.783 -16.960 -19.510  0.00  0.00    +0.178 HD
BRANCH  11  16
ATOM     16  N   UNL     1      32.851 -14.181 -21.279  0.00  0.00    -0.205 NA
ATOM     17  C   UNL     1      32.799 -11.224 -22.500  0.00  0.00    +0.002 C 
ATOM     18  C   UNL     1      31.519 -11.169 -21.676  0.00  0.00    +0.002 C 
ATOM     19  C   UNL     1      33.050 -12.551 -23.205  0.00  0.00    +0.019 C 
ATOM     20  C   UNL     1      31.138 -12.427 -20.902  0.00  0.00    +0.019 C 
ATOM     21  C   UNL     1      33.717 -13.594 -22.303  0.00  0.00    +0.092 C 
ATOM     22  C   UNL     1      32.304 -13.221 -20.315  0.00  0.00    +0.092 C 
ENDBRANCH  11  16
ENDBRANCH   7  12
ENDBRANCH   1   7
BRANCH   2  23
ATOM     23  C   UNL     1      32.442 -22.622 -17.484  0.00  0.00    +0.048 C 
BRANCH  23  24
ATOM     24  C   UNL     1      32.821 -22.533 -16.000  0.00  0.00    +0.094 C 
BRANCH  24  26
ATOM     25  O   UNL     1      33.127 -24.196 -13.720  0.00  0.00    -0.268 OA
ATOM     26  N   UNL     1      33.976 -23.330 -15.682  0.00  0.00    -0.299 N 
ATOM     27  C   UNL     1      34.045 -24.121 -14.537  0.00  0.00    +0.267 C 
ATOM     28  H   UNL     1      34.745 -23.316 -16.296  0.00  0.00    +0.150 HD
BRANCH  27  31
ATOM     29  O   UNL     1      36.693 -26.508 -14.363  0.00  0.00    -0.358 OA
ATOM     30  N   UNL     1      35.389 -26.140 -14.675  0.00  0.00    -0.073 NA
ATOM     31  C   UNL     1      35.306 -24.850 -14.339  0.00  0.00    +0.176 C 
ATOM     32  C   UNL     1      36.512 -24.355 -13.815  0.00  0.00    +0.063 C 
ATOM     33  C   UNL     1      37.351 -25.436 -13.852  0.00  0.00    +0.155 C 
ATOM     34  C   UNL     1      38.752 -25.650 -13.465  0.00  0.00    +0.075 C 
ENDBRANCH  27  31
ENDBRANCH  24  26
ENDBRANCH  23  24
ENDBRANCH   2  23
TORSDOF 7
ENDMDL
MODEL 5
REMARK VINA RESULT:     -11.2      3.237     12.719
REMARK  Name = 32778
REMARK  7 active torsions:
REMARK  status: ('A' for Active; 'I' for Inactive)
REMARK    1  A    between atoms: C_1  and  S_7
REMARK    2  A    between atoms: C_2  and  C_23
REMARK    3  A    between atoms: S_7  and  N_12
REMARK    4  A    between atoms: N_11  and  N_16
REMARK    5  A    between atoms: C_23  and  C_24
REMARK    6  A    between atoms: C_24  and  N_26
REMARK    7  A    between atoms: C_27  and  C_31
REMARK                            x       y       z     vdW  Elec       q    Type
REMARK                         _______ _______ _______ _____ _____    ______ ____
ROOT
ATOM      1  C   UNL     1      33.689 -16.834 -22.927  0.00  0.00    +0.125 C 
ATOM      2  C   UNL     1      34.181 -18.713 -20.925  0.00  0.00    -0.020 C 
ATOM      3  C   UNL     1      33.431 -18.185 -23.160  0.00  0.00    +0.020 C 
ATOM      4  C   UNL     1      34.193 -16.423 -21.694  0.00  0.00    +0.020 C 
ATOM      5  C   UNL     1      33.677 -19.125 -22.159  0.00  0.00    -0.003 C 
ATOM      6  C   UNL     1      34.438 -17.362 -20.692  0.00  0.00    -0.003 C 
ENDROOT
BRANCH   1   7
ATOM      7  S   UNL     1      33.379 -15.645 -24.198  0.00  0.00    +0.077 S 
ATOM      8  O   UNL     1      32.076 -15.924 -24.770  0.00  0.00    -0.150 OA
ATOM      9  O   UNL     1      34.560 -15.613 -25.040  0.00  0.00    -0.150 OA
BRANCH   7  12
ATOM     10  O   UNL     1      32.868 -12.692 -25.008  0.00  0.00    -0.250 OA
ATOM     11  N   UNL     1      33.047 -11.933 -22.830  0.00  0.00    -0.230 N 
ATOM     12  N   UNL     1      33.299 -14.204 -23.283  0.00  0.00    -0.168 N 
ATOM     13  C   UNL     1      33.052 -12.897 -23.812  0.00  0.00    +0.333 C 
ATOM     14  H   UNL     1      33.204 -12.178 -21.889  0.00  0.00    +0.171 HD
ATOM     15  H   UNL     1      33.435 -14.278 -22.310  0.00  0.00    +0.178 HD
BRANCH  11  16
ATOM     16  N   UNL     1      32.819 -10.611 -23.182  0.00  0.00    -0.205 NA
ATOM     17  C   UNL     1      33.749  -7.553 -23.055  0.00  0.00    +0.002 C 
ATOM     18  C   UNL     1      32.302  -7.386 -22.608  0.00  0.00    +0.002 C 
ATOM     19  C   UNL     1      33.963  -8.578 -24.162  0.00  0.00    +0.019 C 
ATOM     20  C   UNL     1      31.449  -8.648 -22.533  0.00  0.00    +0.019 C 
ATOM     21  C   UNL     1      34.075 -10.013 -23.638  0.00  0.00    +0.092 C 
ATOM     22  C   UNL     1      32.174  -9.909 -22.067  0.00  0.00    +0.092 C 
ENDBRANCH  11  16
ENDBRANCH   7  12
ENDBRANCH   1   7
BRANCH   2  23
ATOM     23  C   UNL     1      34.442 -19.718 -19.854  0.00  0.00    +0.048 C 
BRANCH  23  24
ATOM     24  C   UNL     1      33.355 -20.795 -19.745  0.00  0.00    +0.094 C 
BRANCH  24  26
ATOM     25  O   UNL     1      32.950 -23.447 -18.820  0.00  0.00    -0.268 OA
ATOM     26  N   UNL     1      33.109 -21.188 -18.384  0.00  0.00    -0.299 N 
ATOM     27  C   UNL     1      32.920 -22.518 -18.013  0.00  0.00    +0.267 C 
ATOM     28  H   UNL     1      33.073 -20.492 -17.688  0.00  0.00    +0.150 HD
BRANCH  27  31
ATOM     29  O   UNL     1      33.053 -23.189 -14.510  0.00  0.00    -0.358 OA
ATOM     30  N   UNL     1      33.653 -23.030 -15.754  0.00  0.00    -0.073 NA
ATOM     31  C   UNL     1      32.647 -22.752 -16.588  0.00  0.00    +0.176 C 
ATOM     32  C   UNL     1      31.403 -22.722 -15.934  0.00  0.00    +0.063 C 
ATOM     33  C   UNL     1      31.714 -23.004 -14.631  0.00  0.00    +0.155 C 
ATOM     34  C   UNL     1      30.920 -23.136 -13.402  0.00  0.00    +0.075 C 
ENDBRANCH  27  31
ENDBRANCH  24  26
ENDBRANCH  23  24
ENDBRANCH   2  23
TORSDOF 7
ENDMDL
MODEL 6
REMARK VINA RESULT:     -10.8      3.297      4.748
REMARK  Name = 32778
REMARK  7 active torsions:
REMARK  status: ('A' for Active; 'I' for Inactive)
REMARK    1  A    between atoms: C_1  and  S_7
REMARK    2  A    between atoms: C_2  and  C_23
REMARK    3  A    between atoms: S_7  and  N_12
REMARK    4  A    between atoms: N_11  and  N_16
REMARK    5  A    between atoms: C_23  and  C_24
REMARK    6  A    between atoms: C_24  and  N_26
REMARK    7  A    between atoms: C_27  and  C_31
REMARK                            x       y       z     vdW  Elec       q    Type
REMARK                         _______ _______ _______ _____ _____    ______ ____
ROOT
ATOM      1  C   UNL     1      35.078 -22.083 -16.341  0.00  0.00    +0.125 C 
ATOM      2  C   UNL     1      34.668 -20.888 -18.827  0.00  0.00    -0.020 C 
ATOM      3  C   UNL     1      36.083 -21.304 -16.913  0.00  0.00    +0.020 C 
ATOM      4  C   UNL     1      33.868 -22.266 -17.011  0.00  0.00    +0.020 C 
ATOM      5  C   UNL     1      35.878 -20.705 -18.156  0.00  0.00    -0.003 C 
ATOM      6  C   UNL     1      33.663 -21.667 -18.254  0.00  0.00    -0.003 C 
ENDROOT
BRANCH   1   7
ATOM      7  S   UNL     1      35.339 -22.843 -14.766  0.00  0.00    +0.077 S 
ATOM      8  O   UNL     1      36.484 -22.208 -14.142  0.00  0.00    -0.150 OA
ATOM      9  O   UNL     1      35.323 -24.277 -14.984  0.00  0.00    -0.150 OA
BRANCH   7  12
ATOM     10  O   UNL     1      32.408 -23.849 -14.952  0.00  0.00    -0.250 OA
ATOM     11  N   UNL     1      31.667 -22.372 -13.332  0.00  0.00    -0.230 N 
ATOM     12  N   UNL     1      33.915 -22.382 -13.941  0.00  0.00    -0.168 N 
ATOM     13  C   UNL     1      32.618 -22.950 -14.142  0.00  0.00    +0.333 C 
ATOM     14  H   UNL     1      31.915 -21.653 -12.707  0.00  0.00    +0.171 HD
ATOM     15  H   UNL     1      33.994 -21.664 -13.270  0.00  0.00    +0.178 HD
BRANCH  11  16
ATOM     16  N   UNL     1      30.355 -22.816 -13.407  0.00  0.00    -0.205 NA
ATOM     17  C   UNL     1      28.257 -24.953 -14.531  0.00  0.00    +0.002 C 
ATOM     18  C   UNL     1      27.547 -23.672 -14.950  0.00  0.00    +0.002 C 
ATOM     19  C   UNL     1      28.931 -24.894 -13.166  0.00  0.00    +0.019 C 
ATOM     20  C   UNL     1      28.224 -22.354 -14.590  0.00  0.00    +0.019 C 
ATOM     21  C   UNL     1      30.328 -24.267 -13.213  0.00  0.00    +0.092 C 
ATOM     22  C   UNL     1      29.750 -22.353 -14.661  0.00  0.00    +0.092 C 
ENDBRANCH  11  16
ENDBRANCH   7  12
ENDBRANCH   1   7
BRANCH   2  23
ATOM     23  C   UNL     1      34.449 -20.246 -20.156  0.00  0.00    +0.048 C 
BRANCH  23  24
ATOM     24  C   UNL     1      35.420 -19.095 -20.449  0.00  0.00    +0.094 C 
BRANCH  24  26
ATOM     25  O   UNL     1      34.240 -16.521 -20.261  0.00  0.00    -0.268 OA
ATOM     26  N   UNL     1      34.986 -18.281 -21.552  0.00  0.00    -0.299 N 
ATOM     27  C   UNL     1      34.414 -17.023 -21.372  0.00  0.00    +0.267 C 
ATOM     28  H   UNL     1      35.098 -18.624 -22.468  0.00  0.00    +0.150 HD
BRANCH  27  31
ATOM     29  O   UNL     1      33.638 -16.017 -24.708  0.00  0.00    -0.358 OA
ATOM     30  N   UNL     1      34.121 -16.936 -23.782  0.00  0.00    -0.073 NA
ATOM     31  C   UNL     1      33.994 -16.330 -22.598  0.00  0.00    +0.176 C 
ATOM     32  C   UNL     1      33.443 -15.042 -22.712  0.00  0.00    +0.063 C 
ATOM     33  C   UNL     1      33.238 -14.894 -24.058  0.00  0.00    +0.155 C 
ATOM     34  C   UNL     1      32.696 -13.813 -24.891  0.00  0.00    +0.075 C 
ENDBRANCH  27  31
ENDBRANCH  24  26
ENDBRANCH  23  24
ENDBRANCH   2  23
TORSDOF 7
ENDMDL
MODEL 7
REMARK VINA RESULT:     -10.4      4.055     13.288
REMARK  Name = 32778
REMARK  7 active torsions:
REMARK  status: ('A' for Active; 'I' for Inactive)
REMARK    1  A    between atoms: C_1  and  S_7
REMARK    2  A    between atoms: C_2  and  C_23
REMARK    3  A    between atoms: S_7  and  N_12
REMARK    4  A    between atoms: N_11  and  N_16
REMARK    5  A    between atoms: C_23  and  C_24
REMARK    6  A    between atoms: C_24  and  N_26
REMARK    7  A    between atoms: C_27  and  C_31
REMARK                            x       y       z     vdW  Elec       q    Type
REMARK                         _______ _______ _______ _____ _____    ______ ____
ROOT
ATOM      1  C   UNL     1      33.210 -14.621 -24.060  0.00  0.00    +0.125 C 
ATOM      2  C   UNL     1      34.131 -16.400 -22.118  0.00  0.00    -0.020 C 
ATOM      3  C   UNL     1      33.551 -15.927 -24.416  0.00  0.00    +0.020 C 
ATOM      4  C   UNL     1      33.330 -14.205 -22.734  0.00  0.00    +0.020 C 
ATOM      5  C   UNL     1      34.010 -16.816 -23.444  0.00  0.00    -0.003 C 
ATOM      6  C   UNL     1      33.790 -15.094 -21.763  0.00  0.00    -0.003 C 
ENDROOT
BRANCH   1   7
ATOM      7  S   UNL     1      32.629 -13.495 -25.292  0.00  0.00    +0.077 S 
ATOM      8  O   UNL     1      31.398 -14.025 -25.846  0.00  0.00    -0.150 OA
ATOM      9  O   UNL     1      33.757 -13.200 -26.157  0.00  0.00    -0.150 OA
BRANCH   7  12
ATOM     10  O   UNL     1      33.965 -10.699 -25.096  0.00  0.00    -0.250 OA
ATOM     11  N   UNL     1      32.479  -9.965 -23.481  0.00  0.00    -0.230 N 
ATOM     12  N   UNL     1      32.276 -12.121 -24.338  0.00  0.00    -0.168 N 
ATOM     13  C   UNL     1      32.998 -10.886 -24.362  0.00  0.00    +0.333 C 
ATOM     14  H   UNL     1      31.699 -10.192 -22.924  0.00  0.00    +0.171 HD
ATOM     15  H   UNL     1      31.512 -12.185 -23.719  0.00  0.00    +0.178 HD
BRANCH  11  16
ATOM     16  N   UNL     1      33.068  -8.713 -23.387  0.00  0.00    -0.205 NA
ATOM     17  C   UNL     1      32.772  -5.601 -22.708  0.00  0.00    +0.002 C 
ATOM     18  C   UNL     1      33.422  -5.490 -24.081  0.00  0.00    +0.002 C 
ATOM     19  C   UNL     1      33.309  -6.729 -21.835  0.00  0.00    +0.019 C 
ATOM     20  C   UNL     1      33.761  -6.793 -24.797  0.00  0.00    +0.019 C 
ATOM     21  C   UNL     1      32.655  -8.082 -22.133  0.00  0.00    +0.092 C 
ATOM     22  C   UNL     1      32.767  -7.936 -24.594  0.00  0.00    +0.092 C 
ENDBRANCH  11  16
ENDBRANCH   7  12
ENDBRANCH   1   7
BRANCH   2  23
ATOM     23  C   UNL     1      34.621 -17.351 -21.080  0.00  0.00    +0.048 C 
BRANCH  23  24
ATOM     24  C   UNL     1      34.508 -18.824 -21.495  0.00  0.00    +0.094 C 
BRANCH  24  26
ATOM     25  O   UNL     1      35.532 -20.280 -19.285  0.00  0.00    -0.268 OA
ATOM     26  N   UNL     1      33.736 -19.598 -20.561  0.00  0.00    -0.299 N 
ATOM     27  C   UNL     1      34.320 -20.286 -19.499  0.00  0.00    +0.267 C 
ATOM     28  H   UNL     1      32.759 -19.643 -20.675  0.00  0.00    +0.150 HD
BRANCH  27  31
ATOM     29  O   UNL     1      31.516 -21.792 -17.882  0.00  0.00    -0.358 OA
ATOM     30  N   UNL     1      32.079 -20.943 -18.829  0.00  0.00    -0.073 NA
ATOM     31  C   UNL     1      33.398 -21.057 -18.653  0.00  0.00    +0.176 C 
ATOM     32  C   UNL     1      33.724 -21.953 -17.620  0.00  0.00    +0.063 C 
ATOM     33  C   UNL     1      32.506 -22.387 -17.169  0.00  0.00    +0.155 C 
ATOM     34  C   UNL     1      32.086 -23.323 -16.118  0.00  0.00    +0.075 C 
ENDBRANCH  27  31
ENDBRANCH  24  26
ENDBRANCH  23  24
ENDBRANCH   2  23
TORSDOF 7
ENDMDL
MODEL 8
REMARK VINA RESULT:     -10.3      3.428      3.935
REMARK  Name = 32778
REMARK  7 active torsions:
REMARK  status: ('A' for Active; 'I' for Inactive)
REMARK    1  A    between atoms: C_1  and  S_7
REMARK    2  A    between atoms: C_2  and  C_23
REMARK    3  A    between atoms: S_7  and  N_12
REMARK    4  A    between atoms: N_11  and  N_16
REMARK    5  A    between atoms: C_23  and  C_24
REMARK    6  A    between atoms: C_24  and  N_26
REMARK    7  A    between atoms: C_27  and  C_31
REMARK                            x       y       z     vdW  Elec       q    Type
REMARK                         _______ _______ _______ _____ _____    ______ ____
ROOT
ATOM      1  C   UNL     1      34.008 -20.687 -19.392  0.00  0.00    +0.125 C 
ATOM      2  C   UNL     1      34.321 -18.434 -21.008  0.00  0.00    -0.020 C 
ATOM      3  C   UNL     1      35.267 -20.106 -19.542  0.00  0.00    +0.020 C 
ATOM      4  C   UNL     1      32.905 -20.142 -20.051  0.00  0.00    +0.020 C 
ATOM      5  C   UNL     1      35.424 -18.979 -20.349  0.00  0.00    -0.003 C 
ATOM      6  C   UNL     1      33.062 -19.015 -20.858  0.00  0.00    -0.003 C 
ENDROOT
BRANCH   1   7
ATOM      7  S   UNL     1      33.810 -22.115 -18.370  0.00  0.00    +0.077 S 
ATOM      8  O   UNL     1      34.794 -22.050 -17.307  0.00  0.00    -0.150 OA
ATOM      9  O   UNL     1      33.762 -23.263 -19.258  0.00  0.00    -0.150 OA
BRANCH   7  12
ATOM     10  O   UNL     1      32.291 -23.406 -15.991  0.00  0.00    -0.250 OA
ATOM     11  N   UNL     1      30.416 -22.089 -16.312  0.00  0.00    -0.230 N 
ATOM     12  N   UNL     1      32.254 -21.840 -17.720  0.00  0.00    -0.168 N 
ATOM     13  C   UNL     1      31.687 -22.529 -16.602  0.00  0.00    +0.333 C 
ATOM     14  H   UNL     1      29.999 -21.379 -16.851  0.00  0.00    +0.171 HD
ATOM     15  H   UNL     1      31.700 -21.148 -18.152  0.00  0.00    +0.178 HD
BRANCH  11  16
ATOM     16  N   UNL     1      29.730 -22.659 -15.250  0.00  0.00    -0.205 NA
ATOM     17  C   UNL     1      29.700 -24.741 -12.822  0.00  0.00    +0.002 C 
ATOM     18  C   UNL     1      28.403 -25.149 -13.508  0.00  0.00    +0.002 C 
ATOM     19  C   UNL     1      29.967 -23.241 -12.799  0.00  0.00    +0.019 C 
ATOM     20  C   UNL     1      28.007 -24.375 -14.761  0.00  0.00    +0.019 C 
ATOM     21  C   UNL     1      30.617 -22.727 -14.088  0.00  0.00    +0.092 C 
ATOM     22  C   UNL     1      29.162 -23.945 -15.665  0.00  0.00    +0.092 C 
ENDBRANCH  11  16
ENDBRANCH   7  12
ENDBRANCH   1   7
BRANCH   2  23
ATOM     23  C   UNL     1      34.489 -17.229 -21.870  0.00  0.00    +0.048 C 
BRANCH  23  24
ATOM     24  C   UNL     1      34.119 -15.916 -21.167  0.00  0.00    +0.094 C 
BRANCH  24  26
ATOM     25  O   UNL     1      32.237 -13.796 -21.033  0.00  0.00    -0.268 OA
ATOM     26  N   UNL     1      34.020 -14.813 -22.085  0.00  0.00    -0.299 N 
ATOM     27  C   UNL     1      33.063 -13.810 -21.946  0.00  0.00    +0.267 C 
ATOM     28  H   UNL     1      34.652 -14.765 -22.838  0.00  0.00    +0.150 HD
BRANCH  27  31
ATOM     29  O   UNL     1      32.892 -11.894 -24.954  0.00  0.00    -0.358 OA
ATOM     30  N   UNL     1      32.799 -13.091 -24.252  0.00  0.00    -0.073 NA
ATOM     31  C   UNL     1      33.072 -12.770 -22.985  0.00  0.00    +0.176 C 
ATOM     32  C   UNL     1      33.342 -11.400 -22.827  0.00  0.00    +0.063 C 
ATOM     33  C   UNL     1      33.217 -10.895 -24.093  0.00  0.00    +0.155 C 
ATOM     34  C   UNL     1      33.357  -9.552 -24.671  0.00  0.00    +0.075 C 
ENDBRANCH  27  31
ENDBRANCH  24  26
ENDBRANCH  23  24
ENDBRANCH   2  23
TORSDOF 7
ENDMDL
MODEL 9
REMARK VINA RESULT:     -10.3      3.287      4.166
REMARK  Name = 32778
REMARK  7 active torsions:
REMARK  status: ('A' for Active; 'I' for Inactive)
REMARK    1  A    between atoms: C_1  and  S_7
REMARK    2  A    between atoms: C_2  and  C_23
REMARK    3  A    between atoms: S_7  and  N_12
REMARK    4  A    between atoms: N_11  and  N_16
REMARK    5  A    between atoms: C_23  and  C_24
REMARK    6  A    between atoms: C_24  and  N_26
REMARK    7  A    between atoms: C_27  and  C_31
REMARK                            x       y       z     vdW  Elec       q    Type
REMARK                         _______ _______ _______ _____ _____    ______ ____
ROOT
ATOM      1  C   UNL     1      34.569 -19.994 -19.922  0.00  0.00    +0.125 C 
ATOM      2  C   UNL     1      34.105 -18.093 -21.910  0.00  0.00    -0.020 C 
ATOM      3  C   UNL     1      35.589 -19.122 -20.304  0.00  0.00    +0.020 C 
ATOM      4  C   UNL     1      33.319 -19.917 -20.535  0.00  0.00    +0.020 C 
ATOM      5  C   UNL     1      35.356 -18.170 -21.297  0.00  0.00    -0.003 C 
ATOM      6  C   UNL     1      33.086 -18.966 -21.528  0.00  0.00    -0.003 C 
ENDROOT
BRANCH   1   7
ATOM      7  S   UNL     1      34.865 -21.201 -18.665  0.00  0.00    +0.077 S 
ATOM      8  O   UNL     1      35.708 -20.598 -17.650  0.00  0.00    -0.150 OA
ATOM      9  O   UNL     1      35.282 -22.416 -19.339  0.00  0.00    -0.150 OA
BRANCH   7  12
ATOM     10  O   UNL     1      33.721 -23.135 -16.524  0.00  0.00    -0.250 OA
ATOM     11  N   UNL     1      31.573 -22.302 -16.739  0.00  0.00    -0.230 N 
ATOM     12  N   UNL     1      33.289 -21.414 -18.040  0.00  0.00    -0.168 N 
ATOM     13  C   UNL     1      32.915 -22.365 -17.039  0.00  0.00    +0.333 C 
ATOM     14  H   UNL     1      30.990 -21.655 -17.198  0.00  0.00    +0.171 HD
ATOM     15  H   UNL     1      32.578 -20.834 -18.399  0.00  0.00    +0.178 HD
BRANCH  11  16
ATOM     16  N   UNL     1      31.053 -23.161 -15.784  0.00  0.00    -0.205 NA
ATOM     17  C   UNL     1      28.915 -23.691 -13.463  0.00  0.00    +0.002 C 
ATOM     18  C   UNL     1      30.183 -24.091 -12.721  0.00  0.00    +0.002 C 
ATOM     19  C   UNL     1      28.869 -24.112 -14.927  0.00  0.00    +0.019 C 
ATOM     20  C   UNL     1      31.496 -23.998 -13.490  0.00  0.00    +0.019 C 
ATOM     21  C   UNL     1      29.591 -23.131 -15.856  0.00  0.00    +0.092 C 
ATOM     22  C   UNL     1      31.608 -22.828 -14.468  0.00  0.00    +0.092 C 
ENDBRANCH  11  16
ENDBRANCH   7  12
ENDBRANCH   1   7
BRANCH   2  23
ATOM     23  C   UNL     1      33.857 -17.075 -22.971  0.00  0.00    +0.048 C 
BRANCH  23  24
ATOM     24  C   UNL     1      34.640 -15.771 -22.766  0.00  0.00    +0.094 C 
BRANCH  24  26
ATOM     25  O   UNL     1      33.668 -14.962 -20.226  0.00  0.00    -0.268 OA
ATOM     26  N   UNL     1      33.778 -14.650 -22.508  0.00  0.00    -0.299 N 
ATOM     27  C   UNL     1      33.345 -14.320 -21.225  0.00  0.00    +0.267 C 
ATOM     28  H   UNL     1      33.483 -14.094 -23.265  0.00  0.00    +0.150 HD
BRANCH  27  31
ATOM     29  O   UNL     1      31.514 -11.290 -21.681  0.00  0.00    -0.358 OA
ATOM     30  N   UNL     1      32.479 -12.213 -22.069  0.00  0.00    -0.073 NA
ATOM     31  C   UNL     1      32.442 -13.165 -21.132  0.00  0.00    +0.176 C 
ATOM     32  C   UNL     1      31.483 -12.900 -20.139  0.00  0.00    +0.063 C 
ATOM     33  C   UNL     1      30.929 -11.710 -20.530  0.00  0.00    +0.155 C 
ATOM     34  C   UNL     1      29.878 -10.847 -19.976  0.00  0.00    +0.075 C 
ENDBRANCH  27  31
ENDBRANCH  24  26
ENDBRANCH  23  24
ENDBRANCH   2  23
TORSDOF 7
ENDMDL
