MODEL 1
REMARK VINA RESULT:     -12.7      0.000      0.000
REMARK  Name = 25243853
REMARK  6 active torsions:
REMARK  status: ('A' for Active; 'I' for Inactive)
REMARK    1  A    between atoms: N_1  and  C_6
REMARK    2  A    between atoms: N_1  and  C_21
REMARK    3  A    between atoms: C_3  and  C_16
REMARK    4  A    between atoms: C_11  and  C_18
REMARK    5  A    between atoms: C_18  and  O_19
REMARK    6  A    between atoms: C_21  and  C_28
REMARK                            x       y       z     vdW  Elec       q    Type
REMARK                         _______ _______ _______ _____ _____    ______ ____
ROOT
ATOM      1  N   UNL     1      34.625 -18.916 -21.464  0.00  0.00    -0.327 N 
ATOM      2  H   UNL     1      34.825 -19.329 -22.335  0.00  0.00    +0.147 HD
ENDROOT
BRANCH   1   6
ATOM      3  C   UNL     1      33.146 -21.352 -18.378  0.00  0.00    +0.054 C 
ATOM      4  C   UNL     1      32.264 -20.612 -19.166  0.00  0.00    +0.006 C 
ATOM      5  C   UNL     1      34.519 -21.284 -18.616  0.00  0.00    +0.006 C 
ATOM      6  C   UNL     1      34.128 -19.735 -20.428  0.00  0.00    +0.045 C 
ATOM      7  C   UNL     1      32.756 -19.803 -20.191  0.00  0.00    +0.014 C 
ATOM      8  C   UNL     1      35.010 -20.475 -19.640  0.00  0.00    +0.014 C 
BRANCH   3  16
ATOM      9  O   UNL     1      31.417 -22.408 -17.304  0.00  0.00    -0.270 OA
ATOM     10  N   UNL     1      33.539 -22.711 -16.369  0.00  0.00    -0.276 N 
ATOM     11  C   UNL     1      34.917 -22.594 -13.815  0.00  0.00    +0.102 C 
ATOM     12  C   UNL     1      33.425 -22.926 -13.920  0.00  0.00    +0.033 C 
ATOM     13  C   UNL     1      35.426 -21.834 -15.043  0.00  0.00    +0.033 C 
ATOM     14  C   UNL     1      33.058 -23.543 -15.268  0.00  0.00    +0.094 C 
ATOM     15  C   UNL     1      34.986 -22.466 -16.365  0.00  0.00    +0.094 C 
ATOM     16  C   UNL     1      32.629 -22.204 -17.300  0.00  0.00    +0.249 C 
BRANCH  11  18
ATOM     17  O   UNL     1      35.224 -24.917 -13.252  0.00  0.00    -0.250 OA
ATOM     18  C   UNL     1      35.714 -23.846 -13.583  0.00  0.00    +0.317 C 
BRANCH  18  19
ATOM     19  O   UNL     1      37.036 -23.590 -13.798  0.00  0.00    -0.444 OA
ATOM     20  C   UNL     1      37.885 -24.741 -13.834  0.00  0.00    +0.256 C 
ENDBRANCH  18  19
ENDBRANCH  11  18
ENDBRANCH   3  16
ENDBRANCH   1   6
BRANCH   1  21
ATOM     21  C   UNL     1      34.854 -17.514 -21.303  0.00  0.00    +0.145 C 
BRANCH  21  28
ATOM     22  N   UNL     1      34.057 -15.419 -22.266  0.00  0.00    -0.392 NA
ATOM     23  N   UNL     1      33.214 -16.696 -24.573  0.00  0.00    -0.200 NA
ATOM     24  N   UNL     1      32.477 -14.679 -25.437  0.00  0.00    -0.271 NA
ATOM     25  N   UNL     1      32.705 -12.644 -24.187  0.00  0.00    -0.310 NA
ATOM     26  N   UNL     1      33.695 -12.696 -22.043  0.00  0.00    -0.329 N 
ATOM     27  N   UNL     1      31.727 -12.635 -26.315  0.00  0.00    -0.283 N 
ATOM     28  C   UNL     1      34.210 -16.743 -22.422  0.00  0.00    +0.133 C 
ATOM     29  C   UNL     1      33.794 -17.374 -23.563  0.00  0.00    +0.193 C 
ATOM     30  C   UNL     1      33.478 -14.743 -23.277  0.00  0.00    +0.248 C 
ATOM     31  C   UNL     1      33.049 -15.374 -24.447  0.00  0.00    +0.131 C 
ATOM     32  C   UNL     1      33.276 -13.378 -23.215  0.00  0.00    +0.231 C 
ATOM     33  C   UNL     1      32.333 -13.351 -25.260  0.00  0.00    +0.207 C 
ATOM     34  H   UNL     1      33.565 -11.723 -21.966  0.00  0.00    +0.145 HD
ATOM     35  H   UNL     1      34.115 -13.195 -21.306  0.00  0.00    +0.145 HD
ATOM     36  H   UNL     1      31.434 -13.109 -27.127  0.00  0.00    +0.156 HD
ATOM     37  H   UNL     1      31.597 -11.662 -26.239  0.00  0.00    +0.156 HD
ENDBRANCH  21  28
ENDBRANCH   1  21
TORSDOF 6
ENDMDL
MODEL 2
REMARK VINA RESULT:     -12.0      1.457      2.208
REMARK  Name = 25243853
REMARK  6 active torsions:
REMARK  status: ('A' for Active; 'I' for Inactive)
REMARK    1  A    between atoms: N_1  and  C_6
REMARK    2  A    between atoms: N_1  and  C_21
REMARK    3  A    between atoms: C_3  and  C_16
REMARK    4  A    between atoms: C_11  and  C_18
REMARK    5  A    between atoms: C_18  and  O_19
REMARK    6  A    between atoms: C_21  and  C_28
REMARK                            x       y       z     vdW  Elec       q    Type
REMARK                         _______ _______ _______ _____ _____    ______ ____
ROOT
ATOM      1  N   UNL     1      34.580 -20.415 -20.097  0.00  0.00    -0.327 N 
ATOM      2  H   UNL     1      34.468 -20.890 -20.952  0.00  0.00    +0.147 HD
ENDROOT
BRANCH   1   6
ATOM      3  C   UNL     1      33.582 -22.421 -16.545  0.00  0.00    +0.054 C 
ATOM      4  C   UNL     1      34.878 -21.941 -16.733  0.00  0.00    +0.006 C 
ATOM      5  C   UNL     1      32.618 -22.234 -17.535  0.00  0.00    +0.006 C 
ATOM      6  C   UNL     1      34.245 -21.088 -18.903  0.00  0.00    +0.045 C 
ATOM      7  C   UNL     1      35.209 -21.274 -17.913  0.00  0.00    +0.014 C 
ATOM      8  C   UNL     1      32.949 -21.568 -18.714  0.00  0.00    +0.014 C 
BRANCH   3  16
ATOM      9  O   UNL     1      32.032 -23.294 -15.097  0.00  0.00    -0.270 OA
ATOM     10  N   UNL     1      34.272 -23.539 -14.467  0.00  0.00    -0.276 N 
ATOM     11  C   UNL     1      36.030 -23.152 -12.188  0.00  0.00    +0.102 C 
ATOM     12  C   UNL     1      34.537 -23.455 -12.022  0.00  0.00    +0.033 C 
ATOM     13  C   UNL     1      36.348 -22.559 -13.564  0.00  0.00    +0.033 C 
ATOM     14  C   UNL     1      33.961 -24.219 -13.213  0.00  0.00    +0.094 C 
ATOM     15  C   UNL     1      35.703 -23.333 -14.716  0.00  0.00    +0.094 C 
ATOM     16  C   UNL     1      33.232 -23.123 -15.303  0.00  0.00    +0.249 C 
BRANCH  11  18
ATOM     17  O   UNL     1      36.453 -25.337 -11.265  0.00  0.00    -0.250 OA
ATOM     18  C   UNL     1      36.844 -24.387 -11.929  0.00  0.00    +0.317 C 
BRANCH  18  19
ATOM     19  O   UNL     1      38.056 -24.271 -12.542  0.00  0.00    -0.444 OA
ATOM     20  C   UNL     1      38.520 -25.447 -13.213  0.00  0.00    +0.256 C 
ENDBRANCH  18  19
ENDBRANCH  11  18
ENDBRANCH   3  16
ENDBRANCH   1   6
BRANCH   1  21
ATOM     21  C   UNL     1      35.076 -19.074 -20.119  0.00  0.00    +0.145 C 
BRANCH  21  28
ATOM     22  N   UNL     1      34.335 -17.017 -21.199  0.00  0.00    -0.392 NA
ATOM     23  N   UNL     1      33.827 -18.343 -23.576  0.00  0.00    -0.200 NA
ATOM     24  N   UNL     1      33.134 -16.360 -24.550  0.00  0.00    -0.271 NA
ATOM     25  N   UNL     1      33.138 -14.308 -23.309  0.00  0.00    -0.310 NA
ATOM     26  N   UNL     1      33.857 -14.306 -21.058  0.00  0.00    -0.329 N 
ATOM     27  N   UNL     1      32.430 -14.352 -25.540  0.00  0.00    -0.283 N 
ATOM     28  C   UNL     1      34.551 -18.336 -21.319  0.00  0.00    +0.133 C 
ATOM     29  C   UNL     1      34.300 -18.991 -22.494  0.00  0.00    +0.193 C 
ATOM     30  C   UNL     1      33.863 -16.370 -22.283  0.00  0.00    +0.248 C 
ATOM     31  C   UNL     1      33.603 -17.026 -23.488  0.00  0.00    +0.131 C 
ATOM     32  C   UNL     1      33.609 -15.013 -22.264  0.00  0.00    +0.231 C 
ATOM     33  C   UNL     1      32.925 -15.037 -24.410  0.00  0.00    +0.207 C 
ATOM     34  H   UNL     1      33.685 -13.338 -21.011  0.00  0.00    +0.145 HD
ATOM     35  H   UNL     1      34.199 -14.784 -20.269  0.00  0.00    +0.145 HD
ATOM     36  H   UNL     1      32.256 -14.842 -26.376  0.00  0.00    +0.156 HD
ATOM     37  H   UNL     1      32.259 -13.383 -25.494  0.00  0.00    +0.156 HD
ENDBRANCH  21  28
ENDBRANCH   1  21
TORSDOF 6
ENDMDL
MODEL 3
REMARK VINA RESULT:     -11.6      5.197      8.904
REMARK  Name = 25243853
REMARK  6 active torsions:
REMARK  status: ('A' for Active; 'I' for Inactive)
REMARK    1  A    between atoms: N_1  and  C_6
REMARK    2  A    between atoms: N_1  and  C_21
REMARK    3  A    between atoms: C_3  and  C_16
REMARK    4  A    between atoms: C_11  and  C_18
REMARK    5  A    between atoms: C_18  and  O_19
REMARK    6  A    between atoms: C_21  and  C_28
REMARK                            x       y       z     vdW  Elec       q    Type
REMARK                         _______ _______ _______ _____ _____    ______ ____
ROOT
ATOM      1  N   UNL     1      32.724 -10.523 -24.322  0.00  0.00    -0.327 N 
ATOM      2  H   UNL     1      32.272 -10.083 -25.078  0.00  0.00    +0.147 HD
ENDROOT
BRANCH   1   6
ATOM      3  C   UNL     1      32.818 -14.721 -24.206  0.00  0.00    +0.054 C 
ATOM      4  C   UNL     1      32.892 -13.989 -23.021  0.00  0.00    +0.006 C 
ATOM      5  C   UNL     1      32.712 -14.058 -25.429  0.00  0.00    +0.006 C 
ATOM      6  C   UNL     1      32.755 -11.933 -24.283  0.00  0.00    +0.045 C 
ATOM      7  C   UNL     1      32.860 -12.594 -23.060  0.00  0.00    +0.014 C 
ATOM      8  C   UNL     1      32.681 -12.665 -25.468  0.00  0.00    +0.014 C 
BRANCH   3  16
ATOM      9  O   UNL     1      32.094 -16.769 -24.943  0.00  0.00    -0.270 OA
ATOM     10  N   UNL     1      33.726 -16.802 -23.268  0.00  0.00    -0.276 N 
ATOM     11  C   UNL     1      34.306 -18.044 -20.708  0.00  0.00    +0.102 C 
ATOM     12  C   UNL     1      33.443 -18.734 -21.769  0.00  0.00    +0.033 C 
ATOM     13  C   UNL     1      34.349 -16.525 -20.897  0.00  0.00    +0.033 C 
ATOM     14  C   UNL     1      33.770 -18.260 -23.184  0.00  0.00    +0.094 C 
ATOM     15  C   UNL     1      34.628 -16.108 -22.342  0.00  0.00    +0.094 C 
ATOM     16  C   UNL     1      32.851 -16.188 -24.167  0.00  0.00    +0.249 C 
BRANCH  11  18
ATOM     17  O   UNL     1      36.473 -18.543 -21.638  0.00  0.00    -0.250 OA
ATOM     18  C   UNL     1      35.690 -18.629 -20.702  0.00  0.00    +0.317 C 
BRANCH  18  19
ATOM     19  O   UNL     1      35.915 -19.253 -19.511  0.00  0.00    -0.444 OA
ATOM     20  C   UNL     1      35.259 -20.514 -19.345  0.00  0.00    +0.256 C 
ENDBRANCH  18  19
ENDBRANCH  11  18
ENDBRANCH   3  16
ENDBRANCH   1   6
BRANCH   1  21
ATOM     21  C   UNL     1      33.322  -9.705 -23.313  0.00  0.00    +0.145 C 
BRANCH  21  28
ATOM     22  N   UNL     1      32.442  -8.029 -21.776  0.00  0.00    -0.392 NA
ATOM     23  N   UNL     1      30.952  -6.840 -23.783  0.00  0.00    -0.200 NA
ATOM     24  N   UNL     1      30.149  -5.274 -22.279  0.00  0.00    -0.271 NA
ATOM     25  N   UNL     1      30.823  -5.314 -19.977  0.00  0.00    -0.310 NA
ATOM     26  N   UNL     1      32.327  -6.976 -19.231  0.00  0.00    -0.329 N 
ATOM     27  N   UNL     1      29.333  -3.685 -20.756  0.00  0.00    -0.283 N 
ATOM     28  C   UNL     1      32.463  -8.504 -23.031  0.00  0.00    +0.133 C 
ATOM     29  C   UNL     1      31.727  -7.915 -24.023  0.00  0.00    +0.193 C 
ATOM     30  C   UNL     1      31.667  -6.953 -21.538  0.00  0.00    +0.248 C 
ATOM     31  C   UNL     1      30.911  -6.342 -22.541  0.00  0.00    +0.131 C 
ATOM     32  C   UNL     1      31.577  -6.387 -20.281  0.00  0.00    +0.231 C 
ATOM     33  C   UNL     1      30.142  -4.812 -21.014  0.00  0.00    +0.207 C 
ATOM     34  H   UNL     1      32.285  -6.598 -18.323  0.00  0.00    +0.145 HD
ATOM     35  H   UNL     1      32.890  -7.764 -19.409  0.00  0.00    +0.145 HD
ATOM     36  H   UNL     1      28.810  -3.277 -21.484  0.00  0.00    +0.156 HD
ATOM     37  H   UNL     1      29.290  -3.306 -19.848  0.00  0.00    +0.156 HD
ENDBRANCH  21  28
ENDBRANCH   1  21
TORSDOF 6
ENDMDL
MODEL 4
REMARK VINA RESULT:     -11.2      4.165     11.029
REMARK  Name = 25243853
REMARK  6 active torsions:
REMARK  status: ('A' for Active; 'I' for Inactive)
REMARK    1  A    between atoms: N_1  and  C_6
REMARK    2  A    between atoms: N_1  and  C_21
REMARK    3  A    between atoms: C_3  and  C_16
REMARK    4  A    between atoms: C_11  and  C_18
REMARK    5  A    between atoms: C_18  and  O_19
REMARK    6  A    between atoms: C_21  and  C_28
REMARK                            x       y       z     vdW  Elec       q    Type
REMARK                         _______ _______ _______ _____ _____    ______ ____
ROOT
ATOM      1  N   UNL     1      35.257 -20.264 -19.127  0.00  0.00    -0.327 N 
ATOM      2  H   UNL     1      35.751 -19.888 -18.363  0.00  0.00    +0.147 HD
ENDROOT
BRANCH   1   6
ATOM      3  C   UNL     1      34.148 -17.693 -22.258  0.00  0.00    +0.054 C 
ATOM      4  C   UNL     1      35.402 -17.564 -21.661  0.00  0.00    +0.006 C 
ATOM      5  C   UNL     1      33.263 -18.676 -21.815  0.00  0.00    +0.006 C 
ATOM      6  C   UNL     1      34.885 -19.400 -20.179  0.00  0.00    +0.045 C 
ATOM      7  C   UNL     1      35.771 -18.419 -20.622  0.00  0.00    +0.014 C 
ATOM      8  C   UNL     1      33.630 -19.529 -20.776  0.00  0.00    +0.014 C 
BRANCH   3  16
ATOM      9  O   UNL     1      33.903 -17.234 -24.492  0.00  0.00    -0.270 OA
ATOM     10  N   UNL     1      33.262 -15.531 -23.022  0.00  0.00    -0.276 N 
ATOM     11  C   UNL     1      33.610 -12.682 -22.581  0.00  0.00    +0.102 C 
ATOM     12  C   UNL     1      33.687 -13.304 -23.979  0.00  0.00    +0.033 C 
ATOM     13  C   UNL     1      33.878 -13.709 -21.477  0.00  0.00    +0.033 C 
ATOM     14  C   UNL     1      32.888 -14.602 -24.084  0.00  0.00    +0.094 C 
ATOM     15  C   UNL     1      33.092 -15.008 -21.661  0.00  0.00    +0.094 C 
ATOM     16  C   UNL     1      33.760 -16.794 -23.352  0.00  0.00    +0.249 C 
BRANCH  11  18
ATOM     17  O   UNL     1      31.485 -12.312 -21.506  0.00  0.00    -0.250 OA
ATOM     18  C   UNL     1      32.281 -12.009 -22.383  0.00  0.00    +0.317 C 
BRANCH  18  19
ATOM     19  O   UNL     1      32.122 -11.033 -23.321  0.00  0.00    -0.444 OA
ATOM     20  C   UNL     1      32.776  -9.793 -23.034  0.00  0.00    +0.256 C 
ENDBRANCH  18  19
ENDBRANCH  11  18
ENDBRANCH   3  16
ENDBRANCH   1   6
BRANCH   1  21
ATOM     21  C   UNL     1      34.948 -21.660 -19.122  0.00  0.00    +0.145 C 
BRANCH  21  28
ATOM     22  N   UNL     1      34.235 -22.403 -16.912  0.00  0.00    -0.392 NA
ATOM     23  N   UNL     1      31.566 -22.046 -17.554  0.00  0.00    -0.200 NA
ATOM     24  N   UNL     1      30.947 -22.759 -15.440  0.00  0.00    -0.271 NA
ATOM     25  N   UNL     1      32.597 -23.409 -13.825  0.00  0.00    -0.310 NA
ATOM     26  N   UNL     1      34.888 -23.323 -14.396  0.00  0.00    -0.329 N 
ATOM     27  N   UNL     1      30.317 -23.482 -13.298  0.00  0.00    -0.283 N 
ATOM     28  C   UNL     1      33.866 -21.958 -18.122  0.00  0.00    +0.133 C 
ATOM     29  C   UNL     1      32.546 -21.781 -18.439  0.00  0.00    +0.193 C 
ATOM     30  C   UNL     1      33.254 -22.666 -16.027  0.00  0.00    +0.248 C 
ATOM     31  C   UNL     1      31.903 -22.490 -16.337  0.00  0.00    +0.131 C 
ATOM     32  C   UNL     1      33.528 -23.127 -14.754  0.00  0.00    +0.231 C 
ATOM     33  C   UNL     1      31.339 -23.204 -14.231  0.00  0.00    +0.207 C 
ATOM     34  H   UNL     1      35.118 -23.651 -13.498  0.00  0.00    +0.145 HD
ATOM     35  H   UNL     1      35.601 -23.131 -15.047  0.00  0.00    +0.145 HD
ATOM     36  H   UNL     1      29.374 -23.348 -13.547  0.00  0.00    +0.156 HD
ATOM     37  H   UNL     1      30.546 -23.810 -12.398  0.00  0.00    +0.156 HD
ENDBRANCH  21  28
ENDBRANCH   1  21
TORSDOF 6
ENDMDL
MODEL 5
REMARK VINA RESULT:     -11.2      2.163      3.590
REMARK  Name = 25243853
REMARK  6 active torsions:
REMARK  status: ('A' for Active; 'I' for Inactive)
REMARK    1  A    between atoms: N_1  and  C_6
REMARK    2  A    between atoms: N_1  and  C_21
REMARK    3  A    between atoms: C_3  and  C_16
REMARK    4  A    between atoms: C_11  and  C_18
REMARK    5  A    between atoms: C_18  and  O_19
REMARK    6  A    between atoms: C_21  and  C_28
REMARK                            x       y       z     vdW  Elec       q    Type
REMARK                         _______ _______ _______ _____ _____    ______ ____
ROOT
ATOM      1  N   UNL     1      34.680 -20.116 -20.427  0.00  0.00    -0.327 N 
ATOM      2  H   UNL     1      34.365 -20.575 -21.239  0.00  0.00    +0.147 HD
ENDROOT
BRANCH   1   6
ATOM      3  C   UNL     1      34.396 -22.126 -16.750  0.00  0.00    +0.054 C 
ATOM      4  C   UNL     1      35.580 -21.477 -17.100  0.00  0.00    +0.006 C 
ATOM      5  C   UNL     1      33.307 -22.108 -17.621  0.00  0.00    +0.006 C 
ATOM      6  C   UNL     1      34.585 -20.791 -19.191  0.00  0.00    +0.045 C 
ATOM      7  C   UNL     1      35.674 -20.808 -18.321  0.00  0.00    +0.014 C 
ATOM      8  C   UNL     1      33.401 -21.441 -18.842  0.00  0.00    +0.014 C 
BRANCH   3  16
ATOM      9  O   UNL     1      35.335 -23.336 -15.042  0.00  0.00    -0.270 OA
ATOM     10  N   UNL     1      33.053 -22.866 -14.829  0.00  0.00    -0.276 N 
ATOM     11  C   UNL     1      30.529 -24.168 -14.225  0.00  0.00    +0.102 C 
ATOM     12  C   UNL     1      31.862 -24.681 -13.670  0.00  0.00    +0.033 C 
ATOM     13  C   UNL     1      30.718 -23.316 -15.483  0.00  0.00    +0.033 C 
ATOM     14  C   UNL     1      32.911 -23.577 -13.561  0.00  0.00    +0.094 C 
ATOM     15  C   UNL     1      31.816 -22.261 -15.335  0.00  0.00    +0.094 C 
ATOM     16  C   UNL     1      34.297 -22.830 -15.465  0.00  0.00    +0.249 C 
BRANCH  11  18
ATOM     17  O   UNL     1      29.863 -23.648 -11.967  0.00  0.00    -0.250 OA
ATOM     18  C   UNL     1      29.781 -23.411 -13.165  0.00  0.00    +0.317 C 
BRANCH  18  19
ATOM     19  O   UNL     1      29.018 -22.444 -13.749  0.00  0.00    -0.444 OA
ATOM     20  C   UNL     1      27.885 -22.917 -14.485  0.00  0.00    +0.256 C 
ENDBRANCH  18  19
ENDBRANCH  11  18
ENDBRANCH   3  16
ENDBRANCH   1   6
BRANCH   1  21
ATOM     21  C   UNL     1      35.216 -18.796 -20.551  0.00  0.00    +0.145 C 
BRANCH  21  28
ATOM     22  N   UNL     1      34.353 -16.756 -21.572  0.00  0.00    -0.392 NA
ATOM     23  N   UNL     1      33.652 -18.104 -23.886  0.00  0.00    -0.200 NA
ATOM     24  N   UNL     1      32.849 -16.137 -24.805  0.00  0.00    -0.271 NA
ATOM     25  N   UNL     1      32.936 -14.076 -23.581  0.00  0.00    -0.310 NA
ATOM     26  N   UNL     1      33.853 -14.051 -21.404  0.00  0.00    -0.329 N 
ATOM     27  N   UNL     1      32.032 -14.144 -25.740  0.00  0.00    -0.283 N 
ATOM     28  C   UNL     1      34.575 -18.073 -21.703  0.00  0.00    +0.133 C 
ATOM     29  C   UNL     1      34.228 -18.739 -22.848  0.00  0.00    +0.193 C 
ATOM     30  C   UNL     1      33.777 -16.123 -22.612  0.00  0.00    +0.248 C 
ATOM     31  C   UNL     1      33.419 -16.789 -23.786  0.00  0.00    +0.131 C 
ATOM     32  C   UNL     1      33.508 -14.768 -22.578  0.00  0.00    +0.231 C 
ATOM     33  C   UNL     1      32.635 -14.816 -24.655  0.00  0.00    +0.207 C 
ATOM     34  H   UNL     1      33.674 -13.084 -21.346  0.00  0.00    +0.145 HD
ATOM     35  H   UNL     1      34.271 -14.519 -20.646  0.00  0.00    +0.145 HD
ATOM     36  H   UNL     1      31.790 -14.642 -26.554  0.00  0.00    +0.156 HD
ATOM     37  H   UNL     1      31.853 -13.178 -25.683  0.00  0.00    +0.156 HD
ENDBRANCH  21  28
ENDBRANCH   1  21
TORSDOF 6
ENDMDL
MODEL 6
REMARK VINA RESULT:     -11.0      5.043      8.602
REMARK  Name = 25243853
REMARK  6 active torsions:
REMARK  status: ('A' for Active; 'I' for Inactive)
REMARK    1  A    between atoms: N_1  and  C_6
REMARK    2  A    between atoms: N_1  and  C_21
REMARK    3  A    between atoms: C_3  and  C_16
REMARK    4  A    between atoms: C_11  and  C_18
REMARK    5  A    between atoms: C_18  and  O_19
REMARK    6  A    between atoms: C_21  and  C_28
REMARK                            x       y       z     vdW  Elec       q    Type
REMARK                         _______ _______ _______ _____ _____    ______ ____
ROOT
ATOM      1  N   UNL     1      32.973 -10.843 -24.410  0.00  0.00    -0.327 N 
ATOM      2  H   UNL     1      32.535 -10.409 -25.178  0.00  0.00    +0.147 HD
ENDROOT
BRANCH   1   6
ATOM      3  C   UNL     1      32.906 -15.036 -24.171  0.00  0.00    +0.054 C 
ATOM      4  C   UNL     1      33.261 -14.280 -23.054  0.00  0.00    +0.006 C 
ATOM      5  C   UNL     1      32.573 -14.400 -25.367  0.00  0.00    +0.006 C 
ATOM      6  C   UNL     1      32.950 -12.252 -24.329  0.00  0.00    +0.045 C 
ATOM      7  C   UNL     1      33.282 -12.887 -23.133  0.00  0.00    +0.014 C 
ATOM      8  C   UNL     1      32.596 -13.008 -25.447  0.00  0.00    +0.014 C 
BRANCH   3  16
ATOM      9  O   UNL     1      32.123 -17.077 -24.865  0.00  0.00    -0.270 OA
ATOM     10  N   UNL     1      33.715 -17.121 -23.152  0.00  0.00    -0.276 N 
ATOM     11  C   UNL     1      34.191 -18.307 -20.544  0.00  0.00    +0.102 C 
ATOM     12  C   UNL     1      33.327 -18.995 -21.605  0.00  0.00    +0.033 C 
ATOM     13  C   UNL     1      34.295 -16.797 -20.776  0.00  0.00    +0.033 C 
ATOM     14  C   UNL     1      33.702 -18.576 -23.025  0.00  0.00    +0.094 C 
ATOM     15  C   UNL     1      34.622 -16.433 -22.226  0.00  0.00    +0.094 C 
ATOM     16  C   UNL     1      32.883 -16.502 -24.088  0.00  0.00    +0.249 C 
BRANCH  11  18
ATOM     17  O   UNL     1      36.599 -18.328 -20.638  0.00  0.00    -0.250 OA
ATOM     18  C   UNL     1      35.551 -18.942 -20.489  0.00  0.00    +0.317 C 
BRANCH  18  19
ATOM     19  O   UNL     1      35.421 -20.278 -20.253  0.00  0.00    -0.444 OA
ATOM     20  C   UNL     1      35.496 -20.668 -18.878  0.00  0.00    +0.256 C 
ENDBRANCH  18  19
ENDBRANCH  11  18
ENDBRANCH   3  16
ENDBRANCH   1   6
BRANCH   1  21
ATOM     21  C   UNL     1      33.605 -10.019 -23.427  0.00  0.00    +0.145 C 
BRANCH  21  28
ATOM     22  N   UNL     1      32.858  -7.703 -23.262  0.00  0.00    -0.392 NA
ATOM     23  N   UNL     1      30.726  -8.412 -21.645  0.00  0.00    -0.200 NA
ATOM     24  N   UNL     1      30.063  -6.197 -21.524  0.00  0.00    -0.271 NA
ATOM     25  N   UNL     1      31.291  -4.478 -22.660  0.00  0.00    -0.310 NA
ATOM     26  N   UNL     1      33.206  -5.049 -23.920  0.00  0.00    -0.329 N 
ATOM     27  N   UNL     1      29.389  -3.952 -21.398  0.00  0.00    -0.283 N 
ATOM     28  C   UNL     1      32.646  -8.982 -22.913  0.00  0.00    +0.133 C 
ATOM     29  C   UNL     1      31.592  -9.331 -22.114  0.00  0.00    +0.193 C 
ATOM     30  C   UNL     1      31.991  -6.785 -22.793  0.00  0.00    +0.248 C 
ATOM     31  C   UNL     1      30.911  -7.128 -21.977  0.00  0.00    +0.131 C 
ATOM     32  C   UNL     1      32.120  -5.444 -23.095  0.00  0.00    +0.231 C 
ATOM     33  C   UNL     1      30.293  -4.921 -21.886  0.00  0.00    +0.207 C 
ATOM     34  H   UNL     1      33.327  -4.101 -24.153  0.00  0.00    +0.145 HD
ATOM     35  H   UNL     1      33.838  -5.724 -24.258  0.00  0.00    +0.145 HD
ATOM     36  H   UNL     1      28.638  -4.226 -20.824  0.00  0.00    +0.156 HD
ATOM     37  H   UNL     1      29.510  -3.003 -21.632  0.00  0.00    +0.156 HD
ENDBRANCH  21  28
ENDBRANCH   1  21
TORSDOF 6
ENDMDL
MODEL 7
REMARK VINA RESULT:     -11.0      5.018     11.388
REMARK  Name = 25243853
REMARK  6 active torsions:
REMARK  status: ('A' for Active; 'I' for Inactive)
REMARK    1  A    between atoms: N_1  and  C_6
REMARK    2  A    between atoms: N_1  and  C_21
REMARK    3  A    between atoms: C_3  and  C_16
REMARK    4  A    between atoms: C_11  and  C_18
REMARK    5  A    between atoms: C_18  and  O_19
REMARK    6  A    between atoms: C_21  and  C_28
REMARK                            x       y       z     vdW  Elec       q    Type
REMARK                         _______ _______ _______ _____ _____    ______ ____
ROOT
ATOM      1  N   UNL     1      34.142 -19.124 -22.141  0.00  0.00    -0.327 N 
ATOM      2  H   UNL     1      33.978 -19.997 -22.563  0.00  0.00    +0.147 HD
ENDROOT
BRANCH   1   6
ATOM      3  C   UNL     1      33.128 -15.645 -24.266  0.00  0.00    +0.054 C 
ATOM      4  C   UNL     1      32.490 -16.851 -24.558  0.00  0.00    +0.006 C 
ATOM      5  C   UNL     1      34.101 -15.595 -23.268  0.00  0.00    +0.006 C 
ATOM      6  C   UNL     1      33.801 -17.955 -22.854  0.00  0.00    +0.045 C 
ATOM      7  C   UNL     1      32.827 -18.006 -23.851  0.00  0.00    +0.014 C 
ATOM      8  C   UNL     1      34.438 -16.749 -22.563  0.00  0.00    +0.014 C 
BRANCH   3  16
ATOM      9  O   UNL     1      32.741 -14.533 -26.234  0.00  0.00    -0.270 OA
ATOM     10  N   UNL     1      32.503 -13.268 -24.280  0.00  0.00    -0.276 N 
ATOM     11  C   UNL     1      33.310 -10.729 -23.124  0.00  0.00    +0.102 C 
ATOM     12  C   UNL     1      33.159 -10.923 -24.636  0.00  0.00    +0.033 C 
ATOM     13  C   UNL     1      33.528 -12.056 -22.392  0.00  0.00    +0.033 C 
ATOM     14  C   UNL     1      32.170 -12.034 -24.986  0.00  0.00    +0.094 C 
ATOM     15  C   UNL     1      32.544 -13.147 -22.818  0.00  0.00    +0.094 C 
ATOM     16  C   UNL     1      32.774 -14.429 -25.009  0.00  0.00    +0.249 C 
BRANCH  11  18
ATOM     17  O   UNL     1      31.421 -10.413 -21.661  0.00  0.00    -0.250 OA
ATOM     18  C   UNL     1      32.121  -9.995 -22.573  0.00  0.00    +0.317 C 
BRANCH  18  19
ATOM     19  O   UNL     1      31.962  -8.819 -23.243  0.00  0.00    -0.444 OA
ATOM     20  C   UNL     1      32.657  -7.697 -22.689  0.00  0.00    +0.256 C 
ENDBRANCH  18  19
ENDBRANCH  11  18
ENDBRANCH   3  16
ENDBRANCH   1   6
BRANCH   1  21
ATOM     21  C   UNL     1      34.714 -19.094 -20.831  0.00  0.00    +0.145 C 
BRANCH  21  28
ATOM     22  N   UNL     1      34.565 -20.573 -18.898  0.00  0.00    -0.392 NA
ATOM     23  N   UNL     1      31.824 -20.825 -19.189  0.00  0.00    -0.200 NA
ATOM     24  N   UNL     1      31.742 -22.225 -17.347  0.00  0.00    -0.271 NA
ATOM     25  N   UNL     1      33.735 -22.792 -16.139  0.00  0.00    -0.310 NA
ATOM     26  N   UNL     1      35.814 -21.913 -16.837  0.00  0.00    -0.329 N 
ATOM     27  N   UNL     1      31.656 -23.645 -15.480  0.00  0.00    -0.283 N 
ATOM     28  C   UNL     1      33.911 -19.943 -19.885  0.00  0.00    +0.133 C 
ATOM     29  C   UNL     1      32.555 -20.067 -20.028  0.00  0.00    +0.193 C 
ATOM     30  C   UNL     1      33.832 -21.331 -18.059  0.00  0.00    +0.248 C 
ATOM     31  C   UNL     1      32.448 -21.466 -18.194  0.00  0.00    +0.131 C 
ATOM     32  C   UNL     1      34.409 -22.020 -17.011  0.00  0.00    +0.231 C 
ATOM     33  C   UNL     1      32.417 -22.849 -16.363  0.00  0.00    +0.207 C 
ATOM     34  H   UNL     1      36.257 -22.392 -16.101  0.00  0.00    +0.145 HD
ATOM     35  H   UNL     1      36.345 -21.360 -17.455  0.00  0.00    +0.145 HD
ATOM     36  H   UNL     1      30.682 -23.721 -15.601  0.00  0.00    +0.156 HD
ATOM     37  H   UNL     1      32.099 -24.124 -14.742  0.00  0.00    +0.156 HD
ENDBRANCH  21  28
ENDBRANCH   1  21
TORSDOF 6
ENDMDL
MODEL 8
REMARK VINA RESULT:     -11.0      4.000     11.372
REMARK  Name = 25243853
REMARK  6 active torsions:
REMARK  status: ('A' for Active; 'I' for Inactive)
REMARK    1  A    between atoms: N_1  and  C_6
REMARK    2  A    between atoms: N_1  and  C_21
REMARK    3  A    between atoms: C_3  and  C_16
REMARK    4  A    between atoms: C_11  and  C_18
REMARK    5  A    between atoms: C_18  and  O_19
REMARK    6  A    between atoms: C_21  and  C_28
REMARK                            x       y       z     vdW  Elec       q    Type
REMARK                         _______ _______ _______ _____ _____    ______ ____
ROOT
ATOM      1  N   UNL     1      35.489 -21.085 -18.496  0.00  0.00    -0.327 N 
ATOM      2  H   UNL     1      36.438 -21.312 -18.370  0.00  0.00    +0.147 HD
ENDROOT
BRANCH   1   6
ATOM      3  C   UNL     1      34.469 -18.328 -21.497  0.00  0.00    +0.054 C 
ATOM      4  C   UNL     1      33.527 -19.256 -21.053  0.00  0.00    +0.006 C 
ATOM      5  C   UNL     1      35.750 -18.316 -20.944  0.00  0.00    +0.006 C 
ATOM      6  C   UNL     1      35.146 -20.158 -19.504  0.00  0.00    +0.045 C 
ATOM      7  C   UNL     1      33.866 -20.171 -20.056  0.00  0.00    +0.014 C 
ATOM      8  C   UNL     1      36.088 -19.231 -19.948  0.00  0.00    +0.014 C 
BRANCH   3  16
ATOM      9  O   UNL     1      34.386 -17.694 -23.700  0.00  0.00    -0.270 OA
ATOM     10  N   UNL     1      33.500 -16.170 -22.162  0.00  0.00    -0.276 N 
ATOM     11  C   UNL     1      33.602 -13.353 -21.462  0.00  0.00    +0.102 C 
ATOM     12  C   UNL     1      33.844 -13.845 -22.893  0.00  0.00    +0.033 C 
ATOM     13  C   UNL     1      33.848 -14.453 -20.425  0.00  0.00    +0.033 C 
ATOM     14  C   UNL     1      33.153 -15.178 -23.176  0.00  0.00    +0.094 C 
ATOM     15  C   UNL     1      33.176 -15.779 -20.785  0.00  0.00    +0.094 C 
ATOM     16  C   UNL     1      34.114 -17.365 -22.546  0.00  0.00    +0.249 C 
BRANCH  11  18
ATOM     17  O   UNL     1      31.516 -12.471 -22.286  0.00  0.00    -0.250 OA
ATOM     18  C   UNL     1      32.217 -12.787 -21.334  0.00  0.00    +0.317 C 
BRANCH  18  19
ATOM     19  O   UNL     1      31.886 -12.688 -20.016  0.00  0.00    -0.444 OA
ATOM     20  C   UNL     1      30.907 -11.692 -19.702  0.00  0.00    +0.256 C 
ENDBRANCH  18  19
ENDBRANCH  11  18
ENDBRANCH   3  16
ENDBRANCH   1   6
BRANCH   1  21
ATOM     21  C   UNL     1      34.518 -21.708 -17.652  0.00  0.00    +0.145 C 
BRANCH  21  28
ATOM     22  N   UNL     1      34.414 -22.848 -15.498  0.00  0.00    -0.392 NA
ATOM     23  N   UNL     1      36.916 -21.906 -14.779  0.00  0.00    -0.200 NA
ATOM     24  N   UNL     1      36.763 -23.009 -12.749  0.00  0.00    -0.271 NA
ATOM     25  N   UNL     1      34.822 -24.302 -12.190  0.00  0.00    -0.310 NA
ATOM     26  N   UNL     1      33.037 -24.453 -13.731  0.00  0.00    -0.329 N 
ATOM     27  N   UNL     1      36.610 -24.125 -10.690  0.00  0.00    -0.283 N 
ATOM     28  C   UNL     1      35.125 -22.062 -16.323  0.00  0.00    +0.133 C 
ATOM     29  C   UNL     1      36.362 -21.598 -15.966  0.00  0.00    +0.193 C 
ATOM     30  C   UNL     1      34.971 -23.155 -14.311  0.00  0.00    +0.248 C 
ATOM     31  C   UNL     1      36.232 -22.688 -13.934  0.00  0.00    +0.131 C 
ATOM     32  C   UNL     1      34.323 -23.957 -13.391  0.00  0.00    +0.231 C 
ATOM     33  C   UNL     1      36.035 -23.798 -11.936  0.00  0.00    +0.207 C 
ATOM     34  H   UNL     1      32.547 -25.026 -13.098  0.00  0.00    +0.145 HD
ATOM     35  H   UNL     1      32.634 -24.223 -14.599  0.00  0.00    +0.145 HD
ATOM     36  H   UNL     1      37.501 -23.780 -10.453  0.00  0.00    +0.156 HD
ATOM     37  H   UNL     1      36.121 -24.699 -10.056  0.00  0.00    +0.156 HD
ENDBRANCH  21  28
ENDBRANCH   1  21
TORSDOF 6
ENDMDL
MODEL 9
REMARK VINA RESULT:     -11.0      1.086      2.011
REMARK  Name = 25243853
REMARK  6 active torsions:
REMARK  status: ('A' for Active; 'I' for Inactive)
REMARK    1  A    between atoms: N_1  and  C_6
REMARK    2  A    between atoms: N_1  and  C_21
REMARK    3  A    between atoms: C_3  and  C_16
REMARK    4  A    between atoms: C_11  and  C_18
REMARK    5  A    between atoms: C_18  and  O_19
REMARK    6  A    between atoms: C_21  and  C_28
REMARK                            x       y       z     vdW  Elec       q    Type
REMARK                         _______ _______ _______ _____ _____    ______ ____
ROOT
ATOM      1  N   UNL     1      34.129 -19.013 -21.726  0.00  0.00    -0.327 N 
ATOM      2  H   UNL     1      33.740 -19.213 -22.608  0.00  0.00    +0.147 HD
ENDROOT
BRANCH   1   6
ATOM      3  C   UNL     1      32.912 -21.316 -18.430  0.00  0.00    +0.054 C 
ATOM      4  C   UNL     1      31.968 -20.601 -19.168  0.00  0.00    +0.006 C 
ATOM      5  C   UNL     1      34.259 -21.266 -18.788  0.00  0.00    +0.006 C 
ATOM      6  C   UNL     1      33.720 -19.787 -20.619  0.00  0.00    +0.045 C 
ATOM      7  C   UNL     1      32.372 -19.837 -20.263  0.00  0.00    +0.014 C 
ATOM      8  C   UNL     1      34.663 -20.502 -19.881  0.00  0.00    +0.014 C 
BRANCH   3  16
ATOM      9  O   UNL     1      31.275 -22.287 -17.150  0.00  0.00    -0.270 OA
ATOM     10  N   UNL     1      33.474 -22.630 -16.431  0.00  0.00    -0.276 N 
ATOM     11  C   UNL     1      35.114 -22.484 -14.038  0.00  0.00    +0.102 C 
ATOM     12  C   UNL     1      33.610 -22.773 -13.978  0.00  0.00    +0.033 C 
ATOM     13  C   UNL     1      35.513 -21.775 -15.336  0.00  0.00    +0.033 C 
ATOM     14  C   UNL     1      33.088 -23.415 -15.262  0.00  0.00    +0.094 C 
ATOM     15  C   UNL     1      34.920 -22.429 -16.585  0.00  0.00    +0.094 C 
ATOM     16  C   UNL     1      32.487 -22.120 -17.278  0.00  0.00    +0.249 C 
BRANCH  11  18
ATOM     17  O   UNL     1      35.395 -24.825 -13.540  0.00  0.00    -0.250 OA
ATOM     18  C   UNL     1      35.895 -23.753 -13.852  0.00  0.00    +0.317 C 
BRANCH  18  19
ATOM     19  O   UNL     1      37.217 -23.512 -14.082  0.00  0.00    -0.444 OA
ATOM     20  C   UNL     1      38.076 -24.652 -13.980  0.00  0.00    +0.256 C 
ENDBRANCH  18  19
ENDBRANCH  11  18
ENDBRANCH   3  16
ENDBRANCH   1   6
BRANCH   1  21
ATOM     21  C   UNL     1      35.083 -17.954 -21.622  0.00  0.00    +0.145 C 
BRANCH  21  28
ATOM     22  N   UNL     1      33.985 -15.946 -22.464  0.00  0.00    -0.392 NA
ATOM     23  N   UNL     1      33.563 -14.993 -19.900  0.00  0.00    -0.200 NA
ATOM     24  N   UNL     1      32.528 -13.107 -20.756  0.00  0.00    -0.271 NA
ATOM     25  N   UNL     1      32.285 -12.799 -23.122  0.00  0.00    -0.310 NA
ATOM     26  N   UNL     1      33.114 -14.442 -24.604  0.00  0.00    -0.329 N 
ATOM     27  N   UNL     1      31.480 -11.193 -21.621  0.00  0.00    -0.283 N 
ATOM     28  C   UNL     1      34.390 -16.640 -21.390  0.00  0.00    +0.133 C 
ATOM     29  C   UNL     1      34.181 -16.168 -20.122  0.00  0.00    +0.193 C 
ATOM     30  C   UNL     1      33.366 -14.771 -22.240  0.00  0.00    +0.248 C 
ATOM     31  C   UNL     1      33.146 -14.278 -20.952  0.00  0.00    +0.131 C 
ATOM     32  C   UNL     1      32.910 -13.981 -23.277  0.00  0.00    +0.231 C 
ATOM     33  C   UNL     1      32.129 -12.426 -21.847  0.00  0.00    +0.207 C 
ATOM     34  H   UNL     1      32.802 -13.903 -25.366  0.00  0.00    +0.145 HD
ATOM     35  H   UNL     1      33.569 -15.301 -24.762  0.00  0.00    +0.145 HD
ATOM     36  H   UNL     1      31.340 -10.872 -20.700  0.00  0.00    +0.156 HD
ATOM     37  H   UNL     1      31.167 -10.654 -22.383  0.00  0.00    +0.156 HD
ENDBRANCH  21  28
ENDBRANCH   1  21
TORSDOF 6
ENDMDL
