MODEL 1
REMARK VINA RESULT:     -12.0      0.000      0.000
REMARK  Name = 447736
REMARK  4 active torsions:
REMARK  status: ('A' for Active; 'I' for Inactive)
REMARK    1  A    between atoms: N_2  and  C_13
REMARK    2  A    between atoms: C_3  and  C_20
REMARK    3  A    between atoms: C_6  and  C_17
REMARK    4  A    between atoms: C_28  and  C_32
REMARK                            x       y       z     vdW  Elec       q    Type
REMARK                         _______ _______ _______ _____ _____    ______ ____
ROOT
ATOM      1  O   UNL     1      32.923 -23.634 -17.244  0.00  0.00    -0.270 OA
ATOM      2  N   UNL     1      34.005 -22.034 -15.903  0.00  0.00    -0.280 N 
ATOM      3  C   UNL     1      33.389 -22.513 -17.067  0.00  0.00    +0.249 C 
ATOM      4  H   UNL     1      34.324 -21.102 -15.935  0.00  0.00    +0.155 HD
ENDROOT
BRANCH   2  13
ATOM      5  N   UNL     1      37.162 -25.307 -11.700  0.00  0.00    +0.388 N 
ATOM      6  C   UNL     1      37.140 -24.355 -12.828  0.00  0.00    -0.039 C 
ATOM      7  C   UNL     1      35.742 -23.872 -13.192  0.00  0.00    -0.045 C 
ATOM      8  C   UNL     1      34.674 -24.046 -12.288  0.00  0.00    -0.030 C 
ATOM      9  C   UNL     1      34.883 -24.766 -10.980  0.00  0.00    +0.003 C 
ATOM     10  C   UNL     1      36.357 -24.813 -10.584  0.00  0.00    -0.076 C 
ATOM     11  C   UNL     1      35.501 -23.178 -14.389  0.00  0.00    +0.008 C 
ATOM     12  C   UNL     1      33.391 -23.587 -12.619  0.00  0.00    -0.003 C 
ATOM     13  C   UNL     1      34.222 -22.714 -14.704  0.00  0.00    +0.050 C 
ATOM     14  C   UNL     1      33.167 -22.923 -13.824  0.00  0.00    +0.014 C 
ATOM     15  H   UNL     1      38.125 -25.430 -11.386  0.00  0.00    -0.084 HD
ATOM     16  H   UNL     1      36.772 -26.195 -12.014  0.00  0.00    -0.084 HD
BRANCH   6  17
ATOM     17  C   UNL     1      37.866 -25.040 -13.993  0.00  0.00    -0.015 C 
ATOM     18  C   UNL     1      39.348 -25.205 -13.671  0.00  0.00    -0.002 C 
ATOM     19  C   UNL     1      37.225 -26.389 -14.298  0.00  0.00    -0.002 C 
ENDBRANCH   6  17
ENDBRANCH   2  13
BRANCH   3  20
ATOM     20  C   UNL     1      33.331 -21.551 -18.198  0.00  0.00    +0.054 C 
ATOM     21  C   UNL     1      34.472 -20.104 -19.744  0.00  0.00    +0.000 C 
ATOM     22  C   UNL     1      34.510 -21.016 -18.676  0.00  0.00    +0.005 C 
ATOM     23  C   UNL     1      33.223 -19.751 -20.310  0.00  0.00    +0.000 C 
ATOM     24  C   UNL     1      32.105 -21.225 -18.730  0.00  0.00    +0.005 C 
ATOM     25  C   UNL     1      32.049 -20.321 -19.791  0.00  0.00    +0.000 C 
ATOM     26  C   UNL     1      33.186 -18.840 -21.378  0.00  0.00    +0.003 C 
ATOM     27  C   UNL     1      35.646 -19.536 -20.263  0.00  0.00    +0.000 C 
ATOM     28  C   UNL     1      34.362 -18.285 -21.881  0.00  0.00    +0.031 C 
ATOM     29  C   UNL     1      35.590 -18.632 -21.324  0.00  0.00    +0.003 C 
BRANCH  28  32
ATOM     30  N   UNL     1      34.809 -16.048 -22.861  0.00  0.00    -0.343 N 
ATOM     31  N   UNL     1      33.769 -17.707 -24.137  0.00  0.00    -0.285 NA
ATOM     32  C   UNL     1      34.307 -17.342 -22.986  0.00  0.00    +0.117 C 
ATOM     33  H   UNL     1      34.762 -15.425 -23.623  0.00  0.00    +0.144 HD
ATOM     34  H   UNL     1      35.211 -15.756 -22.012  0.00  0.00    +0.144 HD
ATOM     35  H   UNL     1      33.731 -17.070 -24.886  0.00  0.00    +0.188 HD
ENDBRANCH  28  32
ENDBRANCH   3  20
TORSDOF 4
ENDMDL
MODEL 2
REMARK VINA RESULT:     -11.4      2.693      4.768
REMARK  Name = 447736
REMARK  4 active torsions:
REMARK  status: ('A' for Active; 'I' for Inactive)
REMARK    1  A    between atoms: N_2  and  C_13
REMARK    2  A    between atoms: C_3  and  C_20
REMARK    3  A    between atoms: C_6  and  C_17
REMARK    4  A    between atoms: C_28  and  C_32
REMARK                            x       y       z     vdW  Elec       q    Type
REMARK                         _______ _______ _______ _____ _____    ______ ____
ROOT
ATOM      1  O   UNL     1      36.431 -19.168 -19.368  0.00  0.00    -0.270 OA
ATOM      2  N   UNL     1      34.437 -20.367 -19.027  0.00  0.00    -0.280 N 
ATOM      3  C   UNL     1      35.281 -19.459 -19.680  0.00  0.00    +0.249 C 
ATOM      4  H   UNL     1      33.540 -20.479 -19.416  0.00  0.00    +0.155 HD
ENDROOT
BRANCH   2  13
ATOM      5  N   UNL     1      33.191 -23.900 -14.095  0.00  0.00    +0.388 N 
ATOM      6  C   UNL     1      32.826 -23.395 -15.434  0.00  0.00    -0.039 C 
ATOM      7  C   UNL     1      33.937 -22.603 -16.111  0.00  0.00    -0.045 C 
ATOM      8  C   UNL     1      35.262 -22.693 -15.639  0.00  0.00    -0.030 C 
ATOM      9  C   UNL     1      35.590 -23.522 -14.423  0.00  0.00    +0.003 C 
ATOM     10  C   UNL     1      34.501 -24.548 -14.121  0.00  0.00    -0.076 C 
ATOM     11  C   UNL     1      33.685 -21.834 -17.259  0.00  0.00    +0.008 C 
ATOM     12  C   UNL     1      36.285 -21.975 -16.275  0.00  0.00    -0.003 C 
ATOM     13  C   UNL     1      34.713 -21.132 -17.892  0.00  0.00    +0.050 C 
ATOM     14  C   UNL     1      36.010 -21.196 -17.397  0.00  0.00    +0.014 C 
ATOM     15  H   UNL     1      32.491 -24.576 -13.791  0.00  0.00    -0.084 HD
ATOM     16  H   UNL     1      33.232 -23.112 -13.449  0.00  0.00    -0.084 HD
BRANCH   6  17
ATOM     17  C   UNL     1      31.529 -22.593 -15.260  0.00  0.00    -0.015 C 
ATOM     18  C   UNL     1      30.404 -23.222 -16.075  0.00  0.00    -0.002 C 
ATOM     19  C   UNL     1      31.150 -22.511 -13.786  0.00  0.00    -0.002 C 
ENDBRANCH   6  17
ENDBRANCH   2  13
BRANCH   3  20
ATOM     20  C   UNL     1      34.687 -18.771 -20.856  0.00  0.00    +0.054 C 
ATOM     21  C   UNL     1      34.096 -16.726 -21.976  0.00  0.00    +0.000 C 
ATOM     22  C   UNL     1      34.656 -17.392 -20.873  0.00  0.00    +0.005 C 
ATOM     23  C   UNL     1      33.573 -17.485 -23.050  0.00  0.00    +0.000 C 
ATOM     24  C   UNL     1      34.185 -19.531 -21.886  0.00  0.00    +0.005 C 
ATOM     25  C   UNL     1      33.625 -18.887 -22.989  0.00  0.00    +0.000 C 
ATOM     26  C   UNL     1      33.014 -16.819 -24.153  0.00  0.00    +0.003 C 
ATOM     27  C   UNL     1      34.045 -15.324 -22.037  0.00  0.00    +0.000 C 
ATOM     28  C   UNL     1      32.971 -15.426 -24.197  0.00  0.00    +0.031 C 
ATOM     29  C   UNL     1      33.486 -14.680 -23.140  0.00  0.00    +0.003 C 
BRANCH  28  32
ATOM     30  N   UNL     1      32.806 -13.479 -25.729  0.00  0.00    -0.343 N 
ATOM     31  N   UNL     1      31.439 -15.348 -26.046  0.00  0.00    -0.285 NA
ATOM     32  C   UNL     1      32.388 -14.752 -25.345  0.00  0.00    +0.117 C 
ATOM     33  H   UNL     1      32.397 -13.041 -26.511  0.00  0.00    +0.144 HD
ATOM     34  H   UNL     1      33.510 -13.018 -25.218  0.00  0.00    +0.144 HD
ATOM     35  H   UNL     1      31.043 -14.893 -26.824  0.00  0.00    +0.188 HD
ENDBRANCH  28  32
ENDBRANCH   3  20
TORSDOF 4
ENDMDL
MODEL 3
REMARK VINA RESULT:     -11.2      2.302     10.365
REMARK  Name = 447736
REMARK  4 active torsions:
REMARK  status: ('A' for Active; 'I' for Inactive)
REMARK    1  A    between atoms: N_2  and  C_13
REMARK    2  A    between atoms: C_3  and  C_20
REMARK    3  A    between atoms: C_6  and  C_17
REMARK    4  A    between atoms: C_28  and  C_32
REMARK                            x       y       z     vdW  Elec       q    Type
REMARK                         _______ _______ _______ _____ _____    ______ ____
ROOT
ATOM      1  O   UNL     1      31.838 -20.601 -19.830  0.00  0.00    -0.270 OA
ATOM      2  N   UNL     1      34.012 -19.715 -19.965  0.00  0.00    -0.280 N 
ATOM      3  C   UNL     1      32.991 -20.507 -19.422  0.00  0.00    +0.249 C 
ATOM      4  H   UNL     1      34.883 -19.760 -19.507  0.00  0.00    +0.155 HD
ENDROOT
BRANCH   2  13
ATOM      5  N   UNL     1      33.564 -14.343 -23.014  0.00  0.00    +0.388 N 
ATOM      6  C   UNL     1      33.945 -15.102 -21.806  0.00  0.00    -0.039 C 
ATOM      7  C   UNL     1      33.893 -16.613 -21.993  0.00  0.00    -0.045 C 
ATOM      8  C   UNL     1      33.848 -17.167 -23.289  0.00  0.00    -0.030 C 
ATOM      9  C   UNL     1      33.789 -16.276 -24.503  0.00  0.00    +0.003 C 
ATOM     10  C   UNL     1      34.258 -14.857 -24.194  0.00  0.00    -0.076 C 
ATOM     11  C   UNL     1      33.967 -17.484 -20.893  0.00  0.00    +0.008 C 
ATOM     12  C   UNL     1      33.815 -18.559 -23.457  0.00  0.00    -0.003 C 
ATOM     13  C   UNL     1      33.946 -18.868 -21.072  0.00  0.00    +0.050 C 
ATOM     14  C   UNL     1      33.863 -19.406 -22.352  0.00  0.00    +0.014 C 
ATOM     15  H   UNL     1      33.811 -13.362 -22.884  0.00  0.00    -0.084 HD
ATOM     16  H   UNL     1      32.560 -14.444 -23.159  0.00  0.00    -0.084 HD
BRANCH   6  17
ATOM     17  C   UNL     1      33.044 -14.599 -20.671  0.00  0.00    -0.015 C 
ATOM     18  C   UNL     1      33.888 -14.018 -19.542  0.00  0.00    -0.002 C 
ATOM     19  C   UNL     1      32.055 -13.566 -21.198  0.00  0.00    -0.002 C 
ENDBRANCH   6  17
ENDBRANCH   2  13
BRANCH   3  20
ATOM     20  C   UNL     1      33.364 -21.284 -18.212  0.00  0.00    +0.054 C 
ATOM     21  C   UNL     1      35.030 -21.936 -16.604  0.00  0.00    +0.000 C 
ATOM     22  C   UNL     1      34.660 -21.206 -17.747  0.00  0.00    +0.005 C 
ATOM     23  C   UNL     1      34.063 -22.739 -15.952  0.00  0.00    +0.000 C 
ATOM     24  C   UNL     1      32.406 -22.056 -17.598  0.00  0.00    +0.005 C 
ATOM     25  C   UNL     1      32.755 -22.788 -16.462  0.00  0.00    +0.000 C 
ATOM     26  C   UNL     1      34.433 -23.468 -14.811  0.00  0.00    +0.003 C 
ATOM     27  C   UNL     1      36.337 -21.886 -16.094  0.00  0.00    +0.000 C 
ATOM     28  C   UNL     1      35.736 -23.406 -14.318  0.00  0.00    +0.031 C 
ATOM     29  C   UNL     1      36.687 -22.616 -14.959  0.00  0.00    +0.003 C 
BRANCH  28  32
ATOM     30  N   UNL     1      35.239 -25.113 -12.584  0.00  0.00    -0.343 N 
ATOM     31  N   UNL     1      37.276 -23.967 -12.560  0.00  0.00    -0.285 NA
ATOM     32  C   UNL     1      36.103 -24.168 -13.135  0.00  0.00    +0.117 C 
ATOM     33  H   UNL     1      35.508 -25.618 -11.783  0.00  0.00    +0.144 HD
ATOM     34  H   UNL     1      34.360 -25.275 -12.996  0.00  0.00    +0.144 HD
ATOM     35  H   UNL     1      37.526 -24.482 -11.759  0.00  0.00    +0.188 HD
ENDBRANCH  28  32
ENDBRANCH   3  20
TORSDOF 4
ENDMDL
MODEL 4
REMARK VINA RESULT:     -11.1      7.881     15.111
REMARK  Name = 447736
REMARK  4 active torsions:
REMARK  status: ('A' for Active; 'I' for Inactive)
REMARK    1  A    between atoms: N_2  and  C_13
REMARK    2  A    between atoms: C_3  and  C_20
REMARK    3  A    between atoms: C_6  and  C_17
REMARK    4  A    between atoms: C_28  and  C_32
REMARK                            x       y       z     vdW  Elec       q    Type
REMARK                         _______ _______ _______ _____ _____    ______ ____
ROOT
ATOM      1  O   UNL     1      32.673 -12.337 -24.625  0.00  0.00    -0.270 OA
ATOM      2  N   UNL     1      33.866 -11.044 -23.065  0.00  0.00    -0.280 N 
ATOM      3  C   UNL     1      33.312 -12.222 -23.584  0.00  0.00    +0.249 C 
ATOM      4  H   UNL     1      34.350 -11.134 -22.212  0.00  0.00    +0.155 HD
ENDROOT
BRANCH   2  13
ATOM      5  N   UNL     1      31.934  -5.193 -23.690  0.00  0.00    +0.388 N 
ATOM      6  C   UNL     1      32.136  -6.393 -22.853  0.00  0.00    -0.039 C 
ATOM      7  C   UNL     1      32.962  -7.478 -23.530  0.00  0.00    -0.045 C 
ATOM      8  C   UNL     1      33.736  -7.174 -24.669  0.00  0.00    -0.030 C 
ATOM      9  C   UNL     1      33.710  -5.791 -25.268  0.00  0.00    +0.003 C 
ATOM     10  C   UNL     1      33.196  -4.749 -24.279  0.00  0.00    -0.076 C 
ATOM     11  C   UNL     1      33.035  -8.776 -22.997  0.00  0.00    +0.008 C 
ATOM     12  C   UNL     1      34.508  -8.172 -25.281  0.00  0.00    -0.003 C 
ATOM     13  C   UNL     1      33.816  -9.759 -23.608  0.00  0.00    +0.050 C 
ATOM     14  C   UNL     1      34.547  -9.460 -24.752  0.00  0.00    +0.014 C 
ATOM     15  H   UNL     1      31.553  -4.444 -23.113  0.00  0.00    -0.084 HD
ATOM     16  H   UNL     1      31.288  -5.427 -24.444  0.00  0.00    -0.084 HD
BRANCH   6  17
ATOM     17  C   UNL     1      30.741  -6.869 -22.428  0.00  0.00    -0.015 C 
ATOM     18  C   UNL     1      30.326  -6.199 -21.123  0.00  0.00    -0.002 C 
ATOM     19  C   UNL     1      29.726  -6.587 -23.529  0.00  0.00    -0.002 C 
ENDBRANCH   6  17
ENDBRANCH   2  13
BRANCH   3  20
ATOM     20  C   UNL     1      33.512 -13.438 -22.754  0.00  0.00    +0.054 C 
ATOM     21  C   UNL     1      33.947 -15.800 -22.615  0.00  0.00    +0.000 C 
ATOM     22  C   UNL     1      33.757 -14.640 -23.386  0.00  0.00    +0.005 C 
ATOM     23  C   UNL     1      33.882 -15.712 -21.204  0.00  0.00    +0.000 C 
ATOM     24  C   UNL     1      33.444 -13.326 -21.385  0.00  0.00    +0.005 C 
ATOM     25  C   UNL     1      33.629 -14.467 -20.604  0.00  0.00    +0.000 C 
ATOM     26  C   UNL     1      34.072 -16.871 -20.435  0.00  0.00    +0.003 C 
ATOM     27  C   UNL     1      34.200 -17.044 -23.215  0.00  0.00    +0.000 C 
ATOM     28  C   UNL     1      34.322 -18.099 -21.047  0.00  0.00    +0.031 C 
ATOM     29  C   UNL     1      34.386 -18.185 -22.435  0.00  0.00    +0.003 C 
BRANCH  28  32
ATOM     30  N   UNL     1      35.756 -19.594 -19.678  0.00  0.00    -0.343 N 
ATOM     31  N   UNL     1      33.503 -20.110 -20.018  0.00  0.00    -0.285 NA
ATOM     32  C   UNL     1      34.516 -19.290 -20.236  0.00  0.00    +0.117 C 
ATOM     33  H   UNL     1      35.865 -20.406 -19.131  0.00  0.00    +0.144 HD
ATOM     34  H   UNL     1      36.524 -18.997 -19.831  0.00  0.00    +0.144 HD
ATOM     35  H   UNL     1      33.632 -20.917 -19.469  0.00  0.00    +0.188 HD
ENDBRANCH  28  32
ENDBRANCH   3  20
TORSDOF 4
ENDMDL
MODEL 5
REMARK VINA RESULT:     -11.0      1.131      2.617
REMARK  Name = 447736
REMARK  4 active torsions:
REMARK  status: ('A' for Active; 'I' for Inactive)
REMARK    1  A    between atoms: N_2  and  C_13
REMARK    2  A    between atoms: C_3  and  C_20
REMARK    3  A    between atoms: C_6  and  C_17
REMARK    4  A    between atoms: C_28  and  C_32
REMARK                            x       y       z     vdW  Elec       q    Type
REMARK                         _______ _______ _______ _____ _____    ______ ____
ROOT
ATOM      1  O   UNL     1      33.438 -22.887 -17.057  0.00  0.00    -0.270 OA
ATOM      2  N   UNL     1      35.545 -21.906 -16.703  0.00  0.00    -0.280 N 
ATOM      3  C   UNL     1      34.303 -22.063 -17.333  0.00  0.00    +0.249 C 
ATOM      4  H   UNL     1      36.122 -21.190 -17.056  0.00  0.00    +0.155 HD
ENDROOT
BRANCH   2  13
ATOM      5  N   UNL     1      35.449 -25.114 -11.406  0.00  0.00    +0.388 N 
ATOM      6  C   UNL     1      34.770 -24.639 -12.627  0.00  0.00    -0.039 C 
ATOM      7  C   UNL     1      35.706 -23.968 -13.625  0.00  0.00    -0.045 C 
ATOM      8  C   UNL     1      37.101 -24.144 -13.518  0.00  0.00    -0.030 C 
ATOM      9  C   UNL     1      37.689 -24.943 -12.383  0.00  0.00    +0.003 C 
ATOM     10  C   UNL     1      36.658 -25.865 -11.739  0.00  0.00    -0.076 C 
ATOM     11  C   UNL     1      35.204 -23.231 -14.710  0.00  0.00    +0.008 C 
ATOM     12  C   UNL     1      37.959 -23.537 -14.447  0.00  0.00    -0.003 C 
ATOM     13  C   UNL     1      36.066 -22.641 -15.637  0.00  0.00    +0.050 C 
ATOM     14  C   UNL     1      37.442 -22.788 -15.502  0.00  0.00    +0.014 C 
ATOM     15  H   UNL     1      34.814 -25.718 -10.884  0.00  0.00    -0.084 HD
ATOM     16  H   UNL     1      35.714 -24.304 -10.845  0.00  0.00    -0.084 HD
BRANCH   6  17
ATOM     17  C   UNL     1      33.624 -23.730 -12.166  0.00  0.00    -0.015 C 
ATOM     18  C   UNL     1      32.285 -24.278 -12.647  0.00  0.00    -0.002 C 
ATOM     19  C   UNL     1      33.638 -23.589 -10.648  0.00  0.00    -0.002 C 
ENDBRANCH   6  17
ENDBRANCH   2  13
BRANCH   3  20
ATOM     20  C   UNL     1      34.045 -21.139 -18.468  0.00  0.00    +0.054 C 
ATOM     21  C   UNL     1      34.884 -19.593 -20.109  0.00  0.00    +0.000 C 
ATOM     22  C   UNL     1      35.111 -20.472 -19.036  0.00  0.00    +0.005 C 
ATOM     23  C   UNL     1      33.564 -19.411 -20.587  0.00  0.00    +0.000 C 
ATOM     24  C   UNL     1      32.754 -20.979 -18.913  0.00  0.00    +0.005 C 
ATOM     25  C   UNL     1      32.510 -20.111 -19.978  0.00  0.00    +0.000 C 
ATOM     26  C   UNL     1      33.337 -18.533 -21.659  0.00  0.00    +0.003 C 
ATOM     27  C   UNL     1      35.937 -18.894 -20.718  0.00  0.00    +0.000 C 
ATOM     28  C   UNL     1      34.396 -17.846 -22.253  0.00  0.00    +0.031 C 
ATOM     29  C   UNL     1      35.694 -18.026 -21.783  0.00  0.00    +0.003 C 
BRANCH  28  32
ATOM     30  N   UNL     1      34.625 -15.632 -23.353  0.00  0.00    -0.343 N 
ATOM     31  N   UNL     1      33.445 -17.354 -24.404  0.00  0.00    -0.285 NA
ATOM     32  C   UNL     1      34.145 -16.940 -23.362  0.00  0.00    +0.117 C 
ATOM     33  H   UNL     1      34.444 -15.035 -24.115  0.00  0.00    +0.144 HD
ATOM     34  H   UNL     1      35.146 -15.304 -22.585  0.00  0.00    +0.144 HD
ATOM     35  H   UNL     1      33.274 -16.742 -25.156  0.00  0.00    +0.188 HD
ENDBRANCH  28  32
ENDBRANCH   3  20
TORSDOF 4
ENDMDL
MODEL 6
REMARK VINA RESULT:     -10.8      2.803     10.533
REMARK  Name = 447736
REMARK  4 active torsions:
REMARK  status: ('A' for Active; 'I' for Inactive)
REMARK    1  A    between atoms: N_2  and  C_13
REMARK    2  A    between atoms: C_3  and  C_20
REMARK    3  A    between atoms: C_6  and  C_17
REMARK    4  A    between atoms: C_28  and  C_32
REMARK                            x       y       z     vdW  Elec       q    Type
REMARK                         _______ _______ _______ _____ _____    ______ ____
ROOT
ATOM      1  O   UNL     1      36.003 -20.769 -19.938  0.00  0.00    -0.270 OA
ATOM      2  N   UNL     1      33.965 -19.613 -19.747  0.00  0.00    -0.280 N 
ATOM      3  C   UNL     1      34.968 -20.502 -19.338  0.00  0.00    +0.249 C 
ATOM      4  H   UNL     1      33.196 -19.519 -19.139  0.00  0.00    +0.155 HD
ENDROOT
BRANCH   2  13
ATOM      5  N   UNL     1      33.587 -14.463 -23.165  0.00  0.00    +0.388 N 
ATOM      6  C   UNL     1      33.944 -15.137 -21.901  0.00  0.00    -0.039 C 
ATOM      7  C   UNL     1      33.891 -16.657 -21.985  0.00  0.00    -0.045 C 
ATOM      8  C   UNL     1      33.869 -17.299 -23.240  0.00  0.00    -0.030 C 
ATOM      9  C   UNL     1      33.835 -16.493 -24.514  0.00  0.00    +0.003 C 
ATOM     10  C   UNL     1      34.301 -15.056 -24.294  0.00  0.00    -0.076 C 
ATOM     11  C   UNL     1      33.943 -17.451 -20.827  0.00  0.00    +0.008 C 
ATOM     12  C   UNL     1      33.836 -18.699 -23.314  0.00  0.00    -0.003 C 
ATOM     13  C   UNL     1      33.921 -18.845 -20.911  0.00  0.00    +0.050 C 
ATOM     14  C   UNL     1      33.861 -19.468 -22.153  0.00  0.00    +0.014 C 
ATOM     15  H   UNL     1      33.834 -13.475 -23.098  0.00  0.00    -0.084 HD
ATOM     16  H   UNL     1      32.585 -14.571 -23.321  0.00  0.00    -0.084 HD
BRANCH   6  17
ATOM     17  C   UNL     1      33.024 -14.557 -20.820  0.00  0.00    -0.015 C 
ATOM     18  C   UNL     1      33.838 -14.124 -19.606  0.00  0.00    -0.002 C 
ATOM     19  C   UNL     1      32.220 -13.388 -21.380  0.00  0.00    -0.002 C 
ENDBRANCH   6  17
ENDBRANCH   2  13
BRANCH   3  20
ATOM     20  C   UNL     1      34.712 -21.201 -18.052  0.00  0.00    +0.054 C 
ATOM     21  C   UNL     1      33.189 -22.355 -16.591  0.00  0.00    +0.000 C 
ATOM     22  C   UNL     1      33.448 -21.693 -17.804  0.00  0.00    +0.005 C 
ATOM     23  C   UNL     1      34.233 -22.504 -15.647  0.00  0.00    +0.000 C 
ATOM     24  C   UNL     1      35.743 -21.331 -17.151  0.00  0.00    +0.005 C 
ATOM     25  C   UNL     1      35.504 -21.985 -15.942  0.00  0.00    +0.000 C 
ATOM     26  C   UNL     1      33.974 -23.165 -14.436  0.00  0.00    +0.003 C 
ATOM     27  C   UNL     1      31.918 -22.873 -16.297  0.00  0.00    +0.000 C 
ATOM     28  C   UNL     1      32.705 -23.674 -14.160  0.00  0.00    +0.031 C 
ATOM     29  C   UNL     1      31.678 -23.528 -15.089  0.00  0.00    +0.003 C 
BRANCH  28  32
ATOM     30  N   UNL     1      31.277 -25.074 -12.687  0.00  0.00    -0.343 N 
ATOM     31  N   UNL     1      33.347 -24.297 -11.930  0.00  0.00    -0.285 NA
ATOM     32  C   UNL     1      32.453 -24.355 -12.900  0.00  0.00    +0.117 C 
ATOM     33  H   UNL     1      31.128 -25.529 -11.827  0.00  0.00    +0.144 HD
ATOM     34  H   UNL     1      30.598 -25.127 -13.397  0.00  0.00    +0.144 HD
ATOM     35  H   UNL     1      33.178 -24.758 -11.076  0.00  0.00    +0.188 HD
ENDBRANCH  28  32
ENDBRANCH   3  20
TORSDOF 4
ENDMDL
MODEL 7
REMARK VINA RESULT:     -10.5      8.659     15.410
REMARK  Name = 447736
REMARK  4 active torsions:
REMARK  status: ('A' for Active; 'I' for Inactive)
REMARK    1  A    between atoms: N_2  and  C_13
REMARK    2  A    between atoms: C_3  and  C_20
REMARK    3  A    between atoms: C_6  and  C_17
REMARK    4  A    between atoms: C_28  and  C_32
REMARK                            x       y       z     vdW  Elec       q    Type
REMARK                         _______ _______ _______ _____ _____    ______ ____
ROOT
ATOM      1  O   UNL     1      33.712 -10.169 -23.997  0.00  0.00    -0.270 OA
ATOM      2  N   UNL     1      32.041 -10.376 -22.356  0.00  0.00    -0.280 N 
ATOM      3  C   UNL     1      32.990 -10.847 -23.274  0.00  0.00    +0.249 C 
ATOM      4  H   UNL     1      31.546 -11.064 -21.855  0.00  0.00    +0.155 HD
ENDROOT
BRANCH   2  13
ATOM      5  N   UNL     1      31.641  -4.266 -23.285  0.00  0.00    +0.388 N 
ATOM      6  C   UNL     1      31.736  -5.639 -23.820  0.00  0.00    -0.039 C 
ATOM      7  C   UNL     1      31.572  -6.720 -22.759  0.00  0.00    -0.045 C 
ATOM      8  C   UNL     1      31.020  -6.402 -21.502  0.00  0.00    -0.030 C 
ATOM      9  C   UNL     1      30.642  -4.982 -21.165  0.00  0.00    +0.003 C 
ATOM     10  C   UNL     1      30.474  -4.124 -22.416  0.00  0.00    -0.076 C 
ATOM     11  C   UNL     1      31.890  -8.061 -23.033  0.00  0.00    +0.008 C 
ATOM     12  C   UNL     1      30.856  -7.403 -20.532  0.00  0.00    -0.003 C 
ATOM     13  C   UNL     1      31.711  -9.052 -22.065  0.00  0.00    +0.050 C 
ATOM     14  C   UNL     1      31.201  -8.722 -20.814  0.00  0.00    +0.014 C 
ATOM     15  H   UNL     1      31.560  -3.610 -24.062  0.00  0.00    -0.084 HD
ATOM     16  H   UNL     1      32.479  -4.071 -22.738  0.00  0.00    -0.084 HD
BRANCH   6  17
ATOM     17  C   UNL     1      33.071  -5.725 -24.571  0.00  0.00    -0.015 C 
ATOM     18  C   UNL     1      33.287  -4.473 -25.414  0.00  0.00    -0.002 C 
ATOM     19  C   UNL     1      34.221  -5.921 -23.588  0.00  0.00    -0.002 C 
ENDBRANCH   6  17
ENDBRANCH   2  13
BRANCH   3  20
ATOM     20  C   UNL     1      33.093 -12.325 -23.380  0.00  0.00    +0.054 C 
ATOM     21  C   UNL     1      33.623 -14.441 -22.366  0.00  0.00    +0.000 C 
ATOM     22  C   UNL     1      33.519 -13.042 -22.281  0.00  0.00    +0.005 C 
ATOM     23  C   UNL     1      33.288 -15.088 -23.579  0.00  0.00    +0.000 C 
ATOM     24  C   UNL     1      32.762 -12.930 -24.570  0.00  0.00    +0.005 C 
ATOM     25  C   UNL     1      32.859 -14.318 -24.672  0.00  0.00    +0.000 C 
ATOM     26  C   UNL     1      33.392 -16.486 -23.663  0.00  0.00    +0.003 C 
ATOM     27  C   UNL     1      34.052 -15.210 -21.273  0.00  0.00    +0.000 C 
ATOM     28  C   UNL     1      33.819 -17.235 -22.567  0.00  0.00    +0.031 C 
ATOM     29  C   UNL     1      34.149 -16.598 -21.373  0.00  0.00    +0.003 C 
BRANCH  28  32
ATOM     30  N   UNL     1      33.815 -19.330 -23.899  0.00  0.00    -0.343 N 
ATOM     31  N   UNL     1      34.120 -19.407 -21.584  0.00  0.00    -0.285 NA
ATOM     32  C   UNL     1      33.923 -18.682 -22.670  0.00  0.00    +0.117 C 
ATOM     33  H   UNL     1      33.889 -20.311 -23.947  0.00  0.00    +0.144 HD
ATOM     34  H   UNL     1      33.665 -18.808 -24.720  0.00  0.00    +0.144 HD
ATOM     35  H   UNL     1      34.190 -20.386 -21.652  0.00  0.00    +0.188 HD
ENDBRANCH  28  32
ENDBRANCH   3  20
TORSDOF 4
ENDMDL
MODEL 8
REMARK VINA RESULT:     -10.5      8.222     15.268
REMARK  Name = 447736
REMARK  4 active torsions:
REMARK  status: ('A' for Active; 'I' for Inactive)
REMARK    1  A    between atoms: N_2  and  C_13
REMARK    2  A    between atoms: C_3  and  C_20
REMARK    3  A    between atoms: C_6  and  C_17
REMARK    4  A    between atoms: C_28  and  C_32
REMARK                            x       y       z     vdW  Elec       q    Type
REMARK                         _______ _______ _______ _____ _____    ______ ____
ROOT
ATOM      1  O   UNL     1      32.887 -11.451 -24.081  0.00  0.00    -0.270 OA
ATOM      2  N   UNL     1      32.102 -10.624 -22.025  0.00  0.00    -0.280 N 
ATOM      3  C   UNL     1      32.690 -11.568 -22.877  0.00  0.00    +0.249 C 
ATOM      4  H   UNL     1      32.021 -10.886 -21.079  0.00  0.00    +0.155 HD
ENDROOT
BRANCH   2  13
ATOM      5  N   UNL     1      31.835  -5.230 -25.056  0.00  0.00    +0.388 N 
ATOM      6  C   UNL     1      32.215  -6.655 -25.011  0.00  0.00    -0.039 C 
ATOM      7  C   UNL     1      31.670  -7.395 -23.796  0.00  0.00    -0.045 C 
ATOM      8  C   UNL     1      30.621  -6.836 -23.037  0.00  0.00    -0.030 C 
ATOM      9  C   UNL     1      30.067  -5.475 -23.377  0.00  0.00    +0.003 C 
ATOM     10  C   UNL     1      30.404  -5.062 -24.807  0.00  0.00    -0.076 C 
ATOM     11  C   UNL     1      32.138  -8.673 -23.452  0.00  0.00    +0.008 C 
ATOM     12  C   UNL     1      30.110  -7.526 -21.928  0.00  0.00    -0.003 C 
ATOM     13  C   UNL     1      31.615  -9.358 -22.353  0.00  0.00    +0.050 C 
ATOM     14  C   UNL     1      30.606  -8.782 -21.588  0.00  0.00    +0.014 C 
ATOM     15  H   UNL     1      32.059  -4.853 -25.977  0.00  0.00    -0.084 HD
ATOM     16  H   UNL     1      32.351  -4.732 -24.331  0.00  0.00    -0.084 HD
BRANCH   6  17
ATOM     17  C   UNL     1      33.745  -6.704 -25.113  0.00  0.00    -0.015 C 
ATOM     18  C   UNL     1      34.203  -6.173 -26.467  0.00  0.00    -0.002 C 
ATOM     19  C   UNL     1      34.378  -5.909 -23.976  0.00  0.00    -0.002 C 
ENDBRANCH   6  17
ENDBRANCH   2  13
BRANCH   3  20
ATOM     20  C   UNL     1      33.084 -12.848 -22.231  0.00  0.00    +0.054 C 
ATOM     21  C   UNL     1      33.818 -15.129 -22.437  0.00  0.00    +0.000 C 
ATOM     22  C   UNL     1      33.444 -13.912 -23.032  0.00  0.00    +0.005 C 
ATOM     23  C   UNL     1      33.818 -15.239 -21.026  0.00  0.00    +0.000 C 
ATOM     24  C   UNL     1      33.076 -12.929 -20.858  0.00  0.00    +0.005 C 
ATOM     25  C   UNL     1      33.445 -14.129 -20.251  0.00  0.00    +0.000 C 
ATOM     26  C   UNL     1      34.192 -16.455 -20.432  0.00  0.00    +0.003 C 
ATOM     27  C   UNL     1      34.192 -16.238 -23.212  0.00  0.00    +0.000 C 
ATOM     28  C   UNL     1      34.561 -17.547 -21.218  0.00  0.00    +0.031 C 
ATOM     29  C   UNL     1      34.561 -17.439 -22.606  0.00  0.00    +0.003 C 
BRANCH  28  32
ATOM     30  N   UNL     1      34.056 -19.870 -20.499  0.00  0.00    -0.343 N 
ATOM     31  N   UNL     1      36.158 -18.938 -20.081  0.00  0.00    -0.285 NA
ATOM     32  C   UNL     1      34.945 -18.800 -20.587  0.00  0.00    +0.117 C 
ATOM     33  H   UNL     1      34.337 -20.710 -20.069  0.00  0.00    +0.144 HD
ATOM     34  H   UNL     1      33.147 -19.786 -20.869  0.00  0.00    +0.144 HD
ATOM     35  H   UNL     1      36.419 -19.786 -19.654  0.00  0.00    +0.188 HD
ENDBRANCH  28  32
ENDBRANCH   3  20
TORSDOF 4
ENDMDL
MODEL 9
REMARK VINA RESULT:     -10.2      9.263     15.975
REMARK  Name = 447736
REMARK  4 active torsions:
REMARK  status: ('A' for Active; 'I' for Inactive)
REMARK    1  A    between atoms: N_2  and  C_13
REMARK    2  A    between atoms: C_3  and  C_20
REMARK    3  A    between atoms: C_6  and  C_17
REMARK    4  A    between atoms: C_28  and  C_32
REMARK                            x       y       z     vdW  Elec       q    Type
REMARK                         _______ _______ _______ _____ _____    ______ ____
ROOT
ATOM      1  O   UNL     1      29.557 -10.403 -20.667  0.00  0.00    -0.270 OA
ATOM      2  N   UNL     1      31.528  -9.408 -21.472  0.00  0.00    -0.280 N 
ATOM      3  C   UNL     1      30.737 -10.461 -20.994  0.00  0.00    +0.249 C 
ATOM      4  H   UNL     1      32.463  -9.633 -21.688  0.00  0.00    +0.155 HD
ENDROOT
BRANCH   2  13
ATOM      5  N   UNL     1      30.708  -4.145 -24.632  0.00  0.00    +0.388 N 
ATOM      6  C   UNL     1      30.827  -5.617 -24.604  0.00  0.00    -0.039 C 
ATOM      7  C   UNL     1      30.824  -6.203 -23.198  0.00  0.00    -0.045 C 
ATOM      8  C   UNL     1      30.377  -5.428 -22.108  0.00  0.00    -0.030 C 
ATOM      9  C   UNL     1      29.956  -3.994 -22.305  0.00  0.00    +0.003 C 
ATOM     10  C   UNL     1      29.623  -3.692 -23.764  0.00  0.00    -0.076 C 
ATOM     11  C   UNL     1      31.187  -7.540 -22.967  0.00  0.00    +0.008 C 
ATOM     12  C   UNL     1      30.361  -5.975 -20.817  0.00  0.00    -0.003 C 
ATOM     13  C   UNL     1      31.156  -8.079 -21.679  0.00  0.00    +0.050 C 
ATOM     14  C   UNL     1      30.750  -7.296 -20.604  0.00  0.00    +0.014 C 
ATOM     15  H   UNL     1      30.517  -3.844 -25.588  0.00  0.00    -0.084 HD
ATOM     16  H   UNL     1      31.582  -3.741 -24.297  0.00  0.00    -0.084 HD
BRANCH   6  17
ATOM     17  C   UNL     1      32.087  -5.969 -25.405  0.00  0.00    -0.015 C 
ATOM     18  C   UNL     1      31.850  -5.742 -26.894  0.00  0.00    -0.002 C 
ATOM     19  C   UNL     1      33.274  -5.149 -24.913  0.00  0.00    -0.002 C 
ENDBRANCH   6  17
ENDBRANCH   2  13
BRANCH   3  20
ATOM     20  C   UNL     1      31.433 -11.766 -20.854  0.00  0.00    +0.054 C 
ATOM     21  C   UNL     1      32.833 -13.477 -21.803  0.00  0.00    +0.000 C 
ATOM     22  C   UNL     1      32.169 -12.244 -21.919  0.00  0.00    +0.005 C 
ATOM     23  C   UNL     1      32.732 -14.207 -20.594  0.00  0.00    +0.000 C 
ATOM     24  C   UNL     1      31.319 -12.456 -19.670  0.00  0.00    +0.005 C 
ATOM     25  C   UNL     1      31.971 -13.682 -19.537  0.00  0.00    +0.000 C 
ATOM     26  C   UNL     1      33.395 -15.439 -20.479  0.00  0.00    +0.003 C 
ATOM     27  C   UNL     1      33.594 -14.001 -22.860  0.00  0.00    +0.000 C 
ATOM     28  C   UNL     1      34.147 -15.945 -21.539  0.00  0.00    +0.031 C 
ATOM     29  C   UNL     1      34.246 -15.227 -22.728  0.00  0.00    +0.003 C 
BRANCH  28  32
ATOM     30  N   UNL     1      35.017 -17.815 -20.157  0.00  0.00    -0.343 N 
ATOM     31  N   UNL     1      35.281 -17.844 -22.478  0.00  0.00    -0.285 NA
ATOM     32  C   UNL     1      34.827 -17.223 -21.404  0.00  0.00    +0.117 C 
ATOM     33  H   UNL     1      35.479 -18.682 -20.088  0.00  0.00    +0.144 HD
ATOM     34  H   UNL     1      34.688 -17.367 -19.344  0.00  0.00    +0.144 HD
ATOM     35  H   UNL     1      35.741 -18.710 -22.389  0.00  0.00    +0.188 HD
ENDBRANCH  28  32
ENDBRANCH   3  20
TORSDOF 4
ENDMDL
