MODEL 1
REMARK VINA RESULT:     -12.5      0.000      0.000
REMARK  Name = 24882195
REMARK  2 active torsions:
REMARK  status: ('A' for Active; 'I' for Inactive)
REMARK    1  A    between atoms: C_5  and  N_15
REMARK    2  A    between atoms: N_15  and  C_21
REMARK                            x       y       z     vdW  Elec       q    Type
REMARK                         _______ _______ _______ _____ _____    ______ ____
ROOT
ATOM      1  C   UNL     1      34.060 -21.768 -17.446  0.00  0.00    +0.001 C 
ATOM      2  C   UNL     1      32.748 -21.592 -17.935  0.00  0.00    +0.000 C 
ATOM      3  C   UNL     1      34.923 -20.351 -19.249  0.00  0.00    +0.000 C 
ATOM      4  C   UNL     1      33.610 -20.174 -19.739  0.00  0.00    +0.000 C 
ATOM      5  C   UNL     1      33.194 -23.174 -15.659  0.00  0.00    +0.049 C 
ATOM      6  C   UNL     1      35.131 -21.145 -18.109  0.00  0.00    +0.000 C 
ATOM      7  C   UNL     1      34.267 -22.563 -16.307  0.00  0.00    +0.015 C 
ATOM      8  C   UNL     1      32.539 -20.797 -19.076  0.00  0.00    +0.000 C 
ATOM      9  C   UNL     1      31.678 -22.214 -17.272  0.00  0.00    +0.001 C 
ATOM     10  C   UNL     1      31.900 -23.001 -16.140  0.00  0.00    +0.015 C 
ATOM     11  C   UNL     1      35.992 -19.729 -19.913  0.00  0.00    +0.000 C 
ATOM     12  C   UNL     1      33.403 -19.380 -20.878  0.00  0.00    +0.000 C 
ATOM     13  C   UNL     1      35.770 -18.943 -21.044  0.00  0.00    +0.000 C 
ATOM     14  C   UNL     1      34.477 -18.768 -21.526  0.00  0.00    +0.000 C 
ENDROOT
BRANCH   5  15
ATOM     15  N   UNL     1      33.420 -23.969 -14.515  0.00  0.00    -0.299 N 
ATOM     16  H   UNL     1      32.659 -24.520 -14.221  0.00  0.00    +0.153 HD
BRANCH  15  21
ATOM     17  N   UNL     1      35.376 -25.173 -14.004  0.00  0.00    -0.106 N 
ATOM     18  N   UNL     1      36.954 -24.497 -12.320  0.00  0.00    -0.340 NA
ATOM     19  N   UNL     1      35.225 -26.185 -14.898  0.00  0.00    -0.139 NA
ATOM     20  N   UNL     1      37.145 -26.476 -13.709  0.00  0.00    -0.145 NA
ATOM     21  C   UNL     1      34.541 -24.073 -13.769  0.00  0.00    +0.138 C 
ATOM     22  C   UNL     1      34.901 -23.192 -12.823  0.00  0.00    +0.061 C 
ATOM     23  C   UNL     1      36.560 -25.373 -13.288  0.00  0.00    +0.174 C 
ATOM     24  C   UNL     1      36.179 -23.476 -12.102  0.00  0.00    +0.125 C 
ATOM     25  C   UNL     1      36.594 -22.495 -11.036  0.00  0.00    +0.068 C 
ATOM     26  C   UNL     1      36.305 -26.925 -14.676  0.00  0.00    +0.230 C 
ENDBRANCH  15  21
ENDBRANCH   5  15
TORSDOF 2
ENDMDL
MODEL 2
REMARK VINA RESULT:     -12.3      1.248      2.180
REMARK  Name = 24882195
REMARK  2 active torsions:
REMARK  status: ('A' for Active; 'I' for Inactive)
REMARK    1  A    between atoms: C_5  and  N_15
REMARK    2  A    between atoms: N_15  and  C_21
REMARK                            x       y       z     vdW  Elec       q    Type
REMARK                         _______ _______ _______ _____ _____    ______ ____
ROOT
ATOM      1  C   UNL     1      34.185 -21.997 -17.065  0.00  0.00    +0.001 C 
ATOM      2  C   UNL     1      32.830 -21.951 -17.462  0.00  0.00    +0.000 C 
ATOM      3  C   UNL     1      34.788 -20.558 -18.953  0.00  0.00    +0.000 C 
ATOM      4  C   UNL     1      33.433 -20.511 -19.351  0.00  0.00    +0.000 C 
ATOM      5  C   UNL     1      33.576 -23.427 -15.192  0.00  0.00    +0.049 C 
ATOM      6  C   UNL     1      35.145 -21.301 -17.816  0.00  0.00    +0.000 C 
ATOM      7  C   UNL     1      34.541 -22.741 -15.928  0.00  0.00    +0.015 C 
ATOM      8  C   UNL     1      32.472 -21.209 -18.600  0.00  0.00    +0.000 C 
ATOM      9  C   UNL     1      31.870 -22.648 -16.710  0.00  0.00    +0.001 C 
ATOM     10  C   UNL     1      32.241 -23.381 -15.582  0.00  0.00    +0.015 C 
ATOM     11  C   UNL     1      35.748 -19.861 -19.705  0.00  0.00    +0.000 C 
ATOM     12  C   UNL     1      33.076 -19.769 -20.488  0.00  0.00    +0.000 C 
ATOM     13  C   UNL     1      35.377 -19.128 -20.833  0.00  0.00    +0.000 C 
ATOM     14  C   UNL     1      34.043 -19.082 -21.223  0.00  0.00    +0.000 C 
ENDROOT
BRANCH   5  15
ATOM     15  N   UNL     1      33.951 -24.168 -14.052  0.00  0.00    -0.299 N 
ATOM     16  H   UNL     1      33.227 -24.664 -13.606  0.00  0.00    +0.153 HD
BRANCH  15  21
ATOM     17  N   UNL     1      35.266 -24.129 -12.100  0.00  0.00    -0.106 N 
ATOM     18  N   UNL     1      37.643 -24.494 -12.089  0.00  0.00    -0.340 NA
ATOM     19  N   UNL     1      34.280 -23.866 -11.203  0.00  0.00    -0.139 NA
ATOM     20  N   UNL     1      36.282 -24.042 -10.132  0.00  0.00    -0.145 NA
ATOM     21  C   UNL     1      35.174 -24.287 -13.489  0.00  0.00    +0.138 C 
ATOM     22  C   UNL     1      36.297 -24.545 -14.176  0.00  0.00    +0.061 C 
ATOM     23  C   UNL     1      36.484 -24.233 -11.421  0.00  0.00    +0.174 C 
ATOM     24  C   UNL     1      37.557 -24.641 -13.377  0.00  0.00    +0.125 C 
ATOM     25  C   UNL     1      38.826 -24.930 -14.137  0.00  0.00    +0.068 C 
ATOM     26  C   UNL     1      34.945 -23.827 -10.053  0.00  0.00    +0.230 C 
ENDBRANCH  15  21
ENDBRANCH   5  15
TORSDOF 2
ENDMDL
MODEL 3
REMARK VINA RESULT:     -11.9      6.009     10.330
REMARK  Name = 24882195
REMARK  2 active torsions:
REMARK  status: ('A' for Active; 'I' for Inactive)
REMARK    1  A    between atoms: C_5  and  N_15
REMARK    2  A    between atoms: N_15  and  C_21
REMARK                            x       y       z     vdW  Elec       q    Type
REMARK                         _______ _______ _______ _____ _____    ______ ____
ROOT
ATOM      1  C   UNL     1      33.873 -19.494 -20.478  0.00  0.00    +0.001 C 
ATOM      2  C   UNL     1      35.174 -19.666 -19.959  0.00  0.00    +0.000 C 
ATOM      3  C   UNL     1      32.992 -21.020 -18.776  0.00  0.00    +0.000 C 
ATOM      4  C   UNL     1      34.294 -21.193 -18.256  0.00  0.00    +0.000 C 
ATOM      5  C   UNL     1      34.757 -17.979 -22.165  0.00  0.00    +0.049 C 
ATOM      6  C   UNL     1      32.799 -20.174 -19.880  0.00  0.00    +0.000 C 
ATOM      7  C   UNL     1      33.680 -18.647 -21.582  0.00  0.00    +0.015 C 
ATOM      8  C   UNL     1      35.369 -20.513 -18.854  0.00  0.00    +0.000 C 
ATOM      9  C   UNL     1      36.248 -18.986 -20.557  0.00  0.00    +0.001 C 
ATOM     10  C   UNL     1      36.040 -18.148 -21.653  0.00  0.00    +0.015 C 
ATOM     11  C   UNL     1      31.919 -21.701 -18.177  0.00  0.00    +0.000 C 
ATOM     12  C   UNL     1      34.487 -22.040 -17.152  0.00  0.00    +0.000 C 
ATOM     13  C   UNL     1      32.127 -22.539 -17.082  0.00  0.00    +0.000 C 
ATOM     14  C   UNL     1      33.410 -22.708 -16.570  0.00  0.00    +0.000 C 
ENDROOT
BRANCH   5  15
ATOM     15  N   UNL     1      34.545 -17.131 -23.273  0.00  0.00    -0.299 N 
ATOM     16  H   UNL     1      34.964 -17.419 -24.116  0.00  0.00    +0.153 HD
BRANCH  15  21
ATOM     17  N   UNL     1      33.638 -15.285 -22.129  0.00  0.00    -0.106 N 
ATOM     18  N   UNL     1      32.403 -13.527 -23.208  0.00  0.00    -0.340 NA
ATOM     19  N   UNL     1      34.048 -15.609 -20.875  0.00  0.00    -0.139 NA
ATOM     20  N   UNL     1      32.885 -13.652 -20.834  0.00  0.00    -0.145 NA
ATOM     21  C   UNL     1      33.846 -15.977 -23.330  0.00  0.00    +0.138 C 
ATOM     22  C   UNL     1      33.342 -15.457 -24.459  0.00  0.00    +0.061 C 
ATOM     23  C   UNL     1      32.929 -14.081 -22.080  0.00  0.00    +0.174 C 
ATOM     24  C   UNL     1      32.596 -14.169 -24.322  0.00  0.00    +0.125 C 
ATOM     25  C   UNL     1      32.023 -13.574 -25.583  0.00  0.00    +0.068 C 
ATOM     26  C   UNL     1      33.571 -14.602 -20.151  0.00  0.00    +0.230 C 
ENDBRANCH  15  21
ENDBRANCH   5  15
TORSDOF 2
ENDMDL
MODEL 4
REMARK VINA RESULT:     -11.7      2.304      4.259
REMARK  Name = 24882195
REMARK  2 active torsions:
REMARK  status: ('A' for Active; 'I' for Inactive)
REMARK    1  A    between atoms: C_5  and  N_15
REMARK    2  A    between atoms: N_15  and  C_21
REMARK                            x       y       z     vdW  Elec       q    Type
REMARK                         _______ _______ _______ _____ _____    ______ ____
ROOT
ATOM      1  C   UNL     1      33.460 -20.913 -19.147  0.00  0.00    +0.001 C 
ATOM      2  C   UNL     1      34.796 -20.711 -18.737  0.00  0.00    +0.000 C 
ATOM      3  C   UNL     1      33.768 -19.287 -20.954  0.00  0.00    +0.000 C 
ATOM      4  C   UNL     1      35.105 -19.085 -20.544  0.00  0.00    +0.000 C 
ATOM      5  C   UNL     1      33.163 -22.527 -17.349  0.00  0.00    +0.049 C 
ATOM      6  C   UNL     1      32.964 -20.198 -20.250  0.00  0.00    +0.000 C 
ATOM      7  C   UNL     1      32.656 -21.824 -18.442  0.00  0.00    +0.015 C 
ATOM      8  C   UNL     1      35.601 -19.800 -19.441  0.00  0.00    +0.000 C 
ATOM      9  C   UNL     1      35.292 -21.426 -17.635  0.00  0.00    +0.001 C 
ATOM     10  C   UNL     1      34.480 -22.328 -16.945  0.00  0.00    +0.015 C 
ATOM     11  C   UNL     1      33.273 -18.571 -22.056  0.00  0.00    +0.000 C 
ATOM     12  C   UNL     1      35.909 -18.174 -21.248  0.00  0.00    +0.000 C 
ATOM     13  C   UNL     1      34.085 -17.670 -22.745  0.00  0.00    +0.000 C 
ATOM     14  C   UNL     1      35.401 -17.472 -22.341  0.00  0.00    +0.000 C 
ENDROOT
BRANCH   5  15
ATOM     15  N   UNL     1      32.341 -23.438 -16.653  0.00  0.00    -0.299 N 
ATOM     16  H   UNL     1      32.352 -24.364 -16.987  0.00  0.00    +0.153 HD
BRANCH  15  21
ATOM     17  N   UNL     1      32.073 -23.443 -14.315  0.00  0.00    -0.106 N 
ATOM     18  N   UNL     1      30.040 -22.794 -13.207  0.00  0.00    -0.340 NA
ATOM     19  N   UNL     1      33.314 -23.881 -13.975  0.00  0.00    -0.139 NA
ATOM     20  N   UNL     1      32.068 -23.533 -12.100  0.00  0.00    -0.145 NA
ATOM     21  C   UNL     1      31.541 -23.209 -15.589  0.00  0.00    +0.138 C 
ATOM     22  C   UNL     1      30.275 -22.772 -15.680  0.00  0.00    +0.061 C 
ATOM     23  C   UNL     1      31.328 -23.236 -13.150  0.00  0.00    +0.174 C 
ATOM     24  C   UNL     1      29.547 -22.576 -14.390  0.00  0.00    +0.125 C 
ATOM     25  C   UNL     1      28.123 -22.087 -14.477  0.00  0.00    +0.068 C 
ATOM     26  C   UNL     1      33.250 -23.914 -12.648  0.00  0.00    +0.230 C 
ENDBRANCH  15  21
ENDBRANCH   5  15
TORSDOF 2
ENDMDL
MODEL 5
REMARK VINA RESULT:     -11.7      6.542     10.563
REMARK  Name = 24882195
REMARK  2 active torsions:
REMARK  status: ('A' for Active; 'I' for Inactive)
REMARK    1  A    between atoms: C_5  and  N_15
REMARK    2  A    between atoms: N_15  and  C_21
REMARK                            x       y       z     vdW  Elec       q    Type
REMARK                         _______ _______ _______ _____ _____    ______ ____
ROOT
ATOM      1  C   UNL     1      33.796 -19.349 -20.252  0.00  0.00    +0.001 C 
ATOM      2  C   UNL     1      35.126 -19.655 -19.888  0.00  0.00    +0.000 C 
ATOM      3  C   UNL     1      32.975 -21.021 -18.662  0.00  0.00    +0.000 C 
ATOM      4  C   UNL     1      34.305 -21.328 -18.297  0.00  0.00    +0.000 C 
ATOM      5  C   UNL     1      34.622 -17.690 -21.830  0.00  0.00    +0.049 C 
ATOM      6  C   UNL     1      32.739 -20.037 -19.634  0.00  0.00    +0.000 C 
ATOM      7  C   UNL     1      33.561 -18.364 -21.225  0.00  0.00    +0.015 C 
ATOM      8  C   UNL     1      35.363 -20.641 -18.915  0.00  0.00    +0.000 C 
ATOM      9  C   UNL     1      36.183 -18.967 -20.505  0.00  0.00    +0.001 C 
ATOM     10  C   UNL     1      35.932 -17.991 -21.471  0.00  0.00    +0.015 C 
ATOM     11  C   UNL     1      31.918 -21.710 -18.044  0.00  0.00    +0.000 C 
ATOM     12  C   UNL     1      34.541 -22.313 -17.324  0.00  0.00    +0.000 C 
ATOM     13  C   UNL     1      32.169 -22.686 -17.079  0.00  0.00    +0.000 C 
ATOM     14  C   UNL     1      33.479 -22.987 -16.720  0.00  0.00    +0.000 C 
ENDROOT
BRANCH   5  15
ATOM     15  N   UNL     1      34.367 -16.703 -22.805  0.00  0.00    -0.299 N 
ATOM     16  H   UNL     1      34.713 -16.894 -23.707  0.00  0.00    +0.153 HD
BRANCH  15  21
ATOM     17  N   UNL     1      33.211 -14.925 -23.825  0.00  0.00    -0.106 N 
ATOM     18  N   UNL     1      32.301 -13.058 -22.613  0.00  0.00    -0.340 NA
ATOM     19  N   UNL     1      33.284 -15.355 -25.113  0.00  0.00    -0.139 NA
ATOM     20  N   UNL     1      32.162 -13.376 -25.014  0.00  0.00    -0.145 NA
ATOM     21  C   UNL     1      33.712 -15.529 -22.666  0.00  0.00    +0.138 C 
ATOM     22  C   UNL     1      33.515 -14.912 -21.491  0.00  0.00    +0.061 C 
ATOM     23  C   UNL     1      32.517 -13.711 -23.790  0.00  0.00    +0.174 C 
ATOM     24  C   UNL     1      32.767 -13.619 -21.537  0.00  0.00    +0.125 C 
ATOM     25  C   UNL     1      32.540 -12.914 -20.224  0.00  0.00    +0.068 C 
ATOM     26  C   UNL     1      32.644 -14.394 -25.771  0.00  0.00    +0.230 C 
ENDBRANCH  15  21
ENDBRANCH   5  15
TORSDOF 2
ENDMDL
MODEL 6
REMARK VINA RESULT:     -11.6      2.603      3.896
REMARK  Name = 24882195
REMARK  2 active torsions:
REMARK  status: ('A' for Active; 'I' for Inactive)
REMARK    1  A    between atoms: C_5  and  N_15
REMARK    2  A    between atoms: N_15  and  C_21
REMARK                            x       y       z     vdW  Elec       q    Type
REMARK                         _______ _______ _______ _____ _____    ______ ____
ROOT
ATOM      1  C   UNL     1      33.295 -20.937 -18.879  0.00  0.00    +0.001 C 
ATOM      2  C   UNL     1      34.657 -20.926 -18.506  0.00  0.00    +0.000 C 
ATOM      3  C   UNL     1      33.794 -19.431 -20.746  0.00  0.00    +0.000 C 
ATOM      4  C   UNL     1      35.157 -19.420 -20.374  0.00  0.00    +0.000 C 
ATOM      5  C   UNL     1      32.810 -22.432 -17.022  0.00  0.00    +0.049 C 
ATOM      6  C   UNL     1      32.882 -20.189 -19.994  0.00  0.00    +0.000 C 
ATOM      7  C   UNL     1      32.384 -21.695 -18.126  0.00  0.00    +0.015 C 
ATOM      8  C   UNL     1      35.571 -20.168 -19.258  0.00  0.00    +0.000 C 
ATOM      9  C   UNL     1      35.071 -21.674 -17.392  0.00  0.00    +0.001 C 
ATOM     10  C   UNL     1      34.152 -22.422 -16.654  0.00  0.00    +0.015 C 
ATOM     11  C   UNL     1      33.382 -18.683 -21.861  0.00  0.00    +0.000 C 
ATOM     12  C   UNL     1      36.069 -18.662 -21.126  0.00  0.00    +0.000 C 
ATOM     13  C   UNL     1      34.300 -17.935 -22.598  0.00  0.00    +0.000 C 
ATOM     14  C   UNL     1      35.642 -17.925 -22.231  0.00  0.00    +0.000 C 
ENDROOT
BRANCH   5  15
ATOM     15  N   UNL     1      31.880 -23.189 -16.277  0.00  0.00    -0.299 N 
ATOM     16  H   UNL     1      31.097 -23.515 -16.776  0.00  0.00    +0.153 HD
BRANCH  15  21
ATOM     17  N   UNL     1      30.733 -23.966 -14.375  0.00  0.00    -0.106 N 
ATOM     18  N   UNL     1      31.773 -24.282 -12.230  0.00  0.00    -0.340 NA
ATOM     19  N   UNL     1      29.503 -24.115 -14.933  0.00  0.00    -0.139 NA
ATOM     20  N   UNL     1      29.439 -24.710 -12.736  0.00  0.00    -0.145 NA
ATOM     21  C   UNL     1      31.922 -23.524 -14.969  0.00  0.00    +0.138 C 
ATOM     22  C   UNL     1      33.026 -23.458 -14.210  0.00  0.00    +0.061 C 
ATOM     23  C   UNL     1      30.669 -24.338 -13.028  0.00  0.00    +0.174 C 
ATOM     24  C   UNL     1      32.876 -23.872 -12.782  0.00  0.00    +0.125 C 
ATOM     25  C   UNL     1      34.109 -23.802 -11.917  0.00  0.00    +0.068 C 
ATOM     26  C   UNL     1      28.779 -24.560 -13.912  0.00  0.00    +0.230 C 
ENDBRANCH  15  21
ENDBRANCH   5  15
TORSDOF 2
ENDMDL
MODEL 7
REMARK VINA RESULT:     -11.6      1.783      2.725
REMARK  Name = 24882195
REMARK  2 active torsions:
REMARK  status: ('A' for Active; 'I' for Inactive)
REMARK    1  A    between atoms: C_5  and  N_15
REMARK    2  A    between atoms: N_15  and  C_21
REMARK                            x       y       z     vdW  Elec       q    Type
REMARK                         _______ _______ _______ _____ _____    ______ ____
ROOT
ATOM      1  C   UNL     1      34.830 -20.924 -18.375  0.00  0.00    +0.001 C 
ATOM      2  C   UNL     1      33.476 -21.074 -18.746  0.00  0.00    +0.000 C 
ATOM      3  C   UNL     1      35.186 -19.425 -20.280  0.00  0.00    +0.000 C 
ATOM      4  C   UNL     1      33.832 -19.575 -20.652  0.00  0.00    +0.000 C 
ATOM      5  C   UNL     1      34.468 -22.414 -16.486  0.00  0.00    +0.049 C 
ATOM      6  C   UNL     1      35.667 -20.102 -19.148  0.00  0.00    +0.000 C 
ATOM      7  C   UNL     1      35.311 -21.601 -17.243  0.00  0.00    +0.015 C 
ATOM      8  C   UNL     1      32.994 -20.398 -19.879  0.00  0.00    +0.000 C 
ATOM      9  C   UNL     1      32.639 -21.897 -17.974  0.00  0.00    +0.001 C 
ATOM     10  C   UNL     1      33.133 -22.562 -16.850  0.00  0.00    +0.015 C 
ATOM     11  C   UNL     1      36.022 -18.603 -21.054  0.00  0.00    +0.000 C 
ATOM     12  C   UNL     1      33.350 -18.899 -21.784  0.00  0.00    +0.000 C 
ATOM     13  C   UNL     1      35.529 -17.938 -22.176  0.00  0.00    +0.000 C 
ATOM     14  C   UNL     1      34.195 -18.085 -22.541  0.00  0.00    +0.000 C 
ENDROOT
BRANCH   5  15
ATOM     15  N   UNL     1      34.967 -23.087 -15.350  0.00  0.00    -0.299 N 
ATOM     16  H   UNL     1      35.907 -23.374 -15.403  0.00  0.00    +0.153 HD
BRANCH  15  21
ATOM     17  N   UNL     1      35.028 -23.216 -13.002  0.00  0.00    -0.106 N 
ATOM     18  N   UNL     1      33.177 -23.964 -11.661  0.00  0.00    -0.340 NA
ATOM     19  N   UNL     1      36.298 -22.773 -12.812  0.00  0.00    -0.139 NA
ATOM     20  N   UNL     1      35.331 -23.248 -10.806  0.00  0.00    -0.145 NA
ATOM     21  C   UNL     1      34.326 -23.390 -14.201  0.00  0.00    +0.138 C 
ATOM     22  C   UNL     1      33.065 -23.846 -14.140  0.00  0.00    +0.061 C 
ATOM     23  C   UNL     1      34.455 -23.500 -11.758  0.00  0.00    +0.174 C 
ATOM     24  C   UNL     1      32.526 -24.126 -12.774  0.00  0.00    +0.125 C 
ATOM     25  C   UNL     1      31.111 -24.639 -12.691  0.00  0.00    +0.068 C 
ATOM     26  C   UNL     1      36.420 -22.813 -11.489  0.00  0.00    +0.230 C 
ENDBRANCH  15  21
ENDBRANCH   5  15
TORSDOF 2
ENDMDL
MODEL 8
REMARK VINA RESULT:     -11.4      1.077      2.022
REMARK  Name = 24882195
REMARK  2 active torsions:
REMARK  status: ('A' for Active; 'I' for Inactive)
REMARK    1  A    between atoms: C_5  and  N_15
REMARK    2  A    between atoms: N_15  and  C_21
REMARK                            x       y       z     vdW  Elec       q    Type
REMARK                         _______ _______ _______ _____ _____    ______ ____
ROOT
ATOM      1  C   UNL     1      34.026 -21.531 -17.684  0.00  0.00    +0.001 C 
ATOM      2  C   UNL     1      35.386 -21.158 -17.628  0.00  0.00    +0.000 C 
ATOM      3  C   UNL     1      33.762 -20.258 -19.760  0.00  0.00    +0.000 C 
ATOM      4  C   UNL     1      35.123 -19.885 -19.705  0.00  0.00    +0.000 C 
ATOM      5  C   UNL     1      34.297 -22.793 -15.620  0.00  0.00    +0.049 C 
ATOM      6  C   UNL     1      33.231 -21.075 -18.749  0.00  0.00    +0.000 C 
ATOM      7  C   UNL     1      33.496 -22.348 -16.672  0.00  0.00    +0.015 C 
ATOM      8  C   UNL     1      35.918 -20.340 -18.640  0.00  0.00    +0.000 C 
ATOM      9  C   UNL     1      36.181 -21.614 -16.563  0.00  0.00    +0.001 C 
ATOM     10  C   UNL     1      35.639 -22.426 -15.565  0.00  0.00    +0.015 C 
ATOM     11  C   UNL     1      32.968 -19.801 -20.825  0.00  0.00    +0.000 C 
ATOM     12  C   UNL     1      35.654 -19.067 -20.717  0.00  0.00    +0.000 C 
ATOM     13  C   UNL     1      33.510 -18.990 -21.822  0.00  0.00    +0.000 C 
ATOM     14  C   UNL     1      34.851 -18.624 -21.768  0.00  0.00    +0.000 C 
ENDROOT
BRANCH   5  15
ATOM     15  N   UNL     1      33.749 -23.613 -14.613  0.00  0.00    -0.299 N 
ATOM     16  H   UNL     1      32.793 -23.829 -14.710  0.00  0.00    +0.153 HD
BRANCH  15  21
ATOM     17  N   UNL     1      35.155 -25.279 -13.724  0.00  0.00    -0.106 N 
ATOM     18  N   UNL     1      35.743 -25.422 -11.397  0.00  0.00    -0.340 NA
ATOM     19  N   UNL     1      35.413 -25.954 -14.875  0.00  0.00    -0.139 NA
ATOM     20  N   UNL     1      36.497 -26.940 -13.133  0.00  0.00    -0.145 NA
ATOM     21  C   UNL     1      34.361 -24.141 -13.530  0.00  0.00    +0.138 C 
ATOM     22  C   UNL     1      34.254 -23.645 -12.288  0.00  0.00    +0.061 C 
ATOM     23  C   UNL     1      35.831 -25.901 -12.670  0.00  0.00    +0.174 C 
ATOM     24  C   UNL     1      35.006 -24.366 -11.217  0.00  0.00    +0.125 C 
ATOM     25  C   UNL     1      34.894 -23.820  -9.817  0.00  0.00    +0.068 C 
ATOM     26  C   UNL     1      36.215 -26.929 -14.460  0.00  0.00    +0.230 C 
ENDBRANCH  15  21
ENDBRANCH   5  15
TORSDOF 2
ENDMDL
MODEL 9
REMARK VINA RESULT:     -11.3     10.067     13.978
REMARK  Name = 24882195
REMARK  2 active torsions:
REMARK  status: ('A' for Active; 'I' for Inactive)
REMARK    1  A    between atoms: C_5  and  N_15
REMARK    2  A    between atoms: N_15  and  C_21
REMARK                            x       y       z     vdW  Elec       q    Type
REMARK                         _______ _______ _______ _____ _____    ______ ____
ROOT
ATOM      1  C   UNL     1      33.544 -14.182 -22.986  0.00  0.00    +0.001 C 
ATOM      2  C   UNL     1      33.083 -14.746 -24.195  0.00  0.00    +0.000 C 
ATOM      3  C   UNL     1      34.041 -16.423 -22.129  0.00  0.00    +0.000 C 
ATOM      4  C   UNL     1      33.580 -16.988 -23.339  0.00  0.00    +0.000 C 
ATOM      5  C   UNL     1      33.047 -11.960 -23.845  0.00  0.00    +0.049 C 
ATOM      6  C   UNL     1      34.017 -15.028 -21.969  0.00  0.00    +0.000 C 
ATOM      7  C   UNL     1      33.519 -12.787 -22.826  0.00  0.00    +0.015 C 
ATOM      8  C   UNL     1      33.107 -16.142 -24.357  0.00  0.00    +0.000 C 
ATOM      9  C   UNL     1      32.611 -13.900 -25.212  0.00  0.00    +0.001 C 
ATOM     10  C   UNL     1      32.593 -12.516 -25.037  0.00  0.00    +0.015 C 
ATOM     11  C   UNL     1      34.513 -17.270 -21.113  0.00  0.00    +0.000 C 
ATOM     12  C   UNL     1      33.604 -18.383 -23.500  0.00  0.00    +0.000 C 
ATOM     13  C   UNL     1      34.531 -18.654 -21.288  0.00  0.00    +0.000 C 
ATOM     14  C   UNL     1      34.077 -19.210 -22.479  0.00  0.00    +0.000 C 
ENDROOT
BRANCH   5  15
ATOM     15  N   UNL     1      33.030 -10.561 -23.668  0.00  0.00    -0.299 N 
ATOM     16  H   UNL     1      33.481 -10.036 -24.368  0.00  0.00    +0.153 HD
BRANCH  15  21
ATOM     17  N   UNL     1      32.841  -8.497 -22.553  0.00  0.00    -0.106 N 
ATOM     18  N   UNL     1      31.441  -8.146 -20.629  0.00  0.00    -0.340 NA
ATOM     19  N   UNL     1      33.693  -7.775 -23.327  0.00  0.00    -0.139 NA
ATOM     20  N   UNL     1      32.833  -6.460 -21.679  0.00  0.00    -0.145 NA
ATOM     21  C   UNL     1      32.478  -9.845 -22.664  0.00  0.00    +0.138 C 
ATOM     22  C   UNL     1      31.608 -10.345 -21.773  0.00  0.00    +0.061 C 
ATOM     23  C   UNL     1      32.326  -7.670 -21.550  0.00  0.00    +0.174 C 
ATOM     24  C   UNL     1      31.104  -9.398 -20.733  0.00  0.00    +0.125 C 
ATOM     25  C   UNL     1      30.127  -9.947 -19.725  0.00  0.00    +0.068 C 
ATOM     26  C   UNL     1      33.646  -6.574 -22.759  0.00  0.00    +0.230 C 
ENDBRANCH  15  21
ENDBRANCH   5  15
TORSDOF 2
ENDMDL
