MODEL 1
REMARK VINA RESULT:     -11.1      0.000      0.000
REMARK  Name = 6450813
REMARK  4 active torsions:
REMARK  status: ('A' for Active; 'I' for Inactive)
REMARK    1  A    between atoms: C_4  and  C_10
REMARK    2  A    between atoms: C_6  and  C_22
REMARK    3  A    between atoms: C_12  and  N_17
REMARK    4  A    between atoms: C_22  and  C_24
REMARK                            x       y       z     vdW  Elec       q    Type
REMARK                         _______ _______ _______ _____ _____    ______ ____
ROOT
ATOM      1  N   UNL     1      33.967 -15.745 -22.137  0.00  0.00    -0.191 N 
ATOM      2  N   UNL     1      34.286 -16.416 -23.280  0.00  0.00    -0.179 NA
ATOM      3  N   UNL     1      33.997 -16.068 -19.748  0.00  0.00    -0.231 NA
ATOM      4  C   UNL     1      33.425 -14.454 -22.016  0.00  0.00    +0.143 C 
ATOM      5  C   UNL     1      34.241 -16.523 -21.009  0.00  0.00    +0.141 C 
ATOM      6  C   UNL     1      34.756 -17.714 -21.469  0.00  0.00    +0.161 C 
ATOM      7  C   UNL     1      33.168 -13.967 -20.791  0.00  0.00    +0.020 C 
ATOM      8  C   UNL     1      34.758 -17.589 -22.863  0.00  0.00    +0.106 C 
ATOM      9  C   UNL     1      33.495 -14.875 -19.664  0.00  0.00    +0.097 C 
ENDROOT
BRANCH   4  10
ATOM     10  C   UNL     1      33.143 -13.617 -23.196  0.00  0.00    +0.003 C 
ATOM     11  C   UNL     1      33.536 -12.277 -23.213  0.00  0.00    +0.013 C 
ATOM     12  C   UNL     1      33.270 -11.485 -24.329  0.00  0.00    +0.054 C 
ATOM     13  C   UNL     1      32.485 -14.162 -24.298  0.00  0.00    -0.002 C 
ATOM     14  C   UNL     1      32.611 -12.032 -25.431  0.00  0.00    +0.015 C 
ATOM     15  C   UNL     1      32.218 -13.371 -25.415  0.00  0.00    +0.001 C 
BRANCH  12  17
ATOM     16  O   UNL     1      32.008  -9.322 -22.879  0.00  0.00    -0.275 OA
ATOM     17  N   UNL     1      33.662 -10.146 -24.346  0.00  0.00    -0.257 N 
ATOM     18  C   UNL     1      34.872  -9.768 -25.138  0.00  0.00    +0.120 C 
ATOM     19  C   UNL     1      33.011  -9.126 -23.570  0.00  0.00    +0.230 C 
ATOM     20  C   UNL     1      33.610  -7.739 -23.567  0.00  0.00    +0.095 C 
ENDBRANCH  12  17
ENDBRANCH   4  10
BRANCH   6  22
ATOM     21  O   UNL     1      36.386 -19.059 -20.454  0.00  0.00    -0.290 OA
ATOM     22  C   UNL     1      35.180 -18.816 -20.660  0.00  0.00    +0.191 C 
BRANCH  22  24
ATOM     23  S   UNL     1      34.655 -20.924 -19.039  0.00  0.00    -0.084 S 
ATOM     24  C   UNL     1      34.139 -19.682 -20.056  0.00  0.00    +0.065 C 
ATOM     25  C   UNL     1      32.810 -19.589 -20.228  0.00  0.00    +0.010 C 
ATOM     26  C   UNL     1      32.145 -20.602 -19.479  0.00  0.00    +0.008 C 
ATOM     27  C   UNL     1      33.029 -21.398 -18.786  0.00  0.00    +0.036 C 
ENDBRANCH  22  24
ENDBRANCH   6  22
TORSDOF 4
ENDMDL
MODEL 2
REMARK VINA RESULT:     -10.7      3.227      8.779
REMARK  Name = 6450813
REMARK  4 active torsions:
REMARK  status: ('A' for Active; 'I' for Inactive)
REMARK    1  A    between atoms: C_4  and  C_10
REMARK    2  A    between atoms: C_6  and  C_22
REMARK    3  A    between atoms: C_12  and  N_17
REMARK    4  A    between atoms: C_22  and  C_24
REMARK                            x       y       z     vdW  Elec       q    Type
REMARK                         _______ _______ _______ _____ _____    ______ ____
ROOT
ATOM      1  N   UNL     1      33.796 -15.600 -21.811  0.00  0.00    -0.191 N 
ATOM      2  N   UNL     1      33.884 -15.126 -20.537  0.00  0.00    -0.179 NA
ATOM      3  N   UNL     1      33.170 -14.842 -24.014  0.00  0.00    -0.231 NA
ATOM      4  C   UNL     1      34.086 -16.895 -22.274  0.00  0.00    +0.143 C 
ATOM      5  C   UNL     1      33.346 -14.605 -22.684  0.00  0.00    +0.141 C 
ATOM      6  C   UNL     1      33.158 -13.472 -21.923  0.00  0.00    +0.161 C 
ATOM      7  C   UNL     1      33.926 -17.173 -23.578  0.00  0.00    +0.020 C 
ATOM      8  C   UNL     1      33.502 -13.853 -20.622  0.00  0.00    +0.106 C 
ATOM      9  C   UNL     1      33.443 -16.046 -24.414  0.00  0.00    +0.097 C 
ENDROOT
BRANCH   4  10
ATOM     10  C   UNL     1      34.574 -17.951 -21.368  0.00  0.00    +0.003 C 
ATOM     11  C   UNL     1      33.668 -18.809 -20.742  0.00  0.00    +0.013 C 
ATOM     12  C   UNL     1      34.130 -19.808 -19.886  0.00  0.00    +0.054 C 
ATOM     13  C   UNL     1      35.942 -18.094 -21.137  0.00  0.00    -0.002 C 
ATOM     14  C   UNL     1      35.498 -19.950 -19.655  0.00  0.00    +0.015 C 
ATOM     15  C   UNL     1      36.405 -19.094 -20.280  0.00  0.00    +0.001 C 
BRANCH  12  17
ATOM     16  O   UNL     1      34.792 -21.908 -18.007  0.00  0.00    -0.275 OA
ATOM     17  N   UNL     1      33.224 -20.665 -19.259  0.00  0.00    -0.257 N 
ATOM     18  C   UNL     1      31.765 -20.476 -19.522  0.00  0.00    +0.120 C 
ATOM     19  C   UNL     1      33.620 -21.665 -18.304  0.00  0.00    +0.230 C 
ATOM     20  C   UNL     1      32.536 -22.440 -17.592  0.00  0.00    +0.095 C 
ENDBRANCH  12  17
ENDBRANCH   4  10
BRANCH   6  22
ATOM     21  O   UNL     1      33.094 -11.726 -23.486  0.00  0.00    -0.290 OA
ATOM     22  C   UNL     1      32.702 -12.203 -22.403  0.00  0.00    +0.191 C 
BRANCH  22  24
ATOM     23  S   UNL     1      31.669  -9.777 -21.777  0.00  0.00    -0.084 S 
ATOM     24  C   UNL     1      31.733 -11.449 -21.573  0.00  0.00    +0.065 C 
ATOM     25  C   UNL     1      30.884 -11.953 -20.661  0.00  0.00    +0.010 C 
ATOM     26  C   UNL     1      30.114 -10.909 -20.074  0.00  0.00    +0.008 C 
ATOM     27  C   UNL     1      30.439  -9.674 -20.589  0.00  0.00    +0.036 C 
ENDBRANCH  22  24
ENDBRANCH   6  22
TORSDOF 4
ENDMDL
MODEL 3
REMARK VINA RESULT:     -10.3      2.518      4.083
REMARK  Name = 6450813
REMARK  4 active torsions:
REMARK  status: ('A' for Active; 'I' for Inactive)
REMARK    1  A    between atoms: C_4  and  C_10
REMARK    2  A    between atoms: C_6  and  C_22
REMARK    3  A    between atoms: C_12  and  N_17
REMARK    4  A    between atoms: C_22  and  C_24
REMARK                            x       y       z     vdW  Elec       q    Type
REMARK                         _______ _______ _______ _____ _____    ______ ____
ROOT
ATOM      1  N   UNL     1      33.300 -13.701 -23.470  0.00  0.00    -0.191 N 
ATOM      2  N   UNL     1      33.820 -13.731 -22.210  0.00  0.00    -0.179 NA
ATOM      3  N   UNL     1      32.766 -15.211 -25.273  0.00  0.00    -0.231 NA
ATOM      4  C   UNL     1      32.867 -12.581 -24.199  0.00  0.00    +0.143 C 
ATOM      5  C   UNL     1      33.243 -14.986 -24.016  0.00  0.00    +0.141 C 
ATOM      6  C   UNL     1      33.735 -15.843 -23.058  0.00  0.00    +0.161 C 
ATOM      7  C   UNL     1      32.390 -12.757 -25.443  0.00  0.00    +0.020 C 
ATOM      8  C   UNL     1      34.072 -15.019 -21.978  0.00  0.00    +0.106 C 
ATOM      9  C   UNL     1      32.374 -14.160 -25.925  0.00  0.00    +0.097 C 
ENDROOT
BRANCH   4  10
ATOM     10  C   UNL     1      32.910 -11.221 -23.631  0.00  0.00    +0.003 C 
ATOM     11  C   UNL     1      32.060 -10.876 -22.579  0.00  0.00    +0.013 C 
ATOM     12  C   UNL     1      32.101  -9.590 -22.041  0.00  0.00    +0.054 C 
ATOM     13  C   UNL     1      33.800 -10.278 -24.144  0.00  0.00    -0.002 C 
ATOM     14  C   UNL     1      32.991  -8.648 -22.556  0.00  0.00    +0.015 C 
ATOM     15  C   UNL     1      33.841  -8.991 -23.608  0.00  0.00    +0.001 C 
BRANCH  12  17
ATOM     16  O   UNL     1      31.222 -11.343 -19.912  0.00  0.00    -0.275 OA
ATOM     17  N   UNL     1      31.250  -9.244 -20.990  0.00  0.00    -0.257 N 
ATOM     18  C   UNL     1      30.770  -7.832 -20.898  0.00  0.00    +0.120 C 
ATOM     19  C   UNL     1      30.884 -10.157 -19.942  0.00  0.00    +0.230 C 
ATOM     20  C   UNL     1      30.067  -9.627 -18.787  0.00  0.00    +0.095 C 
ENDBRANCH  12  17
ENDBRANCH   4  10
BRANCH   6  22
ATOM     21  O   UNL     1      33.478 -17.874 -24.199  0.00  0.00    -0.290 OA
ATOM     22  C   UNL     1      33.862 -17.263 -23.183  0.00  0.00    +0.191 C 
BRANCH  22  24
ATOM     23  S   UNL     1      33.486 -19.081 -21.208  0.00  0.00    -0.084 S 
ATOM     24  C   UNL     1      34.474 -18.012 -22.059  0.00  0.00    +0.065 C 
ATOM     25  C   UNL     1      35.746 -17.937 -21.633  0.00  0.00    +0.010 C 
ATOM     26  C   UNL     1      35.948 -18.812 -20.528  0.00  0.00    +0.008 C 
ATOM     27  C   UNL     1      34.801 -19.495 -20.192  0.00  0.00    +0.036 C 
ENDBRANCH  22  24
ENDBRANCH   6  22
TORSDOF 4
ENDMDL
MODEL 4
REMARK VINA RESULT:     -10.1      4.466      7.716
REMARK  Name = 6450813
REMARK  4 active torsions:
REMARK  status: ('A' for Active; 'I' for Inactive)
REMARK    1  A    between atoms: C_4  and  C_10
REMARK    2  A    between atoms: C_6  and  C_22
REMARK    3  A    between atoms: C_12  and  N_17
REMARK    4  A    between atoms: C_22  and  C_24
REMARK                            x       y       z     vdW  Elec       q    Type
REMARK                         _______ _______ _______ _____ _____    ______ ____
ROOT
ATOM      1  N   UNL     1      34.782 -21.217 -17.720  0.00  0.00    -0.191 N 
ATOM      2  N   UNL     1      36.020 -20.848 -17.289  0.00  0.00    -0.179 NA
ATOM      3  N   UNL     1      32.941 -22.617 -17.035  0.00  0.00    -0.231 NA
ATOM      4  C   UNL     1      34.123 -20.823 -18.896  0.00  0.00    +0.143 C 
ATOM      5  C   UNL     1      34.183 -22.101 -16.817  0.00  0.00    +0.141 C 
ATOM      6  C   UNL     1      35.079 -22.278 -15.788  0.00  0.00    +0.161 C 
ATOM      7  C   UNL     1      32.896 -21.308 -19.151  0.00  0.00    +0.020 C 
ATOM      8  C   UNL     1      36.182 -21.488 -16.132  0.00  0.00    +0.106 C 
ATOM      9  C   UNL     1      32.355 -22.239 -18.130  0.00  0.00    +0.097 C 
ENDROOT
BRANCH   4  10
ATOM     10  C   UNL     1      34.736 -19.881 -19.851  0.00  0.00    +0.003 C 
ATOM     11  C   UNL     1      33.958 -19.290 -20.848  0.00  0.00    +0.013 C 
ATOM     12  C   UNL     1      34.538 -18.399 -21.750  0.00  0.00    +0.054 C 
ATOM     13  C   UNL     1      36.094 -19.579 -19.757  0.00  0.00    -0.002 C 
ATOM     14  C   UNL     1      35.897 -18.098 -21.656  0.00  0.00    +0.015 C 
ATOM     15  C   UNL     1      36.676 -18.688 -20.660  0.00  0.00    +0.001 C 
BRANCH  12  17
ATOM     16  O   UNL     1      34.283 -15.560 -22.257  0.00  0.00    -0.275 OA
ATOM     17  N   UNL     1      33.761 -17.809 -22.747  0.00  0.00    -0.257 N 
ATOM     18  C   UNL     1      33.017 -18.699 -23.691  0.00  0.00    +0.120 C 
ATOM     19  C   UNL     1      33.710 -16.389 -22.968  0.00  0.00    +0.230 C 
ATOM     20  C   UNL     1      32.939 -15.880 -24.164  0.00  0.00    +0.095 C 
ENDBRANCH  12  17
ENDBRANCH   4  10
BRANCH   6  22
ATOM     21  O   UNL     1      33.882 -22.994 -13.904  0.00  0.00    -0.290 OA
ATOM     22  C   UNL     1      34.885 -23.104 -14.635  0.00  0.00    +0.191 C 
BRANCH  22  24
ATOM     23  S   UNL     1      35.437 -25.734 -14.280  0.00  0.00    -0.084 S 
ATOM     24  C   UNL     1      35.920 -24.119 -14.320  0.00  0.00    +0.065 C 
ATOM     25  C   UNL     1      37.219 -23.896 -14.059  0.00  0.00    +0.010 C 
ATOM     26  C   UNL     1      37.888 -25.127 -13.804  0.00  0.00    +0.008 C 
ATOM     27  C   UNL     1      37.037 -26.207 -13.891  0.00  0.00    +0.036 C 
ENDBRANCH  22  24
ENDBRANCH   6  22
TORSDOF 4
ENDMDL
MODEL 5
REMARK VINA RESULT:     -10.1      2.299      4.068
REMARK  Name = 6450813
REMARK  4 active torsions:
REMARK  status: ('A' for Active; 'I' for Inactive)
REMARK    1  A    between atoms: C_4  and  C_10
REMARK    2  A    between atoms: C_6  and  C_22
REMARK    3  A    between atoms: C_12  and  N_17
REMARK    4  A    between atoms: C_22  and  C_24
REMARK                            x       y       z     vdW  Elec       q    Type
REMARK                         _______ _______ _______ _____ _____    ______ ____
ROOT
ATOM      1  N   UNL     1      33.339 -13.416 -23.781  0.00  0.00    -0.191 N 
ATOM      2  N   UNL     1      33.967 -13.448 -22.572  0.00  0.00    -0.179 NA
ATOM      3  N   UNL     1      32.451 -14.936 -25.430  0.00  0.00    -0.231 NA
ATOM      4  C   UNL     1      32.984 -12.289 -24.541  0.00  0.00    +0.143 C 
ATOM      5  C   UNL     1      33.069 -14.710 -24.237  0.00  0.00    +0.141 C 
ATOM      6  C   UNL     1      33.538 -15.572 -23.271  0.00  0.00    +0.161 C 
ATOM      7  C   UNL     1      32.373 -12.466 -25.725  0.00  0.00    +0.020 C 
ATOM      8  C   UNL     1      34.076 -14.743 -22.281  0.00  0.00    +0.106 C 
ATOM      9  C   UNL     1      32.135 -13.879 -26.112  0.00  0.00    +0.097 C 
ENDROOT
BRANCH   4  10
ATOM     10  C   UNL     1      33.250 -10.918 -24.067  0.00  0.00    +0.003 C 
ATOM     11  C   UNL     1      32.294 -10.243 -23.307  0.00  0.00    +0.013 C 
ATOM     12  C   UNL     1      32.547  -8.948 -22.858  0.00  0.00    +0.054 C 
ATOM     13  C   UNL     1      34.459 -10.296 -24.378  0.00  0.00    -0.002 C 
ATOM     14  C   UNL     1      33.755  -8.325 -23.170  0.00  0.00    +0.015 C 
ATOM     15  C   UNL     1      34.712  -8.999 -23.931  0.00  0.00    +0.001 C 
BRANCH  12  17
ATOM     16  O   UNL     1      31.105  -6.568 -23.658  0.00  0.00    -0.275 OA
ATOM     17  N   UNL     1      31.591  -8.271 -22.099  0.00  0.00    -0.257 N 
ATOM     18  C   UNL     1      31.218  -8.830 -20.763  0.00  0.00    +0.120 C 
ATOM     19  C   UNL     1      30.884  -7.114 -22.574  0.00  0.00    +0.230 C 
ATOM     20  C   UNL     1      29.776  -6.550 -21.714  0.00  0.00    +0.095 C 
ENDBRANCH  12  17
ENDBRANCH   4  10
BRANCH   6  22
ATOM     21  O   UNL     1      32.874 -17.608 -24.226  0.00  0.00    -0.290 OA
ATOM     22  C   UNL     1      33.472 -17.001 -23.315  0.00  0.00    +0.191 C 
BRANCH  22  24
ATOM     23  S   UNL     1      33.291 -19.041 -21.539  0.00  0.00    -0.084 S 
ATOM     24  C   UNL     1      34.145 -17.766 -22.238  0.00  0.00    +0.065 C 
ATOM     25  C   UNL     1      35.378 -17.556 -21.746  0.00  0.00    +0.010 C 
ATOM     26  C   UNL     1      35.665 -18.500 -20.718  0.00  0.00    +0.008 C 
ATOM     27  C   UNL     1      34.616 -19.366 -20.503  0.00  0.00    +0.036 C 
ENDBRANCH  22  24
ENDBRANCH   6  22
TORSDOF 4
ENDMDL
MODEL 6
REMARK VINA RESULT:     -10.0      4.336      9.707
REMARK  Name = 6450813
REMARK  4 active torsions:
REMARK  status: ('A' for Active; 'I' for Inactive)
REMARK    1  A    between atoms: C_4  and  C_10
REMARK    2  A    between atoms: C_6  and  C_22
REMARK    3  A    between atoms: C_12  and  N_17
REMARK    4  A    between atoms: C_22  and  C_24
REMARK                            x       y       z     vdW  Elec       q    Type
REMARK                         _______ _______ _______ _____ _____    ______ ____
ROOT
ATOM      1  N   UNL     1      32.506  -9.415 -22.544  0.00  0.00    -0.191 N 
ATOM      2  N   UNL     1      31.423  -9.958 -21.920  0.00  0.00    -0.179 NA
ATOM      3  N   UNL     1      33.784  -7.370 -22.558  0.00  0.00    -0.231 NA
ATOM      4  C   UNL     1      33.312  -9.996 -23.538  0.00  0.00    +0.143 C 
ATOM      5  C   UNL     1      32.755  -8.122 -22.077  0.00  0.00    +0.141 C 
ATOM      6  C   UNL     1      31.798  -7.858 -21.122  0.00  0.00    +0.161 C 
ATOM      7  C   UNL     1      34.338  -9.290 -24.041  0.00  0.00    +0.020 C 
ATOM      8  C   UNL     1      31.014  -9.016 -21.071  0.00  0.00    +0.106 C 
ATOM      9  C   UNL     1      34.511  -7.929 -23.476  0.00  0.00    +0.097 C 
ENDROOT
BRANCH   4  10
ATOM     10  C   UNL     1      33.070 -11.364 -24.031  0.00  0.00    +0.003 C 
ATOM     11  C   UNL     1      33.392 -12.463 -23.233  0.00  0.00    +0.013 C 
ATOM     12  C   UNL     1      33.162 -13.757 -23.699  0.00  0.00    +0.054 C 
ATOM     13  C   UNL     1      32.518 -11.562 -25.297  0.00  0.00    -0.002 C 
ATOM     14  C   UNL     1      32.611 -13.954 -24.965  0.00  0.00    +0.015 C 
ATOM     15  C   UNL     1      32.289 -12.856 -25.765  0.00  0.00    +0.001 C 
BRANCH  12  17
ATOM     16  O   UNL     1      34.024 -16.354 -24.643  0.00  0.00    -0.275 OA
ATOM     17  N   UNL     1      33.485 -14.855 -22.902  0.00  0.00    -0.257 N 
ATOM     18  C   UNL     1      33.439 -14.695 -21.416  0.00  0.00    +0.120 C 
ATOM     19  C   UNL     1      33.944 -16.108 -23.437  0.00  0.00    +0.230 C 
ATOM     20  C   UNL     1      34.391 -17.178 -22.468  0.00  0.00    +0.095 C 
ENDBRANCH  12  17
ENDBRANCH   4  10
BRANCH   6  22
ATOM     21  O   UNL     1      32.018  -6.567 -19.178  0.00  0.00    -0.290 OA
ATOM     22  C   UNL     1      31.668  -6.646 -20.372  0.00  0.00    +0.191 C 
BRANCH  22  24
ATOM     23  S   UNL     1      29.691  -4.793 -20.413  0.00  0.00    -0.084 S 
ATOM     24  C   UNL     1      31.101  -5.459 -21.055  0.00  0.00    +0.065 C 
ATOM     25  C   UNL     1      31.589  -4.841 -22.143  0.00  0.00    +0.010 C 
ATOM     26  C   UNL     1      30.762  -3.737 -22.496  0.00  0.00    +0.008 C 
ATOM     27  C   UNL     1      29.693  -3.596 -21.639  0.00  0.00    +0.036 C 
ENDBRANCH  22  24
ENDBRANCH   6  22
TORSDOF 4
ENDMDL
MODEL 7
REMARK VINA RESULT:     -10.0      3.548      6.096
REMARK  Name = 6450813
REMARK  4 active torsions:
REMARK  status: ('A' for Active; 'I' for Inactive)
REMARK    1  A    between atoms: C_4  and  C_10
REMARK    2  A    between atoms: C_6  and  C_22
REMARK    3  A    between atoms: C_12  and  N_17
REMARK    4  A    between atoms: C_22  and  C_24
REMARK                            x       y       z     vdW  Elec       q    Type
REMARK                         _______ _______ _______ _____ _____    ______ ____
ROOT
ATOM      1  N   UNL     1      33.451 -20.607 -19.208  0.00  0.00    -0.191 N 
ATOM      2  N   UNL     1      32.109 -20.522 -19.431  0.00  0.00    -0.179 NA
ATOM      3  N   UNL     1      35.002 -21.738 -17.748  0.00  0.00    -0.231 NA
ATOM      4  C   UNL     1      34.483 -19.931 -19.880  0.00  0.00    +0.143 C 
ATOM      5  C   UNL     1      33.727 -21.492 -18.161  0.00  0.00    +0.141 C 
ATOM      6  C   UNL     1      32.515 -21.977 -17.727  0.00  0.00    +0.161 C 
ATOM      7  C   UNL     1      35.756 -20.144 -19.504  0.00  0.00    +0.020 C 
ATOM      8  C   UNL     1      31.564 -21.348 -18.540  0.00  0.00    +0.106 C 
ATOM      9  C   UNL     1      35.936 -21.099 -18.383  0.00  0.00    +0.097 C 
ENDROOT
BRANCH   4  10
ATOM     10  C   UNL     1      34.208 -19.006 -20.994  0.00  0.00    +0.003 C 
ATOM     11  C   UNL     1      34.138 -17.631 -20.761  0.00  0.00    +0.013 C 
ATOM     12  C   UNL     1      33.878 -16.756 -21.814  0.00  0.00    +0.054 C 
ATOM     13  C   UNL     1      34.019 -19.503 -22.283  0.00  0.00    -0.002 C 
ATOM     14  C   UNL     1      33.688 -17.254 -23.103  0.00  0.00    +0.015 C 
ATOM     15  C   UNL     1      33.758 -18.628 -23.338  0.00  0.00    +0.001 C 
BRANCH  12  17
ATOM     16  O   UNL     1      33.839 -14.684 -23.836  0.00  0.00    -0.275 OA
ATOM     17  N   UNL     1      33.807 -15.382 -21.581  0.00  0.00    -0.257 N 
ATOM     18  C   UNL     1      33.688 -14.904 -20.170  0.00  0.00    +0.120 C 
ATOM     19  C   UNL     1      33.753 -14.407 -22.636  0.00  0.00    +0.230 C 
ATOM     20  C   UNL     1      33.540 -12.959 -22.260  0.00  0.00    +0.095 C 
ENDBRANCH  12  17
ENDBRANCH   4  10
BRANCH   6  22
ATOM     21  O   UNL     1      33.086 -23.880 -16.483  0.00  0.00    -0.290 OA
ATOM     22  C   UNL     1      32.315 -22.918 -16.667  0.00  0.00    +0.191 C 
BRANCH  22  24
ATOM     23  S   UNL     1      31.431 -22.792 -14.108  0.00  0.00    -0.084 S 
ATOM     24  C   UNL     1      31.151 -22.723 -15.769  0.00  0.00    +0.065 C 
ATOM     25  C   UNL     1      29.878 -22.494 -16.132  0.00  0.00    +0.010 C 
ATOM     26  C   UNL     1      29.054 -22.362 -14.979  0.00  0.00    +0.008 C 
ATOM     27  C   UNL     1      29.770 -22.502 -13.811  0.00  0.00    +0.036 C 
ENDBRANCH  22  24
ENDBRANCH   6  22
TORSDOF 4
ENDMDL
MODEL 8
REMARK VINA RESULT:      -9.9      1.638      2.732
REMARK  Name = 6450813
REMARK  4 active torsions:
REMARK  status: ('A' for Active; 'I' for Inactive)
REMARK    1  A    between atoms: C_4  and  C_10
REMARK    2  A    between atoms: C_6  and  C_22
REMARK    3  A    between atoms: C_12  and  N_17
REMARK    4  A    between atoms: C_22  and  C_24
REMARK                            x       y       z     vdW  Elec       q    Type
REMARK                         _______ _______ _______ _____ _____    ______ ____
ROOT
ATOM      1  N   UNL     1      33.363 -14.790 -21.848  0.00  0.00    -0.191 N 
ATOM      2  N   UNL     1      33.511 -14.755 -20.494  0.00  0.00    -0.179 NA
ATOM      3  N   UNL     1      33.830 -16.250 -23.710  0.00  0.00    -0.231 NA
ATOM      4  C   UNL     1      32.811 -13.804 -22.683  0.00  0.00    +0.143 C 
ATOM      5  C   UNL     1      33.860 -15.986 -22.374  0.00  0.00    +0.141 C 
ATOM      6  C   UNL     1      34.323 -16.722 -21.306  0.00  0.00    +0.161 C 
ATOM      7  C   UNL     1      32.762 -14.022 -24.008  0.00  0.00    +0.020 C 
ATOM      8  C   UNL     1      34.084 -15.918 -20.186  0.00  0.00    +0.106 C 
ATOM      9  C   UNL     1      33.317 -15.323 -24.458  0.00  0.00    +0.097 C 
ENDROOT
BRANCH   4  10
ATOM     10  C   UNL     1      32.272 -12.542 -22.142  0.00  0.00    +0.003 C 
ATOM     11  C   UNL     1      32.581 -11.329 -22.758  0.00  0.00    +0.013 C 
ATOM     12  C   UNL     1      32.071 -10.136 -22.247  0.00  0.00    +0.054 C 
ATOM     13  C   UNL     1      31.450 -12.562 -21.015  0.00  0.00    -0.002 C 
ATOM     14  C   UNL     1      31.250 -10.156 -21.119  0.00  0.00    +0.015 C 
ATOM     15  C   UNL     1      30.939 -11.369 -20.503  0.00  0.00    +0.001 C 
BRANCH  12  17
ATOM     16  O   UNL     1      34.654  -9.374 -23.310  0.00  0.00    -0.275 OA
ATOM     17  N   UNL     1      32.381  -8.922 -22.861  0.00  0.00    -0.257 N 
ATOM     18  C   UNL     1      31.289  -7.919 -23.047  0.00  0.00    +0.120 C 
ATOM     19  C   UNL     1      33.679  -8.623 -23.402  0.00  0.00    +0.230 C 
ATOM     20  C   UNL     1      33.855  -7.330 -24.163  0.00  0.00    +0.095 C 
ENDBRANCH  12  17
ENDBRANCH   4  10
BRANCH   6  22
ATOM     21  O   UNL     1      35.900 -18.262 -22.101  0.00  0.00    -0.290 OA
ATOM     22  C   UNL     1      34.918 -18.022 -21.373  0.00  0.00    +0.191 C 
BRANCH  22  24
ATOM     23  S   UNL     1      35.394 -20.026 -19.612  0.00  0.00    -0.084 S 
ATOM     24  C   UNL     1      34.334 -19.102 -20.541  0.00  0.00    +0.065 C 
ATOM     25  C   UNL     1      33.036 -19.434 -20.441  0.00  0.00    +0.010 C 
ATOM     26  C   UNL     1      32.875 -20.525 -19.540  0.00  0.00    +0.008 C 
ATOM     27  C   UNL     1      34.078 -20.946 -19.017  0.00  0.00    +0.036 C 
ENDBRANCH  22  24
ENDBRANCH   6  22
TORSDOF 4
ENDMDL
MODEL 9
REMARK VINA RESULT:      -9.9      6.668     11.664
REMARK  Name = 6450813
REMARK  4 active torsions:
REMARK  status: ('A' for Active; 'I' for Inactive)
REMARK    1  A    between atoms: C_4  and  C_10
REMARK    2  A    between atoms: C_6  and  C_22
REMARK    3  A    between atoms: C_12  and  N_17
REMARK    4  A    between atoms: C_22  and  C_24
REMARK                            x       y       z     vdW  Elec       q    Type
REMARK                         _______ _______ _______ _____ _____    ______ ____
ROOT
ATOM      1  N   UNL     1      33.078 -22.601 -16.293  0.00  0.00    -0.191 N 
ATOM      2  N   UNL     1      32.100 -22.584 -17.242  0.00  0.00    -0.179 NA
ATOM      3  N   UNL     1      35.407 -22.026 -16.047  0.00  0.00    -0.231 NA
ATOM      4  C   UNL     1      32.986 -23.048 -14.965  0.00  0.00    +0.143 C 
ATOM      5  C   UNL     1      34.279 -22.101 -16.806  0.00  0.00    +0.141 C 
ATOM      6  C   UNL     1      34.032 -21.755 -18.116  0.00  0.00    +0.161 C 
ATOM      7  C   UNL     1      34.075 -22.992 -14.180  0.00  0.00    +0.020 C 
ATOM      8  C   UNL     1      32.685 -22.074 -18.324  0.00  0.00    +0.106 C 
ATOM      9  C   UNL     1      35.295 -22.447 -14.825  0.00  0.00    +0.097 C 
ENDROOT
BRANCH   4  10
ATOM     10  C   UNL     1      31.723 -23.565 -14.406  0.00  0.00    +0.003 C 
ATOM     11  C   UNL     1      30.509 -23.258 -15.022  0.00  0.00    +0.013 C 
ATOM     12  C   UNL     1      29.315 -23.747 -14.494  0.00  0.00    +0.054 C 
ATOM     13  C   UNL     1      31.741 -24.361 -13.261  0.00  0.00    -0.002 C 
ATOM     14  C   UNL     1      29.333 -24.543 -13.348  0.00  0.00    +0.015 C 
ATOM     15  C   UNL     1      30.547 -24.851 -12.732  0.00  0.00    +0.001 C 
BRANCH  12  17
ATOM     16  O   UNL     1      27.731 -21.366 -14.044  0.00  0.00    -0.275 OA
ATOM     17  N   UNL     1      28.100 -23.440 -15.108  0.00  0.00    -0.257 N 
ATOM     18  C   UNL     1      27.563 -24.384 -16.136  0.00  0.00    +0.120 C 
ATOM     19  C   UNL     1      27.383 -22.218 -14.866  0.00  0.00    +0.230 C 
ATOM     20  C   UNL     1      26.149 -21.938 -15.692  0.00  0.00    +0.095 C 
ENDBRANCH  12  17
ENDBRANCH   4  10
BRANCH   6  22
ATOM     21  O   UNL     1      36.132 -21.657 -19.152  0.00  0.00    -0.290 OA
ATOM     22  C   UNL     1      34.980 -21.197 -19.032  0.00  0.00    +0.191 C 
BRANCH  22  24
ATOM     23  S   UNL     1      35.728 -18.887 -20.237  0.00  0.00    -0.084 S 
ATOM     24  C   UNL     1      34.557 -20.040 -19.857  0.00  0.00    +0.065 C 
ATOM     25  C   UNL     1      33.328 -19.799 -20.345  0.00  0.00    +0.010 C 
ATOM     26  C   UNL     1      33.323 -18.585 -21.089  0.00  0.00    +0.008 C 
ATOM     27  C   UNL     1      34.563 -17.986 -21.111  0.00  0.00    +0.036 C 
ENDBRANCH  22  24
ENDBRANCH   6  22
TORSDOF 4
ENDMDL
