MODEL 1
REMARK VINA RESULT:     -11.9      0.000      0.000
REMARK  Name = 124173720
REMARK  4 active torsions:
REMARK  status: ('A' for Active; 'I' for Inactive)
REMARK    1  A    between atoms: C_13  and  N_24
REMARK    2  A    between atoms: C_18  and  C_23
REMARK    3  A    between atoms: N_24  and  C_26
REMARK    4  A    between atoms: C_26  and  C_30
REMARK                            x       y       z     vdW  Elec       q    Type
REMARK                         _______ _______ _______ _____ _____    ______ ____
ROOT
ATOM      1  O   UNL     1      31.301 -22.293 -17.532  0.00  0.00    -0.473 OA
ATOM      2  N   UNL     1      33.101 -23.373 -15.344  0.00  0.00    -0.272 N 
ATOM      3  N   UNL     1      35.238 -22.952 -15.692  0.00  0.00    -0.374 NA
ATOM      4  C   UNL     1      35.106 -23.754 -14.593  0.00  0.00    +0.190 C 
ATOM      5  C   UNL     1      34.013 -22.724 -16.153  0.00  0.00    +0.188 C 
ATOM      6  C   UNL     1      31.657 -23.404 -15.445  0.00  0.00    +0.141 C 
ATOM      7  C   UNL     1      33.788 -24.034 -14.357  0.00  0.00    +0.169 C 
ATOM      8  C   UNL     1      33.733 -21.899 -17.346  0.00  0.00    +0.078 C 
ATOM      9  C   UNL     1      31.084 -22.184 -16.128  0.00  0.00    +0.227 C 
ATOM     10  C   UNL     1      32.478 -21.738 -17.956  0.00  0.00    +0.144 C 
ATOM     11  C   UNL     1      34.830 -21.246 -17.949  0.00  0.00    +0.008 C 
ATOM     12  C   UNL     1      32.347 -20.998 -19.145  0.00  0.00    +0.051 C 
ATOM     13  C   UNL     1      33.447 -20.370 -19.718  0.00  0.00    +0.048 C 
ATOM     14  C   UNL     1      34.692 -20.489 -19.116  0.00  0.00    +0.015 C 
ATOM     15  O   UNL     1      38.315 -24.651 -13.278  0.00  0.00    -0.432 OA
ATOM     16  O   UNL     1      37.964 -23.108 -14.932  0.00  0.00    -0.226 OA
ATOM     17  N   UNL     1      36.177 -24.199 -13.857  0.00  0.00    -0.194 N 
ATOM     18  C   UNL     1      36.099 -25.049 -12.690  0.00  0.00    +0.195 C 
ATOM     19  C   UNL     1      37.494 -25.641 -12.650  0.00  0.00    +0.236 C 
ATOM     20  C   UNL     1      37.518 -23.901 -14.115  0.00  0.00    +0.411 C 
ENDROOT
BRANCH  18  23
ATOM     21  F   UNL     1      34.687 -24.771 -10.845  0.00  0.00    -0.196 F 
ATOM     22  F   UNL     1      36.810 -24.388 -10.560  0.00  0.00    -0.196 F 
ATOM     23  C   UNL     1      35.786 -24.249 -11.427  0.00  0.00    +0.340 C 
ENDBRANCH  18  23
BRANCH  13  24
ATOM     24  N   UNL     1      33.300 -19.619 -20.901  0.00  0.00    -0.327 N 
ATOM     25  H   UNL     1      32.392 -19.458 -21.245  0.00  0.00    +0.147 HD
BRANCH  24  26
ATOM     26  C   UNL     1      34.411 -19.080 -21.624  0.00  0.00    +0.146 C 
ATOM     27  C   UNL     1      34.199 -19.297 -23.116  0.00  0.00    +0.031 C 
BRANCH  26  30
ATOM     28  O   UNL     1      34.510 -17.143 -20.167  0.00  0.00    -0.274 OA
ATOM     29  N   UNL     1      34.704 -16.821 -22.432  0.00  0.00    -0.327 N 
ATOM     30  C   UNL     1      34.542 -17.600 -21.307  0.00  0.00    +0.237 C 
ATOM     31  H   UNL     1      34.798 -15.845 -22.346  0.00  0.00    +0.145 HD
ATOM     32  H   UNL     1      34.725 -17.241 -23.323  0.00  0.00    +0.145 HD
ENDBRANCH  26  30
ENDBRANCH  24  26
ENDBRANCH  13  24
TORSDOF 4
ENDMDL
MODEL 2
REMARK VINA RESULT:     -10.7      4.086      8.827
REMARK  Name = 124173720
REMARK  4 active torsions:
REMARK  status: ('A' for Active; 'I' for Inactive)
REMARK    1  A    between atoms: C_13  and  N_24
REMARK    2  A    between atoms: C_18  and  C_23
REMARK    3  A    between atoms: N_24  and  C_26
REMARK    4  A    between atoms: C_26  and  C_30
REMARK                            x       y       z     vdW  Elec       q    Type
REMARK                         _______ _______ _______ _____ _____    ______ ____
ROOT
ATOM      1  O   UNL     1      32.848 -22.793 -15.912  0.00  0.00    -0.473 OA
ATOM      2  N   UNL     1      33.020 -21.187 -18.479  0.00  0.00    -0.272 N 
ATOM      3  N   UNL     1      35.013 -20.305 -18.819  0.00  0.00    -0.374 NA
ATOM      4  C   UNL     1      34.149 -19.859 -19.779  0.00  0.00    +0.190 C 
ATOM      5  C   UNL     1      34.321 -21.112 -18.022  0.00  0.00    +0.188 C 
ATOM      6  C   UNL     1      31.911 -21.948 -17.943  0.00  0.00    +0.141 C 
ATOM      7  C   UNL     1      32.902 -20.390 -19.589  0.00  0.00    +0.169 C 
ATOM      8  C   UNL     1      34.905 -21.793 -16.848  0.00  0.00    +0.078 C 
ATOM      9  C   UNL     1      32.348 -23.183 -17.188  0.00  0.00    +0.227 C 
ATOM     10  C   UNL     1      34.194 -22.543 -15.896  0.00  0.00    +0.144 C 
ATOM     11  C   UNL     1      36.294 -21.645 -16.643  0.00  0.00    +0.008 C 
ATOM     12  C   UNL     1      34.844 -23.072 -14.767  0.00  0.00    +0.051 C 
ATOM     13  C   UNL     1      36.213 -22.905 -14.590  0.00  0.00    +0.048 C 
ATOM     14  C   UNL     1      36.942 -22.194 -15.533  0.00  0.00    +0.015 C 
ATOM     15  O   UNL     1      35.761 -17.512 -21.952  0.00  0.00    -0.432 OA
ATOM     16  O   UNL     1      36.825 -18.763 -20.358  0.00  0.00    -0.226 OA
ATOM     17  N   UNL     1      34.521 -18.994 -20.779  0.00  0.00    -0.194 N 
ATOM     18  C   UNL     1      33.652 -18.488 -21.818  0.00  0.00    +0.195 C 
ATOM     19  C   UNL     1      34.388 -17.233 -22.245  0.00  0.00    +0.236 C 
ATOM     20  C   UNL     1      35.801 -18.463 -20.957  0.00  0.00    +0.411 C 
ENDROOT
BRANCH  18  23
ATOM     21  F   UNL     1      32.928 -18.854 -24.013  0.00  0.00    -0.196 F 
ATOM     22  F   UNL     1      34.739 -19.871 -23.362  0.00  0.00    -0.196 F 
ATOM     23  C   UNL     1      33.508 -19.481 -22.970  0.00  0.00    +0.340 C 
ENDBRANCH  18  23
BRANCH  13  24
ATOM     24  N   UNL     1      36.856 -23.453 -13.462  0.00  0.00    -0.327 N 
ATOM     25  H   UNL     1      37.836 -23.530 -13.471  0.00  0.00    +0.147 HD
BRANCH  24  26
ATOM     26  C   UNL     1      36.145 -23.902 -12.304  0.00  0.00    +0.146 C 
ATOM     27  C   UNL     1      36.500 -25.354 -12.022  0.00  0.00    +0.031 C 
BRANCH  26  30
ATOM     28  O   UNL     1      37.299 -22.081 -11.192  0.00  0.00    -0.274 OA
ATOM     29  N   UNL     1      35.851 -23.373  -9.964  0.00  0.00    -0.327 N 
ATOM     30  C   UNL     1      36.507 -23.018 -11.123  0.00  0.00    +0.237 C 
ATOM     31  H   UNL     1      36.010 -22.869  -9.134  0.00  0.00    +0.145 HD
ATOM     32  H   UNL     1      35.224 -24.133  -9.966  0.00  0.00    +0.145 HD
ENDBRANCH  26  30
ENDBRANCH  24  26
ENDBRANCH  13  24
TORSDOF 4
ENDMDL
MODEL 3
REMARK VINA RESULT:      -9.9      3.883      6.050
REMARK  Name = 124173720
REMARK  4 active torsions:
REMARK  status: ('A' for Active; 'I' for Inactive)
REMARK    1  A    between atoms: C_13  and  N_24
REMARK    2  A    between atoms: C_18  and  C_23
REMARK    3  A    between atoms: N_24  and  C_26
REMARK    4  A    between atoms: C_26  and  C_30
REMARK                            x       y       z     vdW  Elec       q    Type
REMARK                         _______ _______ _______ _____ _____    ______ ____
ROOT
ATOM      1  O   UNL     1      31.440 -22.297 -16.798  0.00  0.00    -0.473 OA
ATOM      2  N   UNL     1      33.935 -22.924 -15.191  0.00  0.00    -0.272 N 
ATOM      3  N   UNL     1      33.497 -23.816 -13.223  0.00  0.00    -0.374 NA
ATOM      4  C   UNL     1      34.839 -23.578 -13.325  0.00  0.00    +0.190 C 
ATOM      5  C   UNL     1      32.945 -23.411 -14.361  0.00  0.00    +0.188 C 
ATOM      6  C   UNL     1      33.814 -22.387 -16.531  0.00  0.00    +0.141 C 
ATOM      7  C   UNL     1      35.137 -23.020 -14.539  0.00  0.00    +0.169 C 
ATOM      8  C   UNL     1      31.496 -23.494 -14.637  0.00  0.00    +0.078 C 
ATOM      9  C   UNL     1      32.620 -22.930 -17.283  0.00  0.00    +0.227 C 
ATOM     10  C   UNL     1      30.842 -22.959 -15.759  0.00  0.00    +0.144 C 
ATOM     11  C   UNL     1      30.691 -24.134 -13.669  0.00  0.00    +0.008 C 
ATOM     12  C   UNL     1      29.442 -23.021 -15.872  0.00  0.00    +0.051 C 
ATOM     13  C   UNL     1      28.676 -23.654 -14.899  0.00  0.00    +0.048 C 
ATOM     14  C   UNL     1      29.303 -24.217 -13.797  0.00  0.00    +0.015 C 
ATOM     15  O   UNL     1      36.521 -24.433 -10.281  0.00  0.00    -0.432 OA
ATOM     16  O   UNL     1      34.326 -24.896 -10.737  0.00  0.00    -0.226 OA
ATOM     17  N   UNL     1      35.731 -23.870 -12.323  0.00  0.00    -0.194 N 
ATOM     18  C   UNL     1      37.158 -23.639 -12.374  0.00  0.00    +0.195 C 
ATOM     19  C   UNL     1      37.514 -23.609 -10.901  0.00  0.00    +0.236 C 
ATOM     20  C   UNL     1      35.406 -24.441 -11.089  0.00  0.00    +0.411 C 
ENDROOT
BRANCH  18  23
ATOM     21  F   UNL     1      38.231 -24.320 -14.339  0.00  0.00    -0.196 F 
ATOM     22  F   UNL     1      39.026 -25.047 -12.448  0.00  0.00    -0.196 F 
ATOM     23  C   UNL     1      37.887 -24.761 -13.112  0.00  0.00    +0.340 C 
ENDBRANCH  18  23
BRANCH  13  24
ATOM     24  N   UNL     1      27.274 -23.722 -15.032  0.00  0.00    -0.327 N 
ATOM     25  H   UNL     1      26.855 -24.606 -15.134  0.00  0.00    +0.147 HD
BRANCH  24  26
ATOM     26  C   UNL     1      26.435 -22.563 -15.025  0.00  0.00    +0.146 C 
ATOM     27  C   UNL     1      27.135 -21.434 -14.283  0.00  0.00    +0.031 C 
BRANCH  26  30
ATOM     28  O   UNL     1      26.353 -22.879 -17.429  0.00  0.00    -0.274 OA
ATOM     29  N   UNL     1      25.571 -20.905 -16.556  0.00  0.00    -0.327 N 
ATOM     30  C   UNL     1      26.129 -22.160 -16.457  0.00  0.00    +0.237 C 
ATOM     31  H   UNL     1      25.332 -20.539 -17.438  0.00  0.00    +0.145 HD
ATOM     32  H   UNL     1      25.411 -20.371 -15.743  0.00  0.00    +0.145 HD
ENDBRANCH  26  30
ENDBRANCH  24  26
ENDBRANCH  13  24
TORSDOF 4
ENDMDL
MODEL 4
REMARK VINA RESULT:      -9.4      4.036      8.674
REMARK  Name = 124173720
REMARK  4 active torsions:
REMARK  status: ('A' for Active; 'I' for Inactive)
REMARK    1  A    between atoms: C_13  and  N_24
REMARK    2  A    between atoms: C_18  and  C_23
REMARK    3  A    between atoms: N_24  and  C_26
REMARK    4  A    between atoms: C_26  and  C_30
REMARK                            x       y       z     vdW  Elec       q    Type
REMARK                         _______ _______ _______ _____ _____    ______ ____
ROOT
ATOM      1  O   UNL     1      35.400 -23.400 -14.987  0.00  0.00    -0.473 OA
ATOM      2  N   UNL     1      35.360 -21.557 -17.394  0.00  0.00    -0.272 N 
ATOM      3  N   UNL     1      33.341 -21.271 -18.235  0.00  0.00    -0.374 NA
ATOM      4  C   UNL     1      34.258 -20.657 -19.039  0.00  0.00    +0.190 C 
ATOM      5  C   UNL     1      34.015 -21.826 -17.233  0.00  0.00    +0.188 C 
ATOM      6  C   UNL     1      36.470 -21.943 -16.550  0.00  0.00    +0.141 C 
ATOM      7  C   UNL     1      35.522 -20.822 -18.541  0.00  0.00    +0.169 C 
ATOM      8  C   UNL     1      33.372 -22.595 -16.147  0.00  0.00    +0.078 C 
ATOM      9  C   UNL     1      36.075 -22.152 -15.106  0.00  0.00    +0.227 C 
ATOM     10  C   UNL     1      34.043 -23.315 -15.144  0.00  0.00    +0.144 C 
ATOM     11  C   UNL     1      31.962 -22.643 -16.140  0.00  0.00    +0.008 C 
ATOM     12  C   UNL     1      33.325 -24.086 -14.213  0.00  0.00    +0.051 C 
ATOM     13  C   UNL     1      31.935 -24.118 -14.235  0.00  0.00    +0.048 C 
ATOM     14  C   UNL     1      31.251 -23.390 -15.197  0.00  0.00    +0.015 C 
ATOM     15  O   UNL     1      32.677 -19.236 -21.922  0.00  0.00    -0.432 OA
ATOM     16  O   UNL     1      31.569 -20.129 -20.129  0.00  0.00    -0.226 OA
ATOM     17  N   UNL     1      33.918 -19.980 -20.185  0.00  0.00    -0.194 N 
ATOM     18  C   UNL     1      34.843 -19.314 -21.074  0.00  0.00    +0.195 C 
ATOM     19  C   UNL     1      34.041 -19.253 -22.358  0.00  0.00    +0.236 C 
ATOM     20  C   UNL     1      32.619 -19.822 -20.677  0.00  0.00    +0.411 C 
ENDROOT
BRANCH  18  23
ATOM     21  F   UNL     1      36.479 -17.947 -20.109  0.00  0.00    -0.196 F 
ATOM     22  F   UNL     1      35.171 -17.058 -21.605  0.00  0.00    -0.196 F 
ATOM     23  C   UNL     1      35.211 -17.920 -20.568  0.00  0.00    +0.340 C 
ENDBRANCH  18  23
BRANCH  13  24
ATOM     24  N   UNL     1      31.228 -24.884 -13.286  0.00  0.00    -0.327 N 
ATOM     25  H   UNL     1      31.568 -25.778 -13.057  0.00  0.00    +0.147 HD
BRANCH  24  26
ATOM     26  C   UNL     1      30.037 -24.419 -12.642  0.00  0.00    +0.146 C 
ATOM     27  C   UNL     1      30.195 -22.948 -12.285  0.00  0.00    +0.031 C 
BRANCH  26  30
ATOM     28  O   UNL     1      28.271 -23.708 -14.146  0.00  0.00    -0.274 OA
ATOM     29  N   UNL     1      28.504 -25.951 -13.711  0.00  0.00    -0.327 N 
ATOM     30  C   UNL     1      28.854 -24.625 -13.572  0.00  0.00    +0.237 C 
ATOM     31  H   UNL     1      27.749 -26.203 -14.291  0.00  0.00    +0.145 HD
ATOM     32  H   UNL     1      29.008 -26.647 -13.230  0.00  0.00    +0.145 HD
ENDBRANCH  26  30
ENDBRANCH  24  26
ENDBRANCH  13  24
TORSDOF 4
ENDMDL
MODEL 5
REMARK VINA RESULT:      -9.3      9.460     14.750
REMARK  Name = 124173720
REMARK  4 active torsions:
REMARK  status: ('A' for Active; 'I' for Inactive)
REMARK    1  A    between atoms: C_13  and  N_24
REMARK    2  A    between atoms: C_18  and  C_23
REMARK    3  A    between atoms: N_24  and  C_26
REMARK    4  A    between atoms: C_26  and  C_30
REMARK                            x       y       z     vdW  Elec       q    Type
REMARK                         _______ _______ _______ _____ _____    ______ ____
ROOT
ATOM      1  O   UNL     1      32.023 -13.175 -20.049  0.00  0.00    -0.473 OA
ATOM      2  N   UNL     1      31.525 -10.316 -20.929  0.00  0.00    -0.272 N 
ATOM      3  N   UNL     1      32.473  -9.825 -22.859  0.00  0.00    -0.374 NA
ATOM      4  C   UNL     1      31.922  -8.695 -22.323  0.00  0.00    +0.190 C 
ATOM      5  C   UNL     1      32.234 -10.814 -22.004  0.00  0.00    +0.188 C 
ATOM      6  C   UNL     1      31.033 -11.018 -19.762  0.00  0.00    +0.141 C 
ATOM      7  C   UNL     1      31.329  -8.973 -21.121  0.00  0.00    +0.169 C 
ATOM      8  C   UNL     1      32.682 -12.205 -22.224  0.00  0.00    +0.078 C 
ATOM      9  C   UNL     1      30.777 -12.486 -20.016  0.00  0.00    +0.227 C 
ATOM     10  C   UNL     1      32.580 -13.255 -21.297  0.00  0.00    +0.144 C 
ATOM     11  C   UNL     1      33.303 -12.494 -23.458  0.00  0.00    +0.008 C 
ATOM     12  C   UNL     1      33.124 -14.520 -21.583  0.00  0.00    +0.051 C 
ATOM     13  C   UNL     1      33.734 -14.773 -22.807  0.00  0.00    +0.048 C 
ATOM     14  C   UNL     1      33.819 -13.759 -23.750  0.00  0.00    +0.015 C 
ATOM     15  O   UNL     1      32.600  -5.845 -24.384  0.00  0.00    -0.432 OA
ATOM     16  O   UNL     1      33.052  -8.014 -24.961  0.00  0.00    -0.226 OA
ATOM     17  N   UNL     1      31.980  -7.468 -22.937  0.00  0.00    -0.194 N 
ATOM     18  C   UNL     1      31.419  -6.241 -22.418  0.00  0.00    +0.195 C 
ATOM     19  C   UNL     1      32.227  -5.197 -23.164  0.00  0.00    +0.236 C 
ATOM     20  C   UNL     1      32.591  -7.205 -24.166  0.00  0.00    +0.411 C 
ENDROOT
BRANCH  18  23
ATOM     21  F   UNL     1      29.253  -6.022 -21.559  0.00  0.00    -0.196 F 
ATOM     22  F   UNL     1      29.711  -4.993 -23.421  0.00  0.00    -0.196 F 
ATOM     23  C   UNL     1      29.926  -6.127 -22.722  0.00  0.00    +0.340 C 
ENDBRANCH  18  23
BRANCH  13  24
ATOM     24  N   UNL     1      34.262 -16.050 -23.086  0.00  0.00    -0.327 N 
ATOM     25  H   UNL     1      34.951 -16.130 -23.784  0.00  0.00    +0.147 HD
BRANCH  24  26
ATOM     26  C   UNL     1      33.841 -17.233 -22.401  0.00  0.00    +0.146 C 
ATOM     27  C   UNL     1      33.633 -18.356 -23.407  0.00  0.00    +0.031 C 
BRANCH  26  30
ATOM     28  O   UNL     1      34.750 -17.459 -20.163  0.00  0.00    -0.274 OA
ATOM     29  N   UNL     1      36.024 -18.162 -21.940  0.00  0.00    -0.327 N 
ATOM     30  C   UNL     1      34.892 -17.616 -21.374  0.00  0.00    +0.237 C 
ATOM     31  H   UNL     1      36.773 -18.447 -21.369  0.00  0.00    +0.145 HD
ATOM     32  H   UNL     1      36.084 -18.267 -22.918  0.00  0.00    +0.145 HD
ENDBRANCH  26  30
ENDBRANCH  24  26
ENDBRANCH  13  24
TORSDOF 4
ENDMDL
MODEL 6
REMARK VINA RESULT:      -9.2      7.840     12.059
REMARK  Name = 124173720
REMARK  4 active torsions:
REMARK  status: ('A' for Active; 'I' for Inactive)
REMARK    1  A    between atoms: C_13  and  N_24
REMARK    2  A    between atoms: C_18  and  C_23
REMARK    3  A    between atoms: N_24  and  C_26
REMARK    4  A    between atoms: C_26  and  C_30
REMARK                            x       y       z     vdW  Elec       q    Type
REMARK                         _______ _______ _______ _____ _____    ______ ____
ROOT
ATOM      1  O   UNL     1      32.756 -11.351 -25.513  0.00  0.00    -0.473 OA
ATOM      2  N   UNL     1      33.370 -14.122 -24.446  0.00  0.00    -0.272 N 
ATOM      3  N   UNL     1      33.465 -14.202 -22.244  0.00  0.00    -0.374 NA
ATOM      4  C   UNL     1      33.832 -15.414 -22.759  0.00  0.00    +0.190 C 
ATOM      5  C   UNL     1      33.188 -13.412 -23.275  0.00  0.00    +0.188 C 
ATOM      6  C   UNL     1      33.178 -13.685 -25.812  0.00  0.00    +0.141 C 
ATOM      7  C   UNL     1      33.785 -15.390 -24.126  0.00  0.00    +0.169 C 
ATOM      8  C   UNL     1      32.757 -12.007 -23.130  0.00  0.00    +0.078 C 
ATOM      9  C   UNL     1      32.163 -12.572 -25.943  0.00  0.00    +0.227 C 
ATOM     10  C   UNL     1      32.584 -11.089 -24.180  0.00  0.00    +0.144 C 
ATOM     11  C   UNL     1      32.538 -11.532 -21.819  0.00  0.00    +0.008 C 
ATOM     12  C   UNL     1      32.257  -9.747 -23.914  0.00  0.00    +0.051 C 
ATOM     13  C   UNL     1      32.052  -9.309 -22.611  0.00  0.00    +0.048 C 
ATOM     14  C   UNL     1      32.187 -10.205 -21.560  0.00  0.00    +0.015 C 
ATOM     15  O   UNL     1      34.805 -17.666 -20.149  0.00  0.00    -0.432 OA
ATOM     16  O   UNL     1      33.844 -15.616 -19.816  0.00  0.00    -0.226 OA
ATOM     17  N   UNL     1      34.197 -16.482 -21.976  0.00  0.00    -0.194 N 
ATOM     18  C   UNL     1      34.596 -17.784 -22.464  0.00  0.00    +0.195 C 
ATOM     19  C   UNL     1      35.378 -18.324 -21.284  0.00  0.00    +0.236 C 
ATOM     20  C   UNL     1      34.239 -16.487 -20.579  0.00  0.00    +0.411 C 
ENDROOT
BRANCH  18  23
ATOM     21  F   UNL     1      33.747 -19.554 -23.737  0.00  0.00    -0.196 F 
ATOM     22  F   UNL     1      33.039 -19.351 -21.689  0.00  0.00    -0.196 F 
ATOM     23  C   UNL     1      33.389 -18.660 -22.794  0.00  0.00    +0.340 C 
ENDBRANCH  18  23
BRANCH  13  24
ATOM     24  N   UNL     1      31.710  -7.965 -22.359  0.00  0.00    -0.327 N 
ATOM     25  H   UNL     1      30.814  -7.652 -22.616  0.00  0.00    +0.147 HD
BRANCH  24  26
ATOM     26  C   UNL     1      32.609  -7.035 -21.748  0.00  0.00    +0.146 C 
ATOM     27  C   UNL     1      32.884  -5.887 -22.708  0.00  0.00    +0.031 C 
BRANCH  26  30
ATOM     28  O   UNL     1      31.192  -5.594 -20.406  0.00  0.00    -0.274 OA
ATOM     29  N   UNL     1      32.428  -7.212 -19.344  0.00  0.00    -0.327 N 
ATOM     30  C   UNL     1      31.995  -6.523 -20.456  0.00  0.00    +0.237 C 
ATOM     31  H   UNL     1      32.095  -6.966 -18.451  0.00  0.00    +0.145 HD
ATOM     32  H   UNL     1      33.072  -7.952 -19.442  0.00  0.00    +0.145 HD
ENDBRANCH  26  30
ENDBRANCH  24  26
ENDBRANCH  13  24
TORSDOF 4
ENDMDL
MODEL 7
REMARK VINA RESULT:      -8.9     10.388     15.334
REMARK  Name = 124173720
REMARK  4 active torsions:
REMARK  status: ('A' for Active; 'I' for Inactive)
REMARK    1  A    between atoms: C_13  and  N_24
REMARK    2  A    between atoms: C_18  and  C_23
REMARK    3  A    between atoms: N_24  and  C_26
REMARK    4  A    between atoms: C_26  and  C_30
REMARK                            x       y       z     vdW  Elec       q    Type
REMARK                         _______ _______ _______ _____ _____    ______ ____
ROOT
ATOM      1  O   UNL     1      31.035 -11.922 -19.954  0.00  0.00    -0.473 OA
ATOM      2  N   UNL     1      31.235  -9.293 -21.453  0.00  0.00    -0.272 N 
ATOM      3  N   UNL     1      32.704  -9.342 -23.098  0.00  0.00    -0.374 NA
ATOM      4  C   UNL     1      32.221  -8.071 -22.957  0.00  0.00    +0.190 C 
ATOM      5  C   UNL     1      32.104 -10.087 -22.176  0.00  0.00    +0.188 C 
ATOM      6  C   UNL     1      30.360  -9.665 -20.361  0.00  0.00    +0.141 C 
ATOM      7  C   UNL     1      31.309  -8.013 -21.939  0.00  0.00    +0.169 C 
ATOM      8  C   UNL     1      32.367 -11.530 -21.999  0.00  0.00    +0.078 C 
ATOM      9  C   UNL     1      29.947 -11.118 -20.399  0.00  0.00    +0.227 C 
ATOM     10  C   UNL     1      31.869 -12.333 -20.959  0.00  0.00    +0.144 C 
ATOM     11  C   UNL     1      33.224 -12.148 -22.934  0.00  0.00    +0.008 C 
ATOM     12  C   UNL     1      32.260 -13.679 -20.841  0.00  0.00    +0.051 C 
ATOM     13  C   UNL     1      33.111 -14.258 -21.776  0.00  0.00    +0.048 C 
ATOM     14  C   UNL     1      33.590 -13.493 -22.829  0.00  0.00    +0.015 C 
ATOM     15  O   UNL     1      33.840  -5.834 -25.239  0.00  0.00    -0.432 OA
ATOM     16  O   UNL     1      34.073  -8.111 -25.253  0.00  0.00    -0.226 OA
ATOM     17  N   UNL     1      32.627  -7.023 -23.747  0.00  0.00    -0.194 N 
ATOM     18  C   UNL     1      32.155  -5.660 -23.643  0.00  0.00    +0.195 C 
ATOM     19  C   UNL     1      33.279  -4.897 -24.314  0.00  0.00    +0.236 C 
ATOM     20  C   UNL     1      33.561  -7.104 -24.783  0.00  0.00    +0.411 C 
ENDROOT
BRANCH  18  23
ATOM     21  F   UNL     1      30.569  -6.563 -25.108  0.00  0.00    -0.196 F 
ATOM     22  F   UNL     1      29.842  -5.356 -23.450  0.00  0.00    -0.196 F 
ATOM     23  C   UNL     1      30.824  -5.465 -24.368  0.00  0.00    +0.340 C 
ENDBRANCH  18  23
BRANCH  13  24
ATOM     24  N   UNL     1      33.483 -15.612 -21.655  0.00  0.00    -0.327 N 
ATOM     25  H   UNL     1      33.040 -16.161 -20.969  0.00  0.00    +0.147 HD
BRANCH  24  26
ATOM     26  C   UNL     1      34.476 -16.223 -22.484  0.00  0.00    +0.146 C 
ATOM     27  C   UNL     1      35.135 -17.368 -21.727  0.00  0.00    +0.031 C 
BRANCH  26  30
ATOM     28  O   UNL     1      33.818 -16.097 -24.815  0.00  0.00    -0.274 OA
ATOM     29  N   UNL     1      33.232 -17.962 -23.611  0.00  0.00    -0.327 N 
ATOM     30  C   UNL     1      33.821 -16.725 -23.759  0.00  0.00    +0.237 C 
ATOM     31  H   UNL     1      32.776 -18.385 -24.374  0.00  0.00    +0.145 HD
ATOM     32  H   UNL     1      33.266 -18.423 -22.741  0.00  0.00    +0.145 HD
ENDBRANCH  26  30
ENDBRANCH  24  26
ENDBRANCH  13  24
TORSDOF 4
ENDMDL
