MODEL 1
REMARK VINA RESULT:     -13.2      0.000      0.000
REMARK  Name = 24794406
REMARK  5 active torsions:
REMARK  status: ('A' for Active; 'I' for Inactive)
REMARK    1  A    between atoms: C_1  and  S_24
REMARK    2  A    between atoms: C_2  and  N_8
REMARK    3  A    between atoms: C_9  and  C_11
REMARK    4  A    between atoms: C_12  and  N_18
REMARK    5  A    between atoms: S_24  and  N_28
REMARK                            x       y       z     vdW  Elec       q    Type
REMARK                         _______ _______ _______ _____ _____    ______ ____
ROOT
ATOM      1  C   UNL     1      31.651 -23.690 -13.757  0.00  0.00    +0.139 C 
ATOM      2  C   UNL     1      30.885 -23.287 -14.851  0.00  0.00    +0.070 C 
ATOM      3  C   UNL     1      31.051 -24.379 -12.702  0.00  0.00    +0.021 C 
ATOM      4  C   UNL     1      29.520 -23.571 -14.889  0.00  0.00    +0.016 C 
ATOM      5  C   UNL     1      29.687 -24.664 -12.742  0.00  0.00    +0.001 C 
ATOM      6  C   UNL     1      28.921 -24.260 -13.836  0.00  0.00    +0.001 C 
ENDROOT
BRANCH   2   8
ATOM      7  O   UNL     1      32.660 -24.264 -17.061  0.00  0.00    -0.270 OA
ATOM      8  N   UNL     1      31.468 -22.586 -15.935  0.00  0.00    -0.279 N 
ATOM      9  C   UNL     1      32.297 -23.082 -16.952  0.00  0.00    +0.250 C 
ATOM     10  H   UNL     1      31.267 -21.623 -15.980  0.00  0.00    +0.155 HD
BRANCH   9  11
ATOM     11  C   UNL     1      32.768 -22.105 -17.919  0.00  0.00    +0.054 C 
ATOM     12  C   UNL     1      33.670 -20.231 -19.779  0.00  0.00    +0.058 C 
ATOM     13  C   UNL     1      31.860 -21.248 -18.543  0.00  0.00    +0.006 C 
ATOM     14  C   UNL     1      34.126 -22.024 -18.227  0.00  0.00    +0.006 C 
ATOM     15  C   UNL     1      32.312 -20.311 -19.472  0.00  0.00    +0.015 C 
ATOM     16  C   UNL     1      34.577 -21.088 -19.156  0.00  0.00    +0.015 C 
BRANCH  12  18
ATOM     17  O   UNL     1      36.097 -18.675 -19.541  0.00  0.00    -0.269 OA
ATOM     18  N   UNL     1      34.139 -19.256 -20.745  0.00  0.00    -0.233 N 
ATOM     19  C   UNL     1      35.370 -18.585 -20.531  0.00  0.00    +0.257 C 
ATOM     20  C   UNL     1      33.375 -18.954 -21.875  0.00  0.00    +0.072 C 
ATOM     21  C   UNL     1      35.803 -17.630 -21.599  0.00  0.00    +0.059 C 
ATOM     22  C   UNL     1      33.768 -18.071 -22.799  0.00  0.00    +0.017 C 
ATOM     23  C   UNL     1      35.023 -17.396 -22.656  0.00  0.00    +0.006 C 
ENDBRANCH  12  18
ENDBRANCH   9  11
ENDBRANCH   2   8
BRANCH   1  24
ATOM     24  S   UNL     1      33.368 -23.353 -13.670  0.00  0.00    +0.076 S 
ATOM     25  O   UNL     1      33.760 -23.434 -12.270  0.00  0.00    -0.150 OA
ATOM     26  O   UNL     1      33.634 -22.127 -14.409  0.00  0.00    -0.150 OA
BRANCH  24  28
ATOM     27 CL   UNL     1      39.745 -25.800 -13.496  0.00  0.00    -0.081 Cl
ATOM     28  N   UNL     1      34.057 -24.693 -14.501  0.00  0.00    -0.199 N 
ATOM     29  N   UNL     1      36.268 -23.949 -14.092  0.00  0.00    -0.227 NA
ATOM     30  C   UNL     1      35.441 -25.006 -14.258  0.00  0.00    +0.147 C 
ATOM     31  C   UNL     1      35.850 -26.328 -14.205  0.00  0.00    +0.036 C 
ATOM     32  C   UNL     1      37.196 -26.583 -13.966  0.00  0.00    +0.016 C 
ATOM     33  C   UNL     1      37.569 -24.237 -13.862  0.00  0.00    +0.112 C 
ATOM     34  C   UNL     1      38.078 -25.523 -13.790  0.00  0.00    +0.077 C 
ATOM     35  H   UNL     1      33.521 -25.232 -15.127  0.00  0.00    +0.175 HD
ENDBRANCH  24  28
ENDBRANCH   1  24
TORSDOF 5
ENDMDL
MODEL 2
REMARK VINA RESULT:     -12.5      1.374      1.907
REMARK  Name = 24794406
REMARK  5 active torsions:
REMARK  status: ('A' for Active; 'I' for Inactive)
REMARK    1  A    between atoms: C_1  and  S_24
REMARK    2  A    between atoms: C_2  and  N_8
REMARK    3  A    between atoms: C_9  and  C_11
REMARK    4  A    between atoms: C_12  and  N_18
REMARK    5  A    between atoms: S_24  and  N_28
REMARK                            x       y       z     vdW  Elec       q    Type
REMARK                         _______ _______ _______ _____ _____    ______ ____
ROOT
ATOM      1  C   UNL     1      32.347 -23.496 -14.280  0.00  0.00    +0.139 C 
ATOM      2  C   UNL     1      31.449 -23.079 -15.263  0.00  0.00    +0.070 C 
ATOM      3  C   UNL     1      31.903 -24.289 -13.222  0.00  0.00    +0.021 C 
ATOM      4  C   UNL     1      30.108 -23.455 -15.187  0.00  0.00    +0.016 C 
ATOM      5  C   UNL     1      30.562 -24.666 -13.147  0.00  0.00    +0.001 C 
ATOM      6  C   UNL     1      29.665 -24.249 -14.131  0.00  0.00    +0.001 C 
ENDROOT
BRANCH   2   8
ATOM      7  O   UNL     1      32.749 -23.843 -17.854  0.00  0.00    -0.270 OA
ATOM      8  N   UNL     1      31.873 -22.272 -16.347  0.00  0.00    -0.279 N 
ATOM      9  C   UNL     1      32.480 -22.671 -17.547  0.00  0.00    +0.250 C 
ATOM     10  H   UNL     1      31.723 -21.305 -16.245  0.00  0.00    +0.155 HD
BRANCH   9  11
ATOM     11  C   UNL     1      32.830 -21.601 -18.467  0.00  0.00    +0.054 C 
ATOM     12  C   UNL     1      33.504 -19.546 -20.230  0.00  0.00    +0.058 C 
ATOM     13  C   UNL     1      34.170 -21.332 -18.745  0.00  0.00    +0.006 C 
ATOM     14  C   UNL     1      31.828 -20.841 -19.069  0.00  0.00    +0.006 C 
ATOM     15  C   UNL     1      34.507 -20.305 -19.627  0.00  0.00    +0.015 C 
ATOM     16  C   UNL     1      32.164 -19.814 -19.950  0.00  0.00    +0.015 C 
BRANCH  12  18
ATOM     17  O   UNL     1      33.818 -19.835 -23.090  0.00  0.00    -0.269 OA
ATOM     18  N   UNL     1      33.853 -18.478 -21.146  0.00  0.00    -0.233 N 
ATOM     19  C   UNL     1      33.939 -18.740 -22.538  0.00  0.00    +0.257 C 
ATOM     20  C   UNL     1      34.131 -17.196 -20.668  0.00  0.00    +0.072 C 
ATOM     21  C   UNL     1      34.260 -17.574 -23.418  0.00  0.00    +0.059 C 
ATOM     22  C   UNL     1      34.449 -16.175 -21.472  0.00  0.00    +0.017 C 
ATOM     23  C   UNL     1      34.507 -16.373 -22.889  0.00  0.00    +0.006 C 
ENDBRANCH  12  18
ENDBRANCH   9  11
ENDBRANCH   2   8
BRANCH   1  24
ATOM     24  S   UNL     1      34.038 -23.045 -14.338  0.00  0.00    +0.076 S 
ATOM     25  O   UNL     1      34.110 -21.594 -14.231  0.00  0.00    -0.150 OA
ATOM     26  O   UNL     1      34.650 -23.700 -15.485  0.00  0.00    -0.150 OA
BRANCH  24  28
ATOM     27 CL   UNL     1      39.965 -26.243 -13.180  0.00  0.00    -0.081 Cl
ATOM     28  N   UNL     1      34.659 -23.724 -12.883  0.00  0.00    -0.199 N 
ATOM     29  N   UNL     1      36.278 -25.006 -14.043  0.00  0.00    -0.227 NA
ATOM     30  C   UNL     1      35.965 -24.326 -12.917  0.00  0.00    +0.147 C 
ATOM     31  C   UNL     1      36.817 -24.187 -11.833  0.00  0.00    +0.036 C 
ATOM     32  C   UNL     1      38.071 -24.783 -11.909  0.00  0.00    +0.016 C 
ATOM     33  C   UNL     1      37.505 -25.572 -14.081  0.00  0.00    +0.112 C 
ATOM     34  C   UNL     1      38.429 -25.491 -13.052  0.00  0.00    +0.077 C 
ATOM     35  H   UNL     1      34.135 -23.702 -12.050  0.00  0.00    +0.175 HD
ENDBRANCH  24  28
ENDBRANCH   1  24
TORSDOF 5
ENDMDL
MODEL 3
REMARK VINA RESULT:     -10.9      3.389      5.716
REMARK  Name = 24794406
REMARK  5 active torsions:
REMARK  status: ('A' for Active; 'I' for Inactive)
REMARK    1  A    between atoms: C_1  and  S_24
REMARK    2  A    between atoms: C_2  and  N_8
REMARK    3  A    between atoms: C_9  and  C_11
REMARK    4  A    between atoms: C_12  and  N_18
REMARK    5  A    between atoms: S_24  and  N_28
REMARK                            x       y       z     vdW  Elec       q    Type
REMARK                         _______ _______ _______ _____ _____    ______ ____
ROOT
ATOM      1  C   UNL     1      34.221 -22.942 -15.779  0.00  0.00    +0.139 C 
ATOM      2  C   UNL     1      35.211 -22.064 -16.220  0.00  0.00    +0.070 C 
ATOM      3  C   UNL     1      34.483 -23.812 -14.719  0.00  0.00    +0.021 C 
ATOM      4  C   UNL     1      36.462 -22.056 -15.604  0.00  0.00    +0.016 C 
ATOM      5  C   UNL     1      35.734 -23.802 -14.102  0.00  0.00    +0.001 C 
ATOM      6  C   UNL     1      36.723 -22.924 -14.545  0.00  0.00    +0.001 C 
ENDROOT
BRANCH   2   8
ATOM      7  O   UNL     1      35.147 -22.562 -19.176  0.00  0.00    -0.270 OA
ATOM      8  N   UNL     1      34.972 -21.172 -17.294  0.00  0.00    -0.279 N 
ATOM      9  C   UNL     1      34.952 -21.446 -18.669  0.00  0.00    +0.250 C 
ATOM     10  H   UNL     1      34.798 -20.236 -17.043  0.00  0.00    +0.155 HD
BRANCH   9  11
ATOM     11  C   UNL     1      34.704 -20.308 -19.539  0.00  0.00    +0.054 C 
ATOM     12  C   UNL     1      34.231 -18.123 -21.208  0.00  0.00    +0.058 C 
ATOM     13  C   UNL     1      35.760 -19.481 -19.923  0.00  0.00    +0.006 C 
ATOM     14  C   UNL     1      33.412 -20.041 -19.990  0.00  0.00    +0.006 C 
ATOM     15  C   UNL     1      35.523 -18.388 -20.757  0.00  0.00    +0.015 C 
ATOM     16  C   UNL     1      33.175 -18.949 -20.824  0.00  0.00    +0.015 C 
BRANCH  12  18
ATOM     17  O   UNL     1      33.924 -15.384 -20.330  0.00  0.00    -0.269 OA
ATOM     18  N   UNL     1      33.984 -16.987 -22.075  0.00  0.00    -0.233 N 
ATOM     19  C   UNL     1      33.892 -15.683 -21.525  0.00  0.00    +0.257 C 
ATOM     20  C   UNL     1      33.813 -17.169 -23.450  0.00  0.00    +0.072 C 
ATOM     21  C   UNL     1      33.683 -14.563 -22.494  0.00  0.00    +0.059 C 
ATOM     22  C   UNL     1      33.593 -16.154 -24.293  0.00  0.00    +0.017 C 
ATOM     23  C   UNL     1      33.534 -14.812 -23.797  0.00  0.00    +0.006 C 
ENDBRANCH  12  18
ENDBRANCH   9  11
ENDBRANCH   2   8
BRANCH   1  24
ATOM     24  S   UNL     1      32.637 -22.984 -16.526  0.00  0.00    +0.076 S 
ATOM     25  O   UNL     1      32.681 -23.975 -17.593  0.00  0.00    -0.150 OA
ATOM     26  O   UNL     1      32.243 -21.620 -16.845  0.00  0.00    -0.150 OA
BRANCH  24  28
ATOM     27 CL   UNL     1      25.900 -22.363 -15.576  0.00  0.00    -0.081 Cl
ATOM     28  N   UNL     1      31.641 -23.596 -15.263  0.00  0.00    -0.199 N 
ATOM     29  N   UNL     1      29.869 -22.117 -15.795  0.00  0.00    -0.227 NA
ATOM     30  C   UNL     1      30.228 -23.332 -15.323  0.00  0.00    +0.147 C 
ATOM     31  C   UNL     1      29.328 -24.301 -14.910  0.00  0.00    +0.036 C 
ATOM     32  C   UNL     1      27.971 -24.004 -14.988  0.00  0.00    +0.016 C 
ATOM     33  C   UNL     1      28.543 -21.865 -15.856  0.00  0.00    +0.112 C 
ATOM     34  C   UNL     1      27.563 -22.765 -15.469  0.00  0.00    +0.077 C 
ATOM     35  H   UNL     1      32.027 -24.112 -14.518  0.00  0.00    +0.175 HD
ENDBRANCH  24  28
ENDBRANCH   1  24
TORSDOF 5
ENDMDL
MODEL 4
REMARK VINA RESULT:     -10.7     12.528     17.857
REMARK  Name = 24794406
REMARK  5 active torsions:
REMARK  status: ('A' for Active; 'I' for Inactive)
REMARK    1  A    between atoms: C_1  and  S_24
REMARK    2  A    between atoms: C_2  and  N_8
REMARK    3  A    between atoms: C_9  and  C_11
REMARK    4  A    between atoms: C_12  and  N_18
REMARK    5  A    between atoms: S_24  and  N_28
REMARK                            x       y       z     vdW  Elec       q    Type
REMARK                         _______ _______ _______ _____ _____    ______ ____
ROOT
ATOM      1  C   UNL     1      31.720  -3.781 -24.533  0.00  0.00    +0.139 C 
ATOM      2  C   UNL     1      32.769  -4.542 -25.048  0.00  0.00    +0.070 C 
ATOM      3  C   UNL     1      31.672  -2.407 -24.771  0.00  0.00    +0.021 C 
ATOM      4  C   UNL     1      33.771  -3.929 -25.801  0.00  0.00    +0.016 C 
ATOM      5  C   UNL     1      32.674  -1.795 -25.525  0.00  0.00    +0.001 C 
ATOM      6  C   UNL     1      33.723  -2.557 -26.040  0.00  0.00    +0.001 C 
ENDROOT
BRANCH   2   8
ATOM      7  O   UNL     1      34.534  -6.115 -23.205  0.00  0.00    -0.270 OA
ATOM      8  N   UNL     1      32.842  -5.938 -24.821  0.00  0.00    -0.279 N 
ATOM      9  C   UNL     1      33.686  -6.637 -23.946  0.00  0.00    +0.250 C 
ATOM     10  H   UNL     1      32.219  -6.491 -25.346  0.00  0.00    +0.155 HD
BRANCH   9  11
ATOM     11  C   UNL     1      33.547  -8.084 -23.951  0.00  0.00    +0.054 C 
ATOM     12  C   UNL     1      33.282 -10.862 -23.965  0.00  0.00    +0.058 C 
ATOM     13  C   UNL     1      34.503  -8.873 -24.593  0.00  0.00    +0.006 C 
ATOM     14  C   UNL     1      32.460  -8.685 -23.318  0.00  0.00    +0.006 C 
ATOM     15  C   UNL     1      34.370 -10.262 -24.600  0.00  0.00    +0.015 C 
ATOM     16  C   UNL     1      32.327 -10.073 -23.325  0.00  0.00    +0.015 C 
BRANCH  12  18
ATOM     17  O   UNL     1      32.202 -12.428 -26.144  0.00  0.00    -0.269 OA
ATOM     18  N   UNL     1      33.144 -12.305 -23.972  0.00  0.00    -0.233 N 
ATOM     19  C   UNL     1      32.634 -12.962 -25.121  0.00  0.00    +0.257 C 
ATOM     20  C   UNL     1      33.488 -13.055 -22.844  0.00  0.00    +0.072 C 
ATOM     21  C   UNL     1      32.568 -14.455 -25.062  0.00  0.00    +0.059 C 
ATOM     22  C   UNL     1      33.388 -14.388 -22.804  0.00  0.00    +0.017 C 
ATOM     23  C   UNL     1      32.920 -15.106 -23.951  0.00  0.00    +0.006 C 
ENDBRANCH  12  18
ENDBRANCH   9  11
ENDBRANCH   2   8
BRANCH   1  24
ATOM     24  S   UNL     1      30.442  -4.512 -23.582  0.00  0.00    +0.076 S 
ATOM     25  O   UNL     1      30.280  -5.883 -24.046  0.00  0.00    -0.150 OA
ATOM     26  O   UNL     1      29.291  -3.621 -23.596  0.00  0.00    -0.150 OA
BRANCH  24  28
ATOM     27 CL   UNL     1      31.075  -9.739 -19.228  0.00  0.00    -0.081 Cl
ATOM     28  N   UNL     1      31.125  -4.554 -22.003  0.00  0.00    -0.199 N 
ATOM     29  N   UNL     1      30.075  -6.614 -21.486  0.00  0.00    -0.227 NA
ATOM     30  C   UNL     1      31.151  -5.814 -21.307  0.00  0.00    +0.147 C 
ATOM     31  C   UNL     1      32.237  -6.140 -20.512  0.00  0.00    +0.036 C 
ATOM     32  C   UNL     1      32.220  -7.368 -19.860  0.00  0.00    +0.016 C 
ATOM     33  C   UNL     1      30.095  -7.799 -20.836  0.00  0.00    +0.112 C 
ATOM     34  C   UNL     1      31.132  -8.219 -20.020  0.00  0.00    +0.077 C 
ATOM     35  H   UNL     1      31.488  -3.740 -21.586  0.00  0.00    +0.175 HD
ENDBRANCH  24  28
ENDBRANCH   1  24
TORSDOF 5
ENDMDL
MODEL 5
REMARK VINA RESULT:     -10.4     11.064     16.364
REMARK  Name = 24794406
REMARK  5 active torsions:
REMARK  status: ('A' for Active; 'I' for Inactive)
REMARK    1  A    between atoms: C_1  and  S_24
REMARK    2  A    between atoms: C_2  and  N_8
REMARK    3  A    between atoms: C_9  and  C_11
REMARK    4  A    between atoms: C_12  and  N_18
REMARK    5  A    between atoms: S_24  and  N_28
REMARK                            x       y       z     vdW  Elec       q    Type
REMARK                         _______ _______ _______ _____ _____    ______ ____
ROOT
ATOM      1  C   UNL     1      31.653  -6.757 -21.176  0.00  0.00    +0.139 C 
ATOM      2  C   UNL     1      31.458  -7.787 -20.256  0.00  0.00    +0.070 C 
ATOM      3  C   UNL     1      31.321  -5.445 -20.836  0.00  0.00    +0.021 C 
ATOM      4  C   UNL     1      30.928  -7.505 -18.997  0.00  0.00    +0.016 C 
ATOM      5  C   UNL     1      30.793  -5.164 -19.576  0.00  0.00    +0.001 C 
ATOM      6  C   UNL     1      30.597  -6.195 -18.656  0.00  0.00    +0.001 C 
ENDROOT
BRANCH   2   8
ATOM      7  O   UNL     1      29.687 -10.174 -20.652  0.00  0.00    -0.270 OA
ATOM      8  N   UNL     1      31.786  -9.127 -20.576  0.00  0.00    -0.279 N 
ATOM      9  C   UNL     1      30.924 -10.219 -20.752  0.00  0.00    +0.250 C 
ATOM     10  H   UNL     1      32.745  -9.318 -20.688  0.00  0.00    +0.155 HD
BRANCH   9  11
ATOM     11  C   UNL     1      31.563 -11.490 -21.051  0.00  0.00    +0.054 C 
ATOM     12  C   UNL     1      32.789 -13.929 -21.626  0.00  0.00    +0.058 C 
ATOM     13  C   UNL     1      32.289 -11.645 -22.232  0.00  0.00    +0.006 C 
ATOM     14  C   UNL     1      31.450 -12.555 -20.158  0.00  0.00    +0.006 C 
ATOM     15  C   UNL     1      32.901 -12.864 -22.519  0.00  0.00    +0.015 C 
ATOM     16  C   UNL     1      32.062 -13.775 -20.445  0.00  0.00    +0.015 C 
BRANCH  12  18
ATOM     17  O   UNL     1      32.850 -15.199 -24.224  0.00  0.00    -0.269 OA
ATOM     18  N   UNL     1      33.426 -15.197 -21.924  0.00  0.00    -0.233 N 
ATOM     19  C   UNL     1      33.421 -15.696 -23.252  0.00  0.00    +0.257 C 
ATOM     20  C   UNL     1      34.027 -15.945 -20.908  0.00  0.00    +0.072 C 
ATOM     21  C   UNL     1      34.141 -16.988 -23.482  0.00  0.00    +0.059 C 
ATOM     22  C   UNL     1      34.636 -17.114 -21.133  0.00  0.00    +0.017 C 
ATOM     23  C   UNL     1      34.698 -17.645 -22.462  0.00  0.00    +0.006 C 
ENDBRANCH  12  18
ENDBRANCH   9  11
ENDBRANCH   2   8
BRANCH   1  24
ATOM     24  S   UNL     1      32.315  -7.068 -22.768  0.00  0.00    +0.076 S 
ATOM     25  O   UNL     1      31.197  -7.315 -23.668  0.00  0.00    -0.150 OA
ATOM     26  O   UNL     1      33.358  -8.077 -22.644  0.00  0.00    -0.150 OA
BRANCH  24  28
ATOM     27 CL   UNL     1      34.347  -4.717 -28.853  0.00  0.00    -0.081 Cl
ATOM     28  N   UNL     1      33.019  -5.554 -23.186  0.00  0.00    -0.199 N 
ATOM     29  N   UNL     1      33.798  -6.367 -25.269  0.00  0.00    -0.227 NA
ATOM     30  C   UNL     1      33.333  -5.308 -24.568  0.00  0.00    +0.147 C 
ATOM     31  C   UNL     1      33.151  -4.043 -25.102  0.00  0.00    +0.036 C 
ATOM     32  C   UNL     1      33.466  -3.852 -26.444  0.00  0.00    +0.016 C 
ATOM     33  C   UNL     1      34.093  -6.142 -26.570  0.00  0.00    +0.112 C 
ATOM     34  C   UNL     1      33.946  -4.917 -27.198  0.00  0.00    +0.077 C 
ATOM     35  H   UNL     1      33.203  -4.874 -22.498  0.00  0.00    +0.175 HD
ENDBRANCH  24  28
ENDBRANCH   1  24
TORSDOF 5
ENDMDL
