MODEL 1
REMARK VINA RESULT:     -12.8      0.000      0.000
REMARK  Name = 11840906
REMARK  7 active torsions:
REMARK  status: ('A' for Active; 'I' for Inactive)
REMARK    1  A    between atoms: O_1  and  C_3
REMARK    2  A    between atoms: O_1  and  C_18
REMARK    3  A    between atoms: C_5  and  C_9
REMARK    4  A    between atoms: C_18  and  C_19
REMARK    5  A    between atoms: C_19  and  N_20
REMARK    6  A    between atoms: C_19  and  C_24
REMARK    7  A    between atoms: C_24  and  C_26
REMARK                            x       y       z     vdW  Elec       q    Type
REMARK                         _______ _______ _______ _____ _____    ______ ____
ROOT
ATOM      1  O   UNL     1      34.558 -14.863 -22.885  0.00  0.00    -0.476 OA
ENDROOT
BRANCH   1   3
ATOM      2  N   UNL     1      33.198 -17.994 -24.161  0.00  0.00    -0.239 NA
ATOM      3  C   UNL     1      34.183 -16.181 -22.926  0.00  0.00    +0.158 C 
ATOM      4  C   UNL     1      34.395 -17.005 -21.836  0.00  0.00    +0.040 C 
ATOM      5  C   UNL     1      34.004 -18.338 -21.908  0.00  0.00    +0.022 C 
ATOM      6  C   UNL     1      33.591 -16.705 -24.055  0.00  0.00    +0.136 C 
ATOM      7  C   UNL     1      33.415 -18.779 -23.081  0.00  0.00    +0.099 C 
BRANCH   5   9
ATOM      8  N   UNL     1      33.711 -22.503 -16.958  0.00  0.00    -0.242 NA
ATOM      9  C   UNL     1      34.205 -19.233 -20.793  0.00  0.00    +0.002 C 
ATOM     10  C   UNL     1      33.294 -20.764 -19.132  0.00  0.00    +0.003 C 
ATOM     11  C   UNL     1      33.114 -19.892 -20.218  0.00  0.00    +0.000 C 
ATOM     12  C   UNL     1      34.593 -20.970 -18.625  0.00  0.00    +0.019 C 
ATOM     13  C   UNL     1      35.487 -19.439 -20.286  0.00  0.00    +0.000 C 
ATOM     14  C   UNL     1      35.684 -20.303 -19.208  0.00  0.00    +0.002 C 
ATOM     15  C   UNL     1      32.221 -21.438 -18.538  0.00  0.00    +0.021 C 
ATOM     16  C   UNL     1      34.734 -21.844 -17.546  0.00  0.00    +0.099 C 
ATOM     17  C   UNL     1      32.481 -22.283 -17.471  0.00  0.00    +0.099 C 
ENDBRANCH   5   9
ENDBRANCH   1   3
BRANCH   1  18
ATOM     18  C   UNL     1      33.647 -13.957 -22.276  0.00  0.00    +0.184 C 
BRANCH  18  19
ATOM     19  C   UNL     1      33.112 -12.976 -23.325  0.00  0.00    -0.021 C 
BRANCH  19  20
ATOM     20  N   UNL     1      31.962 -13.586 -23.992  0.00  0.00    +0.384 N 
ATOM     21  H   UNL     1      32.267 -14.413 -24.507  0.00  0.00    -0.089 HD
ATOM     22  H   UNL     1      31.549 -12.916 -24.641  0.00  0.00    -0.089 HD
ATOM     23  H   UNL     1      31.268 -13.857 -23.295  0.00  0.00    -0.089 HD
ENDBRANCH  19  20
BRANCH  19  24
ATOM     24  C   UNL     1      32.729 -11.623 -22.687  0.00  0.00    -0.012 C 
BRANCH  24  26
ATOM     25  N   UNL     1      34.722  -9.291 -24.281  0.00  0.00    -0.270 NA
ATOM     26  C   UNL     1      32.730 -10.462 -23.663  0.00  0.00    +0.046 C 
ATOM     27  C   UNL     1      32.775  -9.118 -23.010  0.00  0.00    -0.007 C 
ATOM     28  C   UNL     1      34.049 -10.392 -24.427  0.00  0.00    +0.130 C 
ATOM     29  C   UNL     1      33.958  -8.487 -23.415  0.00  0.00    +0.071 C 
ATOM     30  C   UNL     1      31.878  -8.501 -22.161  0.00  0.00    -0.024 C 
ATOM     31  C   UNL     1      34.271  -7.215 -22.967  0.00  0.00    +0.014 C 
ATOM     32  C   UNL     1      32.187  -7.218 -21.705  0.00  0.00    +0.052 C 
ATOM     33  C   UNL     1      33.374  -6.581 -22.104  0.00  0.00    -0.020 C 
ENDBRANCH  24  26
ENDBRANCH  19  24
ENDBRANCH  18  19
ENDBRANCH   1  18
TORSDOF 7
ENDMDL
MODEL 2
REMARK VINA RESULT:     -12.3      3.208     11.907
REMARK  Name = 11840906
REMARK  7 active torsions:
REMARK  status: ('A' for Active; 'I' for Inactive)
REMARK    1  A    between atoms: O_1  and  C_3
REMARK    2  A    between atoms: O_1  and  C_18
REMARK    3  A    between atoms: C_5  and  C_9
REMARK    4  A    between atoms: C_18  and  C_19
REMARK    5  A    between atoms: C_19  and  N_20
REMARK    6  A    between atoms: C_19  and  C_24
REMARK    7  A    between atoms: C_24  and  C_26
REMARK                            x       y       z     vdW  Elec       q    Type
REMARK                         _______ _______ _______ _____ _____    ______ ____
ROOT
ATOM      1  O   UNL     1      33.710 -21.435 -19.264  0.00  0.00    -0.476 OA
ENDROOT
BRANCH   1   3
ATOM      2  N   UNL     1      36.482 -19.088 -19.576  0.00  0.00    -0.239 NA
ATOM      3  C   UNL     1      34.441 -20.357 -19.692  0.00  0.00    +0.158 C 
ATOM      4  C   UNL     1      33.922 -19.482 -20.629  0.00  0.00    +0.040 C 
ATOM      5  C   UNL     1      34.688 -18.399 -21.044  0.00  0.00    +0.022 C 
ATOM      6  C   UNL     1      35.708 -20.130 -19.197  0.00  0.00    +0.136 C 
ATOM      7  C   UNL     1      35.950 -18.248 -20.492  0.00  0.00    +0.099 C 
BRANCH   5   9
ATOM      8  N   UNL     1      32.679 -13.360 -24.581  0.00  0.00    -0.242 NA
ATOM      9  C   UNL     1      34.184 -17.461 -22.019  0.00  0.00    +0.002 C 
ATOM     10  C   UNL     1      33.669 -15.170 -22.665  0.00  0.00    +0.003 C 
ATOM     11  C   UNL     1      34.158 -16.094 -21.727  0.00  0.00    +0.000 C 
ATOM     12  C   UNL     1      33.202 -15.638 -23.910  0.00  0.00    +0.019 C 
ATOM     13  C   UNL     1      33.720 -17.918 -23.252  0.00  0.00    +0.000 C 
ATOM     14  C   UNL     1      33.231 -17.013 -24.195  0.00  0.00    +0.002 C 
ATOM     15  C   UNL     1      33.631 -13.796 -22.400  0.00  0.00    +0.021 C 
ATOM     16  C   UNL     1      32.724 -14.691 -24.817  0.00  0.00    +0.099 C 
ATOM     17  C   UNL     1      33.135 -12.948 -23.379  0.00  0.00    +0.099 C 
ENDBRANCH   5   9
ENDBRANCH   1   3
BRANCH   1  18
ATOM     18  C   UNL     1      34.054 -21.979 -17.996  0.00  0.00    +0.184 C 
BRANCH  18  19
ATOM     19  C   UNL     1      32.842 -21.924 -17.061  0.00  0.00    -0.021 C 
BRANCH  19  20
ATOM     20  N   UNL     1      31.626 -21.876 -17.873  0.00  0.00    +0.384 N 
ATOM     21  H   UNL     1      30.808 -21.892 -17.262  0.00  0.00    -0.089 HD
ATOM     22  H   UNL     1      31.600 -22.683 -18.496  0.00  0.00    -0.089 HD
ATOM     23  H   UNL     1      31.620 -21.019 -18.426  0.00  0.00    -0.089 HD
ENDBRANCH  19  20
BRANCH  19  24
ATOM     24  C   UNL     1      32.817 -23.130 -16.098  0.00  0.00    -0.012 C 
BRANCH  24  26
ATOM     25  N   UNL     1      32.024 -24.453 -13.004  0.00  0.00    -0.270 NA
ATOM     26  C   UNL     1      32.179 -22.831 -14.754  0.00  0.00    +0.046 C 
ATOM     27  C   UNL     1      30.777 -23.331 -14.622  0.00  0.00    -0.007 C 
ATOM     28  C   UNL     1      32.825 -23.657 -13.647  0.00  0.00    +0.130 C 
ATOM     29  C   UNL     1      30.756 -24.270 -13.583  0.00  0.00    +0.071 C 
ATOM     30  C   UNL     1      29.634 -23.000 -15.324  0.00  0.00    -0.024 C 
ATOM     31  C   UNL     1      29.578 -24.905 -13.226  0.00  0.00    +0.014 C 
ATOM     32  C   UNL     1      28.443 -23.637 -14.970  0.00  0.00    +0.052 C 
ATOM     33  C   UNL     1      28.415 -24.582 -13.930  0.00  0.00    -0.020 C 
ENDBRANCH  24  26
ENDBRANCH  19  24
ENDBRANCH  18  19
ENDBRANCH   1  18
TORSDOF 7
ENDMDL
MODEL 3
REMARK VINA RESULT:     -12.2      1.573     10.721
REMARK  Name = 11840906
REMARK  7 active torsions:
REMARK  status: ('A' for Active; 'I' for Inactive)
REMARK    1  A    between atoms: O_1  and  C_3
REMARK    2  A    between atoms: O_1  and  C_18
REMARK    3  A    between atoms: C_5  and  C_9
REMARK    4  A    between atoms: C_18  and  C_19
REMARK    5  A    between atoms: C_19  and  N_20
REMARK    6  A    between atoms: C_19  and  C_24
REMARK    7  A    between atoms: C_24  and  C_26
REMARK                            x       y       z     vdW  Elec       q    Type
REMARK                         _______ _______ _______ _____ _____    ______ ____
ROOT
ATOM      1  O   UNL     1      33.523 -15.421 -22.799  0.00  0.00    -0.476 OA
ENDROOT
BRANCH   1   3
ATOM      2  N   UNL     1      32.595 -13.608 -25.822  0.00  0.00    -0.239 NA
ATOM      3  C   UNL     1      33.254 -14.370 -23.637  0.00  0.00    +0.158 C 
ATOM      4  C   UNL     1      33.355 -13.067 -23.186  0.00  0.00    +0.040 C 
ATOM      5  C   UNL     1      33.075 -12.023 -24.060  0.00  0.00    +0.022 C 
ATOM      6  C   UNL     1      32.875 -14.596 -24.943  0.00  0.00    +0.136 C 
ATOM      7  C   UNL     1      32.703 -12.343 -25.355  0.00  0.00    +0.099 C 
BRANCH   5   9
ATOM      8  N   UNL     1      32.451  -6.072 -21.582  0.00  0.00    -0.242 NA
ATOM      9  C   UNL     1      33.170 -10.647 -23.630  0.00  0.00    +0.002 C 
ATOM     10  C   UNL     1      32.245  -8.756 -22.406  0.00  0.00    +0.003 C 
ATOM     11  C   UNL     1      32.167 -10.093 -22.830  0.00  0.00    +0.000 C 
ATOM     12  C   UNL     1      33.352  -7.976 -22.797  0.00  0.00    +0.019 C 
ATOM     13  C   UNL     1      34.262  -9.870 -24.015  0.00  0.00    +0.000 C 
ATOM     14  C   UNL     1      34.355  -8.540 -23.602  0.00  0.00    +0.002 C 
ATOM     15  C   UNL     1      31.256  -8.175 -21.604  0.00  0.00    +0.021 C 
ATOM     16  C   UNL     1      33.396  -6.652 -22.356  0.00  0.00    +0.099 C 
ATOM     17  C   UNL     1      31.406  -6.850 -21.226  0.00  0.00    +0.099 C 
ENDBRANCH   5   9
ENDBRANCH   1   3
BRANCH   1  18
ATOM     18  C   UNL     1      34.049 -16.599 -23.397  0.00  0.00    +0.184 C 
BRANCH  18  19
ATOM     19  C   UNL     1      33.252 -17.820 -22.926  0.00  0.00    -0.021 C 
BRANCH  19  20
ATOM     20  N   UNL     1      32.542 -18.386 -24.074  0.00  0.00    +0.384 N 
ATOM     21  H   UNL     1      31.779 -18.978 -23.743  0.00  0.00    -0.089 HD
ATOM     22  H   UNL     1      33.188 -18.945 -24.632  0.00  0.00    -0.089 HD
ATOM     23  H   UNL     1      32.163 -17.631 -24.645  0.00  0.00    -0.089 HD
ENDBRANCH  19  20
BRANCH  19  24
ATOM     24  C   UNL     1      34.170 -18.872 -22.269  0.00  0.00    -0.012 C 
BRANCH  24  26
ATOM     25  N   UNL     1      36.132 -19.720 -19.552  0.00  0.00    -0.270 NA
ATOM     26  C   UNL     1      34.369 -18.669 -20.778  0.00  0.00    +0.046 C 
ATOM     27  C   UNL     1      33.834 -19.782 -19.936  0.00  0.00    -0.007 C 
ATOM     28  C   UNL     1      35.843 -18.783 -20.404  0.00  0.00    +0.130 C 
ATOM     29  C   UNL     1      34.912 -20.349 -19.245  0.00  0.00    +0.071 C 
ATOM     30  C   UNL     1      32.544 -20.250 -19.776  0.00  0.00    -0.024 C 
ATOM     31  C   UNL     1      34.718 -21.409 -18.376  0.00  0.00    +0.014 C 
ATOM     32  C   UNL     1      32.341 -21.319 -18.902  0.00  0.00    +0.052 C 
ATOM     33  C   UNL     1      33.418 -21.895 -18.208  0.00  0.00    -0.020 C 
ENDBRANCH  24  26
ENDBRANCH  19  24
ENDBRANCH  18  19
ENDBRANCH   1  18
TORSDOF 7
ENDMDL
MODEL 4
REMARK VINA RESULT:     -12.1      1.494      2.261
REMARK  Name = 11840906
REMARK  7 active torsions:
REMARK  status: ('A' for Active; 'I' for Inactive)
REMARK    1  A    between atoms: O_1  and  C_3
REMARK    2  A    between atoms: O_1  and  C_18
REMARK    3  A    between atoms: C_5  and  C_9
REMARK    4  A    between atoms: C_18  and  C_19
REMARK    5  A    between atoms: C_19  and  N_20
REMARK    6  A    between atoms: C_19  and  C_24
REMARK    7  A    between atoms: C_24  and  C_26
REMARK                            x       y       z     vdW  Elec       q    Type
REMARK                         _______ _______ _______ _____ _____    ______ ____
ROOT
ATOM      1  O   UNL     1      33.784 -13.358 -22.619  0.00  0.00    -0.476 OA
ENDROOT
BRANCH   1   3
ATOM      2  N   UNL     1      33.453 -16.365 -24.653  0.00  0.00    -0.239 NA
ATOM      3  C   UNL     1      33.783 -14.685 -22.963  0.00  0.00    +0.158 C 
ATOM      4  C   UNL     1      34.093 -15.653 -22.025  0.00  0.00    +0.040 C 
ATOM      5  C   UNL     1      34.084 -16.992 -22.404  0.00  0.00    +0.022 C 
ATOM      6  C   UNL     1      33.473 -15.075 -24.248  0.00  0.00    +0.136 C 
ATOM      7  C   UNL     1      33.760 -17.292 -23.717  0.00  0.00    +0.099 C 
BRANCH   5   9
ATOM      8  N   UNL     1      34.315 -21.866 -18.146  0.00  0.00    -0.242 NA
ATOM      9  C   UNL     1      34.400 -18.035 -21.457  0.00  0.00    +0.002 C 
ATOM     10  C   UNL     1      33.673 -19.839 -19.992  0.00  0.00    +0.003 C 
ATOM     11  C   UNL     1      33.380 -18.822 -20.915  0.00  0.00    +0.000 C 
ATOM     12  C   UNL     1      35.014 -20.059 -19.616  0.00  0.00    +0.019 C 
ATOM     13  C   UNL     1      35.724 -18.256 -21.080  0.00  0.00    +0.000 C 
ATOM     14  C   UNL     1      36.033 -19.263 -20.164  0.00  0.00    +0.002 C 
ATOM     15  C   UNL     1      32.672 -20.644 -19.434  0.00  0.00    +0.021 C 
ATOM     16  C   UNL     1      35.267 -21.079 -18.697  0.00  0.00    +0.099 C 
ATOM     17  C   UNL     1      33.043 -21.627 -18.531  0.00  0.00    +0.099 C 
ENDBRANCH   5   9
ENDBRANCH   1   3
BRANCH   1  18
ATOM     18  C   UNL     1      32.830 -12.528 -23.270  0.00  0.00    +0.184 C 
BRANCH  18  19
ATOM     19  C   UNL     1      33.287 -11.066 -23.209  0.00  0.00    -0.021 C 
BRANCH  19  20
ATOM     20  N   UNL     1      34.156 -10.800 -24.356  0.00  0.00    +0.384 N 
ATOM     21  H   UNL     1      34.269  -9.792 -24.469  0.00  0.00    -0.089 HD
ATOM     22  H   UNL     1      33.736 -11.191 -25.199  0.00  0.00    -0.089 HD
ATOM     23  H   UNL     1      35.067 -11.229 -24.199  0.00  0.00    -0.089 HD
ENDBRANCH  19  20
BRANCH  19  24
ATOM     24  C   UNL     1      32.083 -10.100 -23.189  0.00  0.00    -0.012 C 
BRANCH  24  26
ATOM     25  N   UNL     1      30.562  -7.268 -21.918  0.00  0.00    -0.270 NA
ATOM     26  C   UNL     1      32.203  -8.990 -22.162  0.00  0.00    +0.046 C 
ATOM     27  C   UNL     1      32.708  -7.698 -22.718  0.00  0.00    -0.007 C 
ATOM     28  C   UNL     1      30.826  -8.521 -21.702  0.00  0.00    +0.130 C 
ATOM     29  C   UNL     1      31.706  -6.737 -22.541  0.00  0.00    +0.071 C 
ATOM     30  C   UNL     1      33.917  -7.384 -23.308  0.00  0.00    -0.024 C 
ATOM     31  C   UNL     1      31.894  -5.431 -22.961  0.00  0.00    +0.014 C 
ATOM     32  C   UNL     1      34.114  -6.069 -23.735  0.00  0.00    +0.052 C 
ATOM     33  C   UNL     1      33.111  -5.101 -23.563  0.00  0.00    -0.020 C 
ENDBRANCH  24  26
ENDBRANCH  19  24
ENDBRANCH  18  19
ENDBRANCH   1  18
TORSDOF 7
ENDMDL
MODEL 5
REMARK VINA RESULT:     -11.9      3.515      7.000
REMARK  Name = 11840906
REMARK  7 active torsions:
REMARK  status: ('A' for Active; 'I' for Inactive)
REMARK    1  A    between atoms: O_1  and  C_3
REMARK    2  A    between atoms: O_1  and  C_18
REMARK    3  A    between atoms: C_5  and  C_9
REMARK    4  A    between atoms: C_18  and  C_19
REMARK    5  A    between atoms: C_19  and  N_20
REMARK    6  A    between atoms: C_19  and  C_24
REMARK    7  A    between atoms: C_24  and  C_26
REMARK                            x       y       z     vdW  Elec       q    Type
REMARK                         _______ _______ _______ _____ _____    ______ ____
ROOT
ATOM      1  O   UNL     1      35.022 -20.576 -19.214  0.00  0.00    -0.476 OA
ENDROOT
BRANCH   1   3
ATOM      2  N   UNL     1      31.897 -22.075 -18.087  0.00  0.00    -0.239 NA
ATOM      3  C   UNL     1      34.133 -21.253 -18.420  0.00  0.00    +0.158 C 
ATOM      4  C   UNL     1      34.534 -21.779 -17.206  0.00  0.00    +0.040 C 
ATOM      5  C   UNL     1      33.608 -22.460 -16.423  0.00  0.00    +0.022 C 
ATOM      6  C   UNL     1      32.824 -21.420 -18.821  0.00  0.00    +0.136 C 
ATOM      7  C   UNL     1      32.315 -22.579 -16.904  0.00  0.00    +0.099 C 
BRANCH   5   9
ATOM      8  N   UNL     1      36.419 -24.940 -11.142  0.00  0.00    -0.242 NA
ATOM      9  C   UNL     1      33.985 -23.025 -15.149  0.00  0.00    +0.002 C 
ATOM     10  C   UNL     1      35.709 -23.837 -13.634  0.00  0.00    +0.003 C 
ATOM     11  C   UNL     1      35.329 -23.287 -14.869  0.00  0.00    +0.000 C 
ATOM     12  C   UNL     1      34.717 -24.123 -12.675  0.00  0.00    +0.019 C 
ATOM     13  C   UNL     1      33.007 -23.311 -14.196  0.00  0.00    +0.000 C 
ATOM     14  C   UNL     1      33.368 -23.858 -12.964  0.00  0.00    +0.002 C 
ATOM     15  C   UNL     1      37.048 -24.110 -13.325  0.00  0.00    +0.021 C 
ATOM     16  C   UNL     1      35.132 -24.669 -11.459  0.00  0.00    +0.099 C 
ATOM     17  C   UNL     1      37.343 -24.652 -12.084  0.00  0.00    +0.099 C 
ENDBRANCH   5   9
ENDBRANCH   1   3
BRANCH   1  18
ATOM     18  C   UNL     1      34.474 -19.784 -20.259  0.00  0.00    +0.184 C 
BRANCH  18  19
ATOM     19  C   UNL     1      35.218 -18.447 -20.343  0.00  0.00    -0.021 C 
BRANCH  19  20
ATOM     20  N   UNL     1      36.547 -18.614 -19.754  0.00  0.00    +0.384 N 
ATOM     21  H   UNL     1      36.454 -18.817 -18.758  0.00  0.00    -0.089 HD
ATOM     22  H   UNL     1      37.084 -17.755 -19.877  0.00  0.00    -0.089 HD
ATOM     23  H   UNL     1      37.029 -19.386 -20.214  0.00  0.00    -0.089 HD
ENDBRANCH  19  20
BRANCH  19  24
ATOM     24  C   UNL     1      35.317 -17.947 -21.800  0.00  0.00    -0.012 C 
BRANCH  24  26
ATOM     25  N   UNL     1      33.900 -16.159 -24.397  0.00  0.00    -0.270 NA
ATOM     26  C   UNL     1      34.019 -17.382 -22.346  0.00  0.00    +0.046 C 
ATOM     27  C   UNL     1      33.831 -15.924 -22.079  0.00  0.00    -0.007 C 
ATOM     28  C   UNL     1      34.041 -17.338 -23.870  0.00  0.00    +0.130 C 
ATOM     29  C   UNL     1      33.765 -15.270 -23.316  0.00  0.00    +0.071 C 
ATOM     30  C   UNL     1      33.717 -15.235 -20.887  0.00  0.00    -0.024 C 
ATOM     31  C   UNL     1      33.589 -13.898 -23.383  0.00  0.00    +0.014 C 
ATOM     32  C   UNL     1      33.539 -13.851 -20.947  0.00  0.00    +0.052 C 
ATOM     33  C   UNL     1      33.476 -13.188 -22.184  0.00  0.00    -0.020 C 
ENDBRANCH  24  26
ENDBRANCH  19  24
ENDBRANCH  18  19
ENDBRANCH   1  18
TORSDOF 7
ENDMDL
MODEL 6
REMARK VINA RESULT:     -11.8      3.750     12.073
REMARK  Name = 11840906
REMARK  7 active torsions:
REMARK  status: ('A' for Active; 'I' for Inactive)
REMARK    1  A    between atoms: O_1  and  C_3
REMARK    2  A    between atoms: O_1  and  C_18
REMARK    3  A    between atoms: C_5  and  C_9
REMARK    4  A    between atoms: C_18  and  C_19
REMARK    5  A    between atoms: C_19  and  N_20
REMARK    6  A    between atoms: C_19  and  C_24
REMARK    7  A    between atoms: C_24  and  C_26
REMARK                            x       y       z     vdW  Elec       q    Type
REMARK                         _______ _______ _______ _____ _____    ______ ____
ROOT
ATOM      1  O   UNL     1      32.222 -21.902 -18.183  0.00  0.00    -0.476 OA
ENDROOT
BRANCH   1   3
ATOM      2  N   UNL     1      35.645 -20.794 -18.771  0.00  0.00    -0.239 NA
ATOM      3  C   UNL     1      33.276 -21.213 -18.725  0.00  0.00    +0.158 C 
ATOM      4  C   UNL     1      33.067 -20.283 -19.727  0.00  0.00    +0.040 C 
ATOM      5  C   UNL     1      34.157 -19.601 -20.257  0.00  0.00    +0.022 C 
ATOM      6  C   UNL     1      34.562 -21.438 -18.281  0.00  0.00    +0.136 C 
ATOM      7  C   UNL     1      35.412 -19.890 -19.749  0.00  0.00    +0.099 C 
BRANCH   5   9
ATOM      8  N   UNL     1      33.527 -14.401 -24.066  0.00  0.00    -0.242 NA
ATOM      9  C   UNL     1      33.983 -18.621 -21.304  0.00  0.00    +0.002 C 
ATOM     10  C   UNL     1      33.870 -16.293 -22.009  0.00  0.00    +0.003 C 
ATOM     11  C   UNL     1      34.039 -17.257 -21.002  0.00  0.00    +0.000 C 
ATOM     12  C   UNL     1      33.643 -16.717 -23.334  0.00  0.00    +0.019 C 
ATOM     13  C   UNL     1      33.757 -19.034 -22.616  0.00  0.00    +0.000 C 
ATOM     14  C   UNL     1      33.588 -18.089 -23.628  0.00  0.00    +0.002 C 
ATOM     15  C   UNL     1      33.922 -14.920 -21.737  0.00  0.00    +0.021 C 
ATOM     16  C   UNL     1      33.481 -15.731 -24.309  0.00  0.00    +0.099 C 
ATOM     17  C   UNL     1      33.747 -14.032 -22.786  0.00  0.00    +0.099 C 
ENDBRANCH   5   9
ENDBRANCH   1   3
BRANCH   1  18
ATOM     18  C   UNL     1      32.538 -23.061 -17.423  0.00  0.00    +0.184 C 
BRANCH  18  19
ATOM     19  C   UNL     1      32.359 -22.768 -15.930  0.00  0.00    -0.021 C 
BRANCH  19  20
ATOM     20  N   UNL     1      30.988 -23.107 -15.547  0.00  0.00    +0.384 N 
ATOM     21  H   UNL     1      30.796 -22.745 -14.612  0.00  0.00    -0.089 HD
ATOM     22  H   UNL     1      30.875 -24.121 -15.548  0.00  0.00    -0.089 HD
ATOM     23  H   UNL     1      30.337 -22.691 -16.213  0.00  0.00    -0.089 HD
ENDBRANCH  19  20
BRANCH  19  24
ATOM     24  C   UNL     1      33.381 -23.548 -15.075  0.00  0.00    -0.012 C 
BRANCH  24  26
ATOM     25  N   UNL     1      36.677 -22.844 -14.307  0.00  0.00    -0.270 NA
ATOM     26  C   UNL     1      34.294 -22.662 -14.248  0.00  0.00    +0.046 C 
ATOM     27  C   UNL     1      34.804 -23.310 -13.002  0.00  0.00    -0.007 C 
ATOM     28  C   UNL     1      35.627 -22.440 -14.956  0.00  0.00    +0.130 C 
ATOM     29  C   UNL     1      36.199 -23.381 -13.099  0.00  0.00    +0.071 C 
ATOM     30  C   UNL     1      34.130 -23.779 -11.891  0.00  0.00    -0.024 C 
ATOM     31  C   UNL     1      36.953 -23.936 -12.079  0.00  0.00    +0.014 C 
ATOM     32  C   UNL     1      34.883 -24.340 -10.858  0.00  0.00    +0.052 C 
ATOM     33  C   UNL     1      36.283 -24.418 -10.951  0.00  0.00    -0.020 C 
ENDBRANCH  24  26
ENDBRANCH  19  24
ENDBRANCH  18  19
ENDBRANCH   1  18
TORSDOF 7
ENDMDL
MODEL 7
REMARK VINA RESULT:     -11.8      1.668      2.288
REMARK  Name = 11840906
REMARK  7 active torsions:
REMARK  status: ('A' for Active; 'I' for Inactive)
REMARK    1  A    between atoms: O_1  and  C_3
REMARK    2  A    between atoms: O_1  and  C_18
REMARK    3  A    between atoms: C_5  and  C_9
REMARK    4  A    between atoms: C_18  and  C_19
REMARK    5  A    between atoms: C_19  and  N_20
REMARK    6  A    between atoms: C_19  and  C_24
REMARK    7  A    between atoms: C_24  and  C_26
REMARK                            x       y       z     vdW  Elec       q    Type
REMARK                         _______ _______ _______ _____ _____    ______ ____
ROOT
ATOM      1  O   UNL     1      34.460 -14.576 -22.756  0.00  0.00    -0.476 OA
ENDROOT
BRANCH   1   3
ATOM      2  N   UNL     1      33.306 -17.704 -24.228  0.00  0.00    -0.239 NA
ATOM      3  C   UNL     1      34.153 -15.907 -22.872  0.00  0.00    +0.158 C 
ATOM      4  C   UNL     1      34.364 -16.772 -21.814  0.00  0.00    +0.040 C 
ATOM      5  C   UNL     1      34.043 -18.117 -21.963  0.00  0.00    +0.022 C 
ATOM      6  C   UNL     1      33.630 -16.405 -24.047  0.00  0.00    +0.136 C 
ATOM      7  C   UNL     1      33.521 -18.528 -23.178  0.00  0.00    +0.099 C 
BRANCH   5   9
ATOM      8  N   UNL     1      33.757 -22.450 -17.158  0.00  0.00    -0.242 NA
ATOM      9  C   UNL     1      34.246 -19.053 -20.883  0.00  0.00    +0.002 C 
ATOM     10  C   UNL     1      33.336 -20.629 -19.264  0.00  0.00    +0.003 C 
ATOM     11  C   UNL     1      33.154 -19.716 -20.316  0.00  0.00    +0.000 C 
ATOM     12  C   UNL     1      34.639 -20.871 -18.784  0.00  0.00    +0.019 C 
ATOM     13  C   UNL     1      35.533 -19.296 -20.403  0.00  0.00    +0.000 C 
ATOM     14  C   UNL     1      35.731 -20.200 -19.359  0.00  0.00    +0.002 C 
ATOM     15  C   UNL     1      32.261 -21.308 -18.678  0.00  0.00    +0.021 C 
ATOM     16  C   UNL     1      34.782 -21.785 -17.738  0.00  0.00    +0.099 C 
ATOM     17  C   UNL     1      32.524 -22.194 -17.645  0.00  0.00    +0.099 C 
ENDBRANCH   5   9
ENDBRANCH   1   3
BRANCH   1  18
ATOM     18  C   UNL     1      33.381 -13.658 -22.874  0.00  0.00    +0.184 C 
BRANCH  18  19
ATOM     19  C   UNL     1      32.512 -13.712 -21.613  0.00  0.00    -0.021 C 
BRANCH  19  20
ATOM     20  N   UNL     1      33.374 -13.540 -20.443  0.00  0.00    +0.384 N 
ATOM     21  H   UNL     1      33.478 -12.545 -20.241  0.00  0.00    -0.089 HD
ATOM     22  H   UNL     1      34.291 -13.945 -20.634  0.00  0.00    -0.089 HD
ATOM     23  H   UNL     1      32.955 -14.009 -19.640  0.00  0.00    -0.089 HD
ENDBRANCH  19  20
BRANCH  19  24
ATOM     24  C   UNL     1      31.403 -12.639 -21.646  0.00  0.00    -0.012 C 
BRANCH  24  26
ATOM     25  N   UNL     1      30.086  -9.886 -20.023  0.00  0.00    -0.270 NA
ATOM     26  C   UNL     1      31.748 -11.374 -20.883  0.00  0.00    +0.046 C 
ATOM     27  C   UNL     1      31.679 -10.129 -21.707  0.00  0.00    -0.007 C 
ATOM     28  C   UNL     1      30.664 -11.038 -19.864  0.00  0.00    +0.130 C 
ATOM     29  C   UNL     1      30.695  -9.303 -21.149  0.00  0.00    +0.071 C 
ATOM     30  C   UNL     1      32.403  -9.745 -22.819  0.00  0.00    -0.024 C 
ATOM     31  C   UNL     1      30.409  -8.068 -21.705  0.00  0.00    +0.014 C 
ATOM     32  C   UNL     1      32.120  -8.500 -23.385  0.00  0.00    +0.052 C 
ATOM     33  C   UNL     1      31.131  -7.669 -22.833  0.00  0.00    -0.020 C 
ENDBRANCH  24  26
ENDBRANCH  19  24
ENDBRANCH  18  19
ENDBRANCH   1  18
TORSDOF 7
ENDMDL
MODEL 8
REMARK VINA RESULT:     -11.5      2.156     10.699
REMARK  Name = 11840906
REMARK  7 active torsions:
REMARK  status: ('A' for Active; 'I' for Inactive)
REMARK    1  A    between atoms: O_1  and  C_3
REMARK    2  A    between atoms: O_1  and  C_18
REMARK    3  A    between atoms: C_5  and  C_9
REMARK    4  A    between atoms: C_18  and  C_19
REMARK    5  A    between atoms: C_19  and  N_20
REMARK    6  A    between atoms: C_19  and  C_24
REMARK    7  A    between atoms: C_24  and  C_26
REMARK                            x       y       z     vdW  Elec       q    Type
REMARK                         _______ _______ _______ _____ _____    ______ ____
ROOT
ATOM      1  O   UNL     1      34.714 -17.496 -21.627  0.00  0.00    -0.476 OA
ENDROOT
BRANCH   1   3
ATOM      2  N   UNL     1      33.476 -16.154 -24.781  0.00  0.00    -0.239 NA
ATOM      3  C   UNL     1      34.164 -16.616 -22.524  0.00  0.00    +0.158 C 
ATOM      4  C   UNL     1      33.755 -15.360 -22.115  0.00  0.00    +0.040 C 
ATOM      5  C   UNL     1      33.200 -14.491 -23.048  0.00  0.00    +0.022 C 
ATOM      6  C   UNL     1      34.009 -16.971 -23.847  0.00  0.00    +0.136 C 
ATOM      7  C   UNL     1      33.084 -14.931 -24.356  0.00  0.00    +0.099 C 
BRANCH   5   9
ATOM      8  N   UNL     1      30.659  -9.139 -20.432  0.00  0.00    -0.242 NA
ATOM      9  C   UNL     1      32.760 -13.170 -22.664  0.00  0.00    +0.002 C 
ATOM     10  C   UNL     1      31.505 -11.724 -21.159  0.00  0.00    +0.003 C 
ATOM     11  C   UNL     1      31.942 -13.003 -21.544  0.00  0.00    +0.000 C 
ATOM     12  C   UNL     1      31.904 -10.606 -21.919  0.00  0.00    +0.019 C 
ATOM     13  C   UNL     1      33.151 -12.060 -23.412  0.00  0.00    +0.000 C 
ATOM     14  C   UNL     1      32.726 -10.783 -23.044  0.00  0.00    +0.002 C 
ATOM     15  C   UNL     1      30.685 -11.527 -20.042  0.00  0.00    +0.021 C 
ATOM     16  C   UNL     1      31.451  -9.351 -21.507  0.00  0.00    +0.099 C 
ATOM     17  C   UNL     1      30.298 -10.234 -19.727  0.00  0.00    +0.099 C 
ENDBRANCH   5   9
ENDBRANCH   1   3
BRANCH   1  18
ATOM     18  C   UNL     1      34.094 -18.770 -21.517  0.00  0.00    +0.184 C 
BRANCH  18  19
ATOM     19  C   UNL     1      34.824 -19.615 -20.467  0.00  0.00    -0.021 C 
BRANCH  19  20
ATOM     20  N   UNL     1      35.866 -18.794 -19.849  0.00  0.00    +0.384 N 
ATOM     21  H   UNL     1      35.689 -18.719 -18.847  0.00  0.00    -0.089 HD
ATOM     22  H   UNL     1      35.858 -17.863 -20.267  0.00  0.00    -0.089 HD
ATOM     23  H   UNL     1      36.776 -19.228 -20.002  0.00  0.00    -0.089 HD
ENDBRANCH  19  20
BRANCH  19  24
ATOM     24  C   UNL     1      33.847 -20.162 -19.405  0.00  0.00    -0.012 C 
BRANCH  24  26
ATOM     25  N   UNL     1      32.799 -22.767 -17.388  0.00  0.00    -0.270 NA
ATOM     26  C   UNL     1      34.164 -21.573 -18.947  0.00  0.00    +0.046 C 
ATOM     27  C   UNL     1      34.829 -21.643 -17.611  0.00  0.00    -0.007 C 
ATOM     28  C   UNL     1      32.888 -22.337 -18.611  0.00  0.00    +0.130 C 
ATOM     29  C   UNL     1      33.984 -22.355 -16.751  0.00  0.00    +0.071 C 
ATOM     30  C   UNL     1      36.048 -21.151 -17.185  0.00  0.00    -0.024 C 
ATOM     31  C   UNL     1      34.343 -22.584 -15.433  0.00  0.00    +0.014 C 
ATOM     32  C   UNL     1      36.417 -21.378 -15.858  0.00  0.00    +0.052 C 
ATOM     33  C   UNL     1      35.571 -22.088 -14.989  0.00  0.00    -0.020 C 
ENDBRANCH  24  26
ENDBRANCH  19  24
ENDBRANCH  18  19
ENDBRANCH   1  18
TORSDOF 7
ENDMDL
MODEL 9
REMARK VINA RESULT:     -11.4      4.107     11.973
REMARK  Name = 11840906
REMARK  7 active torsions:
REMARK  status: ('A' for Active; 'I' for Inactive)
REMARK    1  A    between atoms: O_1  and  C_3
REMARK    2  A    between atoms: O_1  and  C_18
REMARK    3  A    between atoms: C_5  and  C_9
REMARK    4  A    between atoms: C_18  and  C_19
REMARK    5  A    between atoms: C_19  and  N_20
REMARK    6  A    between atoms: C_19  and  C_24
REMARK    7  A    between atoms: C_24  and  C_26
REMARK                            x       y       z     vdW  Elec       q    Type
REMARK                         _______ _______ _______ _____ _____    ______ ____
ROOT
ATOM      1  O   UNL     1      35.558 -21.987 -17.384  0.00  0.00    -0.476 OA
ENDROOT
BRANCH   1   3
ATOM      2  N   UNL     1      32.117 -21.567 -18.511  0.00  0.00    -0.239 NA
ATOM      3  C   UNL     1      34.488 -21.528 -18.109  0.00  0.00    +0.158 C 
ATOM      4  C   UNL     1      34.670 -20.607 -19.124  0.00  0.00    +0.040 C 
ATOM      5  C   UNL     1      33.566 -20.160 -19.841  0.00  0.00    +0.022 C 
ATOM      6  C   UNL     1      33.213 -21.977 -17.836  0.00  0.00    +0.136 C 
ATOM      7  C   UNL     1      32.323 -20.666 -19.499  0.00  0.00    +0.099 C 
BRANCH   5   9
ATOM      8  N   UNL     1      34.194 -15.034 -23.748  0.00  0.00    -0.242 NA
ATOM      9  C   UNL     1      33.711 -19.200 -20.909  0.00  0.00    +0.002 C 
ATOM     10  C   UNL     1      33.912 -16.888 -21.648  0.00  0.00    +0.003 C 
ATOM     11  C   UNL     1      33.772 -17.834 -20.619  0.00  0.00    +0.000 C 
ATOM     12  C   UNL     1      33.992 -17.333 -22.983  0.00  0.00    +0.019 C 
ATOM     13  C   UNL     1      33.790 -19.634 -22.232  0.00  0.00    +0.000 C 
ATOM     14  C   UNL     1      33.929 -18.708 -23.266  0.00  0.00    +0.002 C 
ATOM     15  C   UNL     1      33.976 -15.514 -21.387  0.00  0.00    +0.021 C 
ATOM     16  C   UNL     1      34.131 -16.365 -23.979  0.00  0.00    +0.099 C 
ATOM     17  C   UNL     1      34.116 -14.644 -22.457  0.00  0.00    +0.099 C 
ENDBRANCH   5   9
ENDBRANCH   1   3
BRANCH   1  18
ATOM     18  C   UNL     1      35.590 -21.645 -16.004  0.00  0.00    +0.184 C 
BRANCH  18  19
ATOM     19  C   UNL     1      35.791 -22.908 -15.161  0.00  0.00    -0.021 C 
BRANCH  19  20
ATOM     20  N   UNL     1      36.425 -22.530 -13.897  0.00  0.00    +0.384 N 
ATOM     21  H   UNL     1      35.787 -21.943 -13.358  0.00  0.00    -0.089 HD
ATOM     22  H   UNL     1      37.283 -22.012 -14.088  0.00  0.00    -0.089 HD
ATOM     23  H   UNL     1      36.647 -23.370 -13.363  0.00  0.00    -0.089 HD
ENDBRANCH  19  20
BRANCH  19  24
ATOM     24  C   UNL     1      34.455 -23.640 -14.913  0.00  0.00    -0.012 C 
BRANCH  24  26
ATOM     25  N   UNL     1      32.649 -24.255 -12.031  0.00  0.00    -0.270 NA
ATOM     26  C   UNL     1      33.597 -23.005 -13.835  0.00  0.00    +0.046 C 
ATOM     27  C   UNL     1      32.128 -23.191 -14.038  0.00  0.00    -0.007 C 
ATOM     28  C   UNL     1      33.744 -23.749 -12.512  0.00  0.00    +0.130 C 
ATOM     29  C   UNL     1      31.637 -23.924 -12.950  0.00  0.00    +0.071 C 
ATOM     30  C   UNL     1      31.299 -22.762 -15.056  0.00  0.00    -0.024 C 
ATOM     31  C   UNL     1      30.294 -24.248 -12.863  0.00  0.00    +0.014 C 
ATOM     32  C   UNL     1      29.943 -23.086 -14.975  0.00  0.00    +0.052 C 
ATOM     33  C   UNL     1      29.445 -23.823 -13.888  0.00  0.00    -0.020 C 
ENDBRANCH  24  26
ENDBRANCH  19  24
ENDBRANCH  18  19
ENDBRANCH   1  18
TORSDOF 7
ENDMDL
