MODEL 1
REMARK VINA RESULT:     -12.0      0.000      0.000
REMARK  Name = 66000
REMARK  8 active torsions:
REMARK  status: ('A' for Active; 'I' for Inactive)
REMARK    1  A    between atoms: C_1  and  O_19
REMARK    2  A    between atoms: C_4  and  C_7
REMARK    3  A    between atoms: C_10  and  C_15
REMARK    4  A    between atoms: O_19  and  C_20
REMARK    5  A    between atoms: C_20  and  C_24
REMARK    6  A    between atoms: C_23  and  C_28
REMARK    7  A    between atoms: C_28  and  C_30
REMARK    8  A    between atoms: C_30  and  O_31
REMARK                            x       y       z     vdW  Elec       q    Type
REMARK                         _______ _______ _______ _____ _____    ______ ____
ROOT
ATOM      1  C   UNL     1      33.469 -22.073 -18.089  0.00  0.00    +0.139 C 
ATOM      2  C   UNL     1      34.728 -21.631 -18.478  0.00  0.00    +0.037 C 
ATOM      3  C   UNL     1      32.319 -21.473 -18.586  0.00  0.00    +0.037 C 
ATOM      4  C   UNL     1      33.689 -19.962 -19.881  0.00  0.00    +0.000 C 
ATOM      5  C   UNL     1      34.838 -20.571 -19.377  0.00  0.00    +0.003 C 
ATOM      6  C   UNL     1      32.429 -20.412 -19.485  0.00  0.00    +0.003 C 
ENDROOT
BRANCH   4   7
ATOM      7  C   UNL     1      33.802 -18.861 -20.813  0.00  0.00    +0.000 C 
ATOM      8  C   UNL     1      33.422 -19.033 -22.144  0.00  0.00    +0.000 C 
ATOM      9  C   UNL     1      34.291 -17.628 -20.381  0.00  0.00    +0.000 C 
ATOM     10  C   UNL     1      34.019 -16.739 -22.611  0.00  0.00    +0.031 C 
ATOM     11  C   UNL     1      33.530 -17.971 -23.044  0.00  0.00    +0.003 C 
ATOM     12  C   UNL     1      34.399 -16.567 -21.280  0.00  0.00    +0.003 C 
BRANCH  10  15
ATOM     13  N   UNL     1      33.947 -14.313 -23.141  0.00  0.00    -0.343 N 
ATOM     14  N   UNL     1      34.412 -15.872 -24.818  0.00  0.00    -0.285 NA
ATOM     15  C   UNL     1      34.132 -15.633 -23.549  0.00  0.00    +0.117 C 
ATOM     16  H   UNL     1      34.028 -13.580 -23.793  0.00  0.00    +0.144 HD
ATOM     17  H   UNL     1      33.735 -14.115 -22.200  0.00  0.00    +0.144 HD
ATOM     18  H   UNL     1      34.489 -15.126 -25.455  0.00  0.00    +0.188 HD
ENDBRANCH  10  15
ENDBRANCH   4   7
BRANCH   1  19
ATOM     19  O   UNL     1      33.361 -23.117 -17.203  0.00  0.00    -0.474 OA
BRANCH  19  20
ATOM     20  C   UNL     1      32.708 -22.852 -15.974  0.00  0.00    +0.225 C 
BRANCH  20  24
ATOM     21  O   UNL     1      33.385 -24.282 -11.879  0.00  0.00    -0.275 OA
ATOM     22  N   UNL     1      33.245 -22.692 -13.591  0.00  0.00    -0.302 N 
ATOM     23  C   UNL     1      34.542 -24.594 -14.009  0.00  0.00    +0.089 C 
ATOM     24  C   UNL     1      33.760 -22.512 -14.927  0.00  0.00    +0.116 C 
ATOM     25  C   UNL     1      34.954 -23.460 -14.954  0.00  0.00    +0.033 C 
ATOM     26  C   UNL     1      33.675 -23.874 -12.994  0.00  0.00    +0.223 C 
ATOM     27  H   UNL     1      32.651 -22.045 -13.147  0.00  0.00    +0.149 HD
BRANCH  23  28
ATOM     28  C   UNL     1      35.724 -25.305 -13.378  0.00  0.00    +0.118 C 
BRANCH  28  30
ATOM     29  O   UNL     1      35.700 -26.936 -15.188  0.00  0.00    -0.250 OA
ATOM     30  C   UNL     1      36.289 -26.374 -14.278  0.00  0.00    +0.314 C 
BRANCH  30  31
ATOM     31  O   UNL     1      37.577 -26.637 -13.937  0.00  0.00    -0.480 OA
ATOM     32  H   UNL     1      37.789 -27.427 -13.479  0.00  0.00    +0.295 HD
ENDBRANCH  30  31
ENDBRANCH  28  30
ENDBRANCH  23  28
ENDBRANCH  20  24
ENDBRANCH  19  20
ENDBRANCH   1  19
TORSDOF 8
ENDMDL
MODEL 2
REMARK VINA RESULT:     -11.4      2.255      3.875
REMARK  Name = 66000
REMARK  8 active torsions:
REMARK  status: ('A' for Active; 'I' for Inactive)
REMARK    1  A    between atoms: C_1  and  O_19
REMARK    2  A    between atoms: C_4  and  C_7
REMARK    3  A    between atoms: C_10  and  C_15
REMARK    4  A    between atoms: O_19  and  C_20
REMARK    5  A    between atoms: C_20  and  C_24
REMARK    6  A    between atoms: C_23  and  C_28
REMARK    7  A    between atoms: C_28  and  C_30
REMARK    8  A    between atoms: C_30  and  O_31
REMARK                            x       y       z     vdW  Elec       q    Type
REMARK                         _______ _______ _______ _____ _____    ______ ____
ROOT
ATOM      1  C   UNL     1      33.777 -21.980 -17.950  0.00  0.00    +0.139 C 
ATOM      2  C   UNL     1      32.586 -21.463 -18.446  0.00  0.00    +0.037 C 
ATOM      3  C   UNL     1      35.001 -21.481 -18.376  0.00  0.00    +0.037 C 
ATOM      4  C   UNL     1      33.845 -19.926 -19.819  0.00  0.00    +0.000 C 
ATOM      5  C   UNL     1      32.621 -20.432 -19.384  0.00  0.00    +0.003 C 
ATOM      6  C   UNL     1      35.036 -20.451 -19.316  0.00  0.00    +0.003 C 
ENDROOT
BRANCH   4   7
ATOM      7  C   UNL     1      33.882 -18.857 -20.793  0.00  0.00    +0.000 C 
ATOM      8  C   UNL     1      34.355 -17.597 -20.428  0.00  0.00    +0.000 C 
ATOM      9  C   UNL     1      33.445 -19.087 -22.098  0.00  0.00    +0.000 C 
ATOM     10  C   UNL     1      33.955 -16.796 -22.672  0.00  0.00    +0.031 C 
ATOM     11  C   UNL     1      34.391 -16.566 -21.368  0.00  0.00    +0.003 C 
ATOM     12  C   UNL     1      33.481 -18.056 -23.038  0.00  0.00    +0.003 C 
BRANCH  10  15
ATOM     13  N   UNL     1      34.026 -14.384 -23.261  0.00  0.00    -0.343 N 
ATOM     14  N   UNL     1      33.989 -16.007 -24.942  0.00  0.00    -0.285 NA
ATOM     15  C   UNL     1      33.992 -15.721 -23.652  0.00  0.00    +0.117 C 
ATOM     16  H   UNL     1      34.050 -13.673 -23.941  0.00  0.00    +0.144 HD
ATOM     17  H   UNL     1      34.025 -14.152 -22.305  0.00  0.00    +0.144 HD
ATOM     18  H   UNL     1      34.014 -15.281 -25.607  0.00  0.00    +0.188 HD
ENDBRANCH  10  15
ENDBRANCH   4   7
BRANCH   1  19
ATOM     19  O   UNL     1      33.742 -22.995 -17.026  0.00  0.00    -0.474 OA
BRANCH  19  20
ATOM     20  C   UNL     1      33.312 -22.660 -15.718  0.00  0.00    +0.225 C 
BRANCH  20  24
ATOM     21  O   UNL     1      30.854 -22.998 -12.097  0.00  0.00    -0.275 OA
ATOM     22  N   UNL     1      32.222 -23.774 -13.830  0.00  0.00    -0.302 N 
ATOM     23  C   UNL     1      30.385 -22.456 -14.433  0.00  0.00    +0.089 C 
ATOM     24  C   UNL     1      32.277 -23.684 -15.269  0.00  0.00    +0.116 C 
ATOM     25  C   UNL     1      30.851 -23.287 -15.634  0.00  0.00    +0.033 C 
ATOM     26  C   UNL     1      31.136 -23.096 -13.281  0.00  0.00    +0.223 C 
ATOM     27  H   UNL     1      32.883 -24.265 -13.291  0.00  0.00    +0.149 HD
BRANCH  23  28
ATOM     28  C   UNL     1      28.881 -22.476 -14.240  0.00  0.00    +0.118 C 
BRANCH  28  30
ATOM     29  O   UNL     1      28.388 -24.834 -13.877  0.00  0.00    -0.250 OA
ATOM     30  C   UNL     1      28.287 -23.825 -14.557  0.00  0.00    +0.314 C 
BRANCH  30  31
ATOM     31  O   UNL     1      27.603 -23.770 -15.729  0.00  0.00    -0.480 OA
ATOM     32  H   UNL     1      26.793 -24.231 -15.821  0.00  0.00    +0.295 HD
ENDBRANCH  30  31
ENDBRANCH  28  30
ENDBRANCH  23  28
ENDBRANCH  20  24
ENDBRANCH  19  20
ENDBRANCH   1  19
TORSDOF 8
ENDMDL
MODEL 3
REMARK VINA RESULT:     -11.3      1.681      2.614
REMARK  Name = 66000
REMARK  8 active torsions:
REMARK  status: ('A' for Active; 'I' for Inactive)
REMARK    1  A    between atoms: C_1  and  O_19
REMARK    2  A    between atoms: C_4  and  C_7
REMARK    3  A    between atoms: C_10  and  C_15
REMARK    4  A    between atoms: O_19  and  C_20
REMARK    5  A    between atoms: C_20  and  C_24
REMARK    6  A    between atoms: C_23  and  C_28
REMARK    7  A    between atoms: C_28  and  C_30
REMARK    8  A    between atoms: C_30  and  O_31
REMARK                            x       y       z     vdW  Elec       q    Type
REMARK                         _______ _______ _______ _____ _____    ______ ____
ROOT
ATOM      1  C   UNL     1      33.856 -22.670 -16.579  0.00  0.00    +0.139 C 
ATOM      2  C   UNL     1      32.716 -22.411 -17.330  0.00  0.00    +0.037 C 
ATOM      3  C   UNL     1      35.065 -22.059 -16.888  0.00  0.00    +0.037 C 
ATOM      4  C   UNL     1      33.996 -20.913 -18.727  0.00  0.00    +0.000 C 
ATOM      5  C   UNL     1      32.787 -21.530 -18.408  0.00  0.00    +0.003 C 
ATOM      6  C   UNL     1      35.136 -21.178 -17.968  0.00  0.00    +0.003 C 
ENDROOT
BRANCH   4   7
ATOM      7  C   UNL     1      34.070 -19.999 -19.846  0.00  0.00    +0.000 C 
ATOM      8  C   UNL     1      32.934 -19.745 -20.615  0.00  0.00    +0.000 C 
ATOM      9  C   UNL     1      35.277 -19.371 -20.156  0.00  0.00    +0.000 C 
ATOM     10  C   UNL     1      34.211 -18.235 -22.002  0.00  0.00    +0.031 C 
ATOM     11  C   UNL     1      33.005 -18.863 -21.694  0.00  0.00    +0.003 C 
ATOM     12  C   UNL     1      35.347 -18.488 -21.234  0.00  0.00    +0.003 C 
BRANCH  10  15
ATOM     13  N   UNL     1      34.761 -16.015 -22.972  0.00  0.00    -0.343 N 
ATOM     14  N   UNL     1      33.891 -17.709 -24.326  0.00  0.00    -0.285 NA
ATOM     15  C   UNL     1      34.285 -17.315 -23.127  0.00  0.00    +0.117 C 
ATOM     16  H   UNL     1      34.801 -15.410 -23.747  0.00  0.00    +0.144 HD
ATOM     17  H   UNL     1      35.056 -15.702 -22.087  0.00  0.00    +0.144 HD
ATOM     18  H   UNL     1      33.939 -17.089 -25.088  0.00  0.00    +0.188 HD
ENDBRANCH  10  15
ENDBRANCH   4   7
BRANCH   1  19
ATOM     19  O   UNL     1      33.786 -23.538 -15.518  0.00  0.00    -0.474 OA
BRANCH  19  20
ATOM     20  C   UNL     1      34.223 -23.053 -14.261  0.00  0.00    +0.225 C 
BRANCH  20  24
ATOM     21  O   UNL     1      36.251 -26.868 -15.042  0.00  0.00    -0.275 OA
ATOM     22  N   UNL     1      34.612 -25.467 -14.130  0.00  0.00    -0.302 N 
ATOM     23  C   UNL     1      36.845 -24.839 -13.815  0.00  0.00    +0.089 C 
ATOM     24  C   UNL     1      34.557 -24.242 -13.369  0.00  0.00    +0.116 C 
ATOM     25  C   UNL     1      35.956 -24.159 -12.767  0.00  0.00    +0.033 C 
ATOM     26  C   UNL     1      35.913 -25.879 -14.408  0.00  0.00    +0.223 C 
ATOM     27  H   UNL     1      33.813 -25.961 -14.421  0.00  0.00    +0.149 HD
BRANCH  23  28
ATOM     28  C   UNL     1      38.106 -25.444 -13.227  0.00  0.00    +0.118 C 
BRANCH  28  30
ATOM     29  O   UNL     1      39.529 -25.785 -15.176  0.00  0.00    -0.250 OA
ATOM     30  C   UNL     1      39.305 -25.225 -14.114  0.00  0.00    +0.314 C 
BRANCH  30  31
ATOM     31  O   UNL     1      40.129 -24.295 -13.564  0.00  0.00    -0.480 OA
ATOM     32  H   UNL     1      40.854 -24.566 -13.036  0.00  0.00    +0.295 HD
ENDBRANCH  30  31
ENDBRANCH  28  30
ENDBRANCH  23  28
ENDBRANCH  20  24
ENDBRANCH  19  20
ENDBRANCH   1  19
TORSDOF 8
ENDMDL
MODEL 4
REMARK VINA RESULT:     -11.2      1.517      2.343
REMARK  Name = 66000
REMARK  8 active torsions:
REMARK  status: ('A' for Active; 'I' for Inactive)
REMARK    1  A    between atoms: C_1  and  O_19
REMARK    2  A    between atoms: C_4  and  C_7
REMARK    3  A    between atoms: C_10  and  C_15
REMARK    4  A    between atoms: O_19  and  C_20
REMARK    5  A    between atoms: C_20  and  C_24
REMARK    6  A    between atoms: C_23  and  C_28
REMARK    7  A    between atoms: C_28  and  C_30
REMARK    8  A    between atoms: C_30  and  O_31
REMARK                            x       y       z     vdW  Elec       q    Type
REMARK                         _______ _______ _______ _____ _____    ______ ____
ROOT
ATOM      1  C   UNL     1      34.264 -21.848 -17.587  0.00  0.00    +0.139 C 
ATOM      2  C   UNL     1      35.416 -21.245 -18.077  0.00  0.00    +0.037 C 
ATOM      3  C   UNL     1      33.021 -21.559 -18.135  0.00  0.00    +0.037 C 
ATOM      4  C   UNL     1      34.078 -20.040 -19.688  0.00  0.00    +0.000 C 
ATOM      5  C   UNL     1      35.322 -20.337 -19.131  0.00  0.00    +0.003 C 
ATOM      6  C   UNL     1      32.927 -20.650 -19.189  0.00  0.00    +0.003 C 
ENDROOT
BRANCH   4   7
ATOM      7  C   UNL     1      33.981 -19.097 -20.781  0.00  0.00    +0.000 C 
ATOM      8  C   UNL     1      34.517 -17.816 -20.648  0.00  0.00    +0.000 C 
ATOM      9  C   UNL     1      33.351 -19.469 -21.969  0.00  0.00    +0.000 C 
ATOM     10  C   UNL     1      33.795 -17.280 -22.890  0.00  0.00    +0.031 C 
ATOM     11  C   UNL     1      34.424 -16.908 -21.702  0.00  0.00    +0.003 C 
ATOM     12  C   UNL     1      33.258 -18.560 -23.024  0.00  0.00    +0.003 C 
BRANCH  10  15
ATOM     13  N   UNL     1      34.681 -15.370 -24.207  0.00  0.00    -0.343 N 
ATOM     14  N   UNL     1      32.656 -16.372 -24.802  0.00  0.00    -0.285 NA
ATOM     15  C   UNL     1      33.697 -16.333 -23.989  0.00  0.00    +0.117 C 
ATOM     16  H   UNL     1      34.594 -14.739 -24.957  0.00  0.00    +0.144 HD
ATOM     17  H   UNL     1      35.463 -15.322 -23.611  0.00  0.00    +0.144 HD
ATOM     18  H   UNL     1      32.587 -15.732 -25.546  0.00  0.00    +0.188 HD
ENDBRANCH  10  15
ENDBRANCH   4   7
BRANCH   1  19
ATOM     19  O   UNL     1      34.357 -22.742 -16.549  0.00  0.00    -0.474 OA
BRANCH  19  20
ATOM     20  C   UNL     1      35.133 -22.350 -15.430  0.00  0.00    +0.225 C 
BRANCH  20  24
ATOM     21  O   UNL     1      36.182 -26.503 -14.469  0.00  0.00    -0.275 OA
ATOM     22  N   UNL     1      34.774 -24.642 -14.647  0.00  0.00    -0.302 N 
ATOM     23  C   UNL     1      36.822 -24.326 -13.560  0.00  0.00    +0.089 C 
ATOM     24  C   UNL     1      34.785 -23.253 -14.255  0.00  0.00    +0.116 C 
ATOM     25  C   UNL     1      35.837 -23.225 -13.152  0.00  0.00    +0.033 C 
ATOM     26  C   UNL     1      35.922 -25.327 -14.259  0.00  0.00    +0.223 C 
ATOM     27  H   UNL     1      34.032 -25.061 -15.138  0.00  0.00    +0.149 HD
BRANCH  23  28
ATOM     28  C   UNL     1      37.570 -24.925 -12.384  0.00  0.00    +0.118 C 
BRANCH  28  30
ATOM     29  O   UNL     1      36.616 -24.283 -10.235  0.00  0.00    -0.250 OA
ATOM     30  C   UNL     1      36.691 -25.068 -11.167  0.00  0.00    +0.314 C 
BRANCH  30  31
ATOM     31  O   UNL     1      35.969 -26.216 -11.245  0.00  0.00    -0.480 OA
ATOM     32  H   UNL     1      35.382 -26.449 -10.554  0.00  0.00    +0.295 HD
ENDBRANCH  30  31
ENDBRANCH  28  30
ENDBRANCH  23  28
ENDBRANCH  20  24
ENDBRANCH  19  20
ENDBRANCH   1  19
TORSDOF 8
ENDMDL
MODEL 5
REMARK VINA RESULT:     -11.0      4.252     10.771
REMARK  Name = 66000
REMARK  8 active torsions:
REMARK  status: ('A' for Active; 'I' for Inactive)
REMARK    1  A    between atoms: C_1  and  O_19
REMARK    2  A    between atoms: C_4  and  C_7
REMARK    3  A    between atoms: C_10  and  C_15
REMARK    4  A    between atoms: O_19  and  C_20
REMARK    5  A    between atoms: C_20  and  C_24
REMARK    6  A    between atoms: C_23  and  C_28
REMARK    7  A    between atoms: C_28  and  C_30
REMARK    8  A    between atoms: C_30  and  O_31
REMARK                            x       y       z     vdW  Elec       q    Type
REMARK                         _______ _______ _______ _____ _____    ______ ____
ROOT
ATOM      1  C   UNL     1      33.922 -20.355 -19.966  0.00  0.00    +0.139 C 
ATOM      2  C   UNL     1      34.803 -21.039 -19.136  0.00  0.00    +0.037 C 
ATOM      3  C   UNL     1      32.560 -20.333 -19.694  0.00  0.00    +0.037 C 
ATOM      4  C   UNL     1      32.947 -21.696 -17.737  0.00  0.00    +0.000 C 
ATOM      5  C   UNL     1      34.313 -21.712 -18.018  0.00  0.00    +0.003 C 
ATOM      6  C   UNL     1      32.070 -21.008 -18.575  0.00  0.00    +0.003 C 
ENDROOT
BRANCH   4   7
ATOM      7  C   UNL     1      32.438 -22.395 -16.577  0.00  0.00    +0.000 C 
ATOM      8  C   UNL     1      31.062 -22.494 -16.370  0.00  0.00    +0.000 C 
ATOM      9  C   UNL     1      33.323 -22.972 -15.666  0.00  0.00    +0.000 C 
ATOM     10  C   UNL     1      31.457 -23.746 -14.342  0.00  0.00    +0.031 C 
ATOM     11  C   UNL     1      30.571 -23.169 -15.252  0.00  0.00    +0.003 C 
ATOM     12  C   UNL     1      32.832 -23.647 -14.548  0.00  0.00    +0.003 C 
BRANCH  10  15
ATOM     13  N   UNL     1      29.592 -24.758 -13.051  0.00  0.00    -0.343 N 
ATOM     14  N   UNL     1      31.770 -24.804 -12.206  0.00  0.00    -0.285 NA
ATOM     15  C   UNL     1      30.945 -24.449 -13.176  0.00  0.00    +0.117 C 
ATOM     16  H   UNL     1      29.267 -25.233 -12.253  0.00  0.00    +0.144 HD
ATOM     17  H   UNL     1      28.961 -24.499 -13.760  0.00  0.00    +0.144 HD
ATOM     18  H   UNL     1      31.426 -25.279 -11.416  0.00  0.00    +0.188 HD
ENDBRANCH  10  15
ENDBRANCH   4   7
BRANCH   1  19
ATOM     19  O   UNL     1      34.405 -19.693 -21.067  0.00  0.00    -0.474 OA
BRANCH  19  20
ATOM     20  C   UNL     1      33.718 -18.519 -21.464  0.00  0.00    +0.225 C 
BRANCH  20  24
ATOM     21  O   UNL     1      33.761 -15.674 -24.807  0.00  0.00    -0.275 OA
ATOM     22  N   UNL     1      34.658 -17.269 -23.348  0.00  0.00    -0.302 N 
ATOM     23  C   UNL     1      33.537 -15.456 -22.383  0.00  0.00    +0.089 C 
ATOM     24  C   UNL     1      34.740 -17.488 -21.924  0.00  0.00    +0.116 C 
ATOM     25  C   UNL     1      34.478 -16.097 -21.357  0.00  0.00    +0.033 C 
ATOM     26  C   UNL     1      33.986 -16.096 -23.682  0.00  0.00    +0.223 C 
ATOM     27  H   UNL     1      35.038 -17.885 -24.014  0.00  0.00    +0.149 HD
BRANCH  23  28
ATOM     28  C   UNL     1      33.625 -13.942 -22.410  0.00  0.00    +0.118 C 
BRANCH  28  30
ATOM     29  O   UNL     1      31.698 -12.557 -21.856  0.00  0.00    -0.250 OA
ATOM     30  C   UNL     1      32.279 -13.300 -22.632  0.00  0.00    +0.314 C 
BRANCH  30  31
ATOM     31  O   UNL     1      31.783 -13.663 -23.843  0.00  0.00    -0.480 OA
ATOM     32  H   UNL     1      31.000 -14.175 -23.895  0.00  0.00    +0.295 HD
ENDBRANCH  30  31
ENDBRANCH  28  30
ENDBRANCH  23  28
ENDBRANCH  20  24
ENDBRANCH  19  20
ENDBRANCH   1  19
TORSDOF 8
ENDMDL
MODEL 6
REMARK VINA RESULT:     -10.9      5.799     11.703
REMARK  Name = 66000
REMARK  8 active torsions:
REMARK  status: ('A' for Active; 'I' for Inactive)
REMARK    1  A    between atoms: C_1  and  O_19
REMARK    2  A    between atoms: C_4  and  C_7
REMARK    3  A    between atoms: C_10  and  C_15
REMARK    4  A    between atoms: O_19  and  C_20
REMARK    5  A    between atoms: C_20  and  C_24
REMARK    6  A    between atoms: C_23  and  C_28
REMARK    7  A    between atoms: C_28  and  C_30
REMARK    8  A    between atoms: C_30  and  O_31
REMARK                            x       y       z     vdW  Elec       q    Type
REMARK                         _______ _______ _______ _____ _____    ______ ____
ROOT
ATOM      1  C   UNL     1      33.809 -17.069 -23.545  0.00  0.00    +0.139 C 
ATOM      2  C   UNL     1      33.213 -18.314 -23.709  0.00  0.00    +0.037 C 
ATOM      3  C   UNL     1      34.358 -16.697 -22.324  0.00  0.00    +0.037 C 
ATOM      4  C   UNL     1      33.713 -18.836 -21.404  0.00  0.00    +0.000 C 
ATOM      5  C   UNL     1      33.165 -19.200 -22.634  0.00  0.00    +0.003 C 
ATOM      6  C   UNL     1      34.309 -17.584 -21.249  0.00  0.00    +0.003 C 
ENDROOT
BRANCH   4   7
ATOM      7  C   UNL     1      33.663 -19.756 -20.289  0.00  0.00    +0.000 C 
ATOM      8  C   UNL     1      34.846 -20.227 -19.719  0.00  0.00    +0.000 C 
ATOM      9  C   UNL     1      32.431 -20.171 -19.781  0.00  0.00    +0.000 C 
ATOM     10  C   UNL     1      33.566 -21.527 -18.135  0.00  0.00    +0.031 C 
ATOM     11  C   UNL     1      34.798 -21.113 -18.642  0.00  0.00    +0.003 C 
ATOM     12  C   UNL     1      32.383 -21.057 -18.704  0.00  0.00    +0.003 C 
BRANCH  10  15
ATOM     13  N   UNL     1      32.395 -23.243 -16.774  0.00  0.00    -0.343 N 
ATOM     14  N   UNL     1      34.549 -22.548 -16.194  0.00  0.00    -0.285 NA
ATOM     15  C   UNL     1      33.516 -22.451 -17.013  0.00  0.00    +0.117 C 
ATOM     16  H   UNL     1      32.382 -23.860 -16.008  0.00  0.00    +0.144 HD
ATOM     17  H   UNL     1      31.614 -23.182 -17.370  0.00  0.00    +0.144 HD
ATOM     18  H   UNL     1      34.518 -23.173 -15.434  0.00  0.00    +0.188 HD
ENDBRANCH  10  15
ENDBRANCH   4   7
BRANCH   1  19
ATOM     19  O   UNL     1      33.855 -16.195 -24.604  0.00  0.00    -0.474 OA
BRANCH  19  20
ATOM     20  C   UNL     1      34.073 -14.828 -24.300  0.00  0.00    +0.225 C 
BRANCH  20  24
ATOM     21  O   UNL     1      32.026 -11.921 -21.725  0.00  0.00    -0.275 OA
ATOM     22  N   UNL     1      32.188 -13.773 -23.146  0.00  0.00    -0.302 N 
ATOM     23  C   UNL     1      33.178 -11.782 -23.877  0.00  0.00    +0.089 C 
ATOM     24  C   UNL     1      32.752 -14.083 -24.438  0.00  0.00    +0.116 C 
ATOM     25  C   UNL     1      32.911 -12.705 -25.071  0.00  0.00    +0.033 C 
ATOM     26  C   UNL     1      32.386 -12.448 -22.767  0.00  0.00    +0.223 C 
ATOM     27  H   UNL     1      31.713 -14.432 -22.590  0.00  0.00    +0.149 HD
BRANCH  23  28
ATOM     28  C   UNL     1      32.755 -10.347 -24.124  0.00  0.00    +0.118 C 
BRANCH  28  30
ATOM     29  O   UNL     1      33.508  -8.402 -22.863  0.00  0.00    -0.250 OA
ATOM     30  C   UNL     1      33.756  -9.359 -23.580  0.00  0.00    +0.314 C 
BRANCH  30  31
ATOM     31  O   UNL     1      35.006  -9.683 -24.001  0.00  0.00    -0.480 OA
ATOM     32  H   UNL     1      35.435  -9.155 -24.645  0.00  0.00    +0.295 HD
ENDBRANCH  30  31
ENDBRANCH  28  30
ENDBRANCH  23  28
ENDBRANCH  20  24
ENDBRANCH  19  20
ENDBRANCH   1  19
TORSDOF 8
ENDMDL
MODEL 7
REMARK VINA RESULT:     -10.1      4.179     10.479
REMARK  Name = 66000
REMARK  8 active torsions:
REMARK  status: ('A' for Active; 'I' for Inactive)
REMARK    1  A    between atoms: C_1  and  O_19
REMARK    2  A    between atoms: C_4  and  C_7
REMARK    3  A    between atoms: C_10  and  C_15
REMARK    4  A    between atoms: O_19  and  C_20
REMARK    5  A    between atoms: C_20  and  C_24
REMARK    6  A    between atoms: C_23  and  C_28
REMARK    7  A    between atoms: C_28  and  C_30
REMARK    8  A    between atoms: C_30  and  O_31
REMARK                            x       y       z     vdW  Elec       q    Type
REMARK                         _______ _______ _______ _____ _____    ______ ____
ROOT
ATOM      1  C   UNL     1      34.320 -19.726 -20.717  0.00  0.00    +0.139 C 
ATOM      2  C   UNL     1      33.040 -20.009 -20.254  0.00  0.00    +0.037 C 
ATOM      3  C   UNL     1      35.441 -20.173 -20.029  0.00  0.00    +0.037 C 
ATOM      4  C   UNL     1      34.000 -21.201 -18.385  0.00  0.00    +0.000 C 
ATOM      5  C   UNL     1      32.880 -20.749 -19.083  0.00  0.00    +0.003 C 
ATOM      6  C   UNL     1      35.280 -20.913 -18.857  0.00  0.00    +0.003 C 
ENDROOT
BRANCH   4   7
ATOM      7  C   UNL     1      33.834 -21.969 -17.170  0.00  0.00    +0.000 C 
ATOM      8  C   UNL     1      34.879 -22.054 -16.250  0.00  0.00    +0.000 C 
ATOM      9  C   UNL     1      32.628 -22.623 -16.917  0.00  0.00    +0.000 C 
ATOM     10  C   UNL     1      33.513 -23.446 -14.825  0.00  0.00    +0.031 C 
ATOM     11  C   UNL     1      34.719 -22.793 -15.077  0.00  0.00    +0.003 C 
ATOM     12  C   UNL     1      32.467 -23.362 -15.744  0.00  0.00    +0.003 C 
BRANCH  10  15
ATOM     13  N   UNL     1      34.439 -24.772 -12.940  0.00  0.00    -0.343 N 
ATOM     14  N   UNL     1      32.137 -24.406 -13.104  0.00  0.00    -0.285 NA
ATOM     15  C   UNL     1      33.346 -24.217 -13.603  0.00  0.00    +0.117 C 
ATOM     16  H   UNL     1      34.303 -25.291 -12.115  0.00  0.00    +0.144 HD
ATOM     17  H   UNL     1      35.347 -24.646 -13.298  0.00  0.00    +0.144 HD
ATOM     18  H   UNL     1      32.022 -24.928 -12.277  0.00  0.00    +0.188 HD
ENDBRANCH  10  15
ENDBRANCH   4   7
BRANCH   1  19
ATOM     19  O   UNL     1      34.478 -18.997 -21.870  0.00  0.00    -0.474 OA
BRANCH  19  20
ATOM     20  C   UNL     1      33.708 -17.814 -21.992  0.00  0.00    +0.225 C 
BRANCH  20  24
ATOM     21  O   UNL     1      33.654 -13.636 -23.339  0.00  0.00    -0.275 OA
ATOM     22  N   UNL     1      34.633 -15.685 -22.773  0.00  0.00    -0.302 N 
ATOM     23  C   UNL     1      33.142 -14.755 -21.227  0.00  0.00    +0.089 C 
ATOM     24  C   UNL     1      34.597 -16.619 -21.673  0.00  0.00    +0.116 C 
ATOM     25  C   UNL     1      34.059 -15.766 -20.529  0.00  0.00    +0.033 C 
ATOM     26  C   UNL     1      33.822 -14.571 -22.571  0.00  0.00    +0.223 C 
ATOM     27  H   UNL     1      35.175 -15.822 -23.583  0.00  0.00    +0.149 HD
BRANCH  23  28
ATOM     28  C   UNL     1      32.991 -13.455 -20.460  0.00  0.00    +0.118 C 
BRANCH  28  30
ATOM     29  O   UNL     1      30.957 -12.194 -20.918  0.00  0.00    -0.250 OA
ATOM     30  C   UNL     1      31.546 -13.061 -20.291  0.00  0.00    +0.314 C 
BRANCH  30  31
ATOM     31  O   UNL     1      30.965 -13.820 -19.326  0.00  0.00    -0.480 OA
ATOM     32  H   UNL     1      31.485 -14.413 -18.820  0.00  0.00    +0.295 HD
ENDBRANCH  30  31
ENDBRANCH  28  30
ENDBRANCH  23  28
ENDBRANCH  20  24
ENDBRANCH  19  20
ENDBRANCH   1  19
TORSDOF 8
ENDMDL
MODEL 8
REMARK VINA RESULT:     -10.1      3.921     10.725
REMARK  Name = 66000
REMARK  8 active torsions:
REMARK  status: ('A' for Active; 'I' for Inactive)
REMARK    1  A    between atoms: C_1  and  O_19
REMARK    2  A    between atoms: C_4  and  C_7
REMARK    3  A    between atoms: C_10  and  C_15
REMARK    4  A    between atoms: O_19  and  C_20
REMARK    5  A    between atoms: C_20  and  C_24
REMARK    6  A    between atoms: C_23  and  C_28
REMARK    7  A    between atoms: C_28  and  C_30
REMARK    8  A    between atoms: C_30  and  O_31
REMARK                            x       y       z     vdW  Elec       q    Type
REMARK                         _______ _______ _______ _____ _____    ______ ____
ROOT
ATOM      1  C   UNL     1      33.944 -20.893 -19.313  0.00  0.00    +0.139 C 
ATOM      2  C   UNL     1      32.854 -21.458 -18.661  0.00  0.00    +0.037 C 
ATOM      3  C   UNL     1      35.208 -20.920 -18.738  0.00  0.00    +0.037 C 
ATOM      4  C   UNL     1      34.297 -22.087 -16.829  0.00  0.00    +0.000 C 
ATOM      5  C   UNL     1      33.031 -22.057 -17.415  0.00  0.00    +0.003 C 
ATOM      6  C   UNL     1      35.386 -21.518 -17.491  0.00  0.00    +0.003 C 
ENDROOT
BRANCH   4   7
ATOM      7  C   UNL     1      34.481 -22.708 -15.536  0.00  0.00    +0.000 C 
ATOM      8  C   UNL     1      33.423 -23.384 -14.929  0.00  0.00    +0.000 C 
ATOM      9  C   UNL     1      35.718 -22.632 -14.895  0.00  0.00    +0.000 C 
ATOM     10  C   UNL     1      34.837 -23.908 -13.042  0.00  0.00    +0.031 C 
ATOM     11  C   UNL     1      33.601 -23.984 -13.682  0.00  0.00    +0.003 C 
ATOM     12  C   UNL     1      35.896 -23.232 -13.648  0.00  0.00    +0.003 C 
BRANCH  10  15
ATOM     13  N   UNL     1      36.246 -25.085 -11.369  0.00  0.00    -0.343 N 
ATOM     14  N   UNL     1      34.014 -24.588 -10.889  0.00  0.00    -0.285 NA
ATOM     15  C   UNL     1      35.022 -24.533 -11.742  0.00  0.00    +0.117 C 
ATOM     16  H   UNL     1      36.349 -25.503 -10.484  0.00  0.00    +0.144 HD
ATOM     17  H   UNL     1      37.008 -25.057 -11.992  0.00  0.00    +0.144 HD
ATOM     18  H   UNL     1      34.137 -25.011 -10.008  0.00  0.00    +0.188 HD
ENDBRANCH  10  15
ENDBRANCH   4   7
BRANCH   1  19
ATOM     19  O   UNL     1      33.769 -20.303 -20.540  0.00  0.00    -0.474 OA
BRANCH  19  20
ATOM     20  C   UNL     1      33.867 -18.891 -20.594  0.00  0.00    +0.225 C 
BRANCH  20  24
ATOM     21  O   UNL     1      32.696 -17.300 -24.514  0.00  0.00    -0.275 OA
ATOM     22  N   UNL     1      33.888 -18.663 -23.032  0.00  0.00    -0.302 N 
ATOM     23  C   UNL     1      33.846 -16.369 -22.569  0.00  0.00    +0.089 C 
ATOM     24  C   UNL     1      34.670 -18.505 -21.829  0.00  0.00    +0.116 C 
ATOM     25  C   UNL     1      35.037 -17.026 -21.862  0.00  0.00    +0.033 C 
ATOM     26  C   UNL     1      33.394 -17.458 -23.524  0.00  0.00    +0.223 C 
ATOM     27  H   UNL     1      33.722 -19.533 -23.460  0.00  0.00    +0.149 HD
BRANCH  23  28
ATOM     28  C   UNL     1      34.209 -15.078 -23.277  0.00  0.00    +0.118 C 
BRANCH  28  30
ATOM     29  O   UNL     1      33.527 -12.745 -23.103  0.00  0.00    -0.250 OA
ATOM     30  C   UNL     1      33.525 -13.883 -22.661  0.00  0.00    +0.314 C 
BRANCH  30  31
ATOM     31  O   UNL     1      32.887 -14.249 -21.520  0.00  0.00    -0.480 OA
ATOM     32  H   UNL     1      31.968 -14.092 -21.426  0.00  0.00    +0.295 HD
ENDBRANCH  30  31
ENDBRANCH  28  30
ENDBRANCH  23  28
ENDBRANCH  20  24
ENDBRANCH  19  20
ENDBRANCH   1  19
TORSDOF 8
ENDMDL
MODEL 9
REMARK VINA RESULT:      -9.9      1.853      3.105
REMARK  Name = 66000
REMARK  8 active torsions:
REMARK  status: ('A' for Active; 'I' for Inactive)
REMARK    1  A    between atoms: C_1  and  O_19
REMARK    2  A    between atoms: C_4  and  C_7
REMARK    3  A    between atoms: C_10  and  C_15
REMARK    4  A    between atoms: O_19  and  C_20
REMARK    5  A    between atoms: C_20  and  C_24
REMARK    6  A    between atoms: C_23  and  C_28
REMARK    7  A    between atoms: C_28  and  C_30
REMARK    8  A    between atoms: C_30  and  O_31
REMARK                            x       y       z     vdW  Elec       q    Type
REMARK                         _______ _______ _______ _____ _____    ______ ____
ROOT
ATOM      1  C   UNL     1      32.891 -23.103 -15.585  0.00  0.00    +0.139 C 
ATOM      2  C   UNL     1      31.813 -22.816 -16.414  0.00  0.00    +0.037 C 
ATOM      3  C   UNL     1      34.161 -22.623 -15.878  0.00  0.00    +0.037 C 
ATOM      4  C   UNL     1      33.280 -21.553 -17.857  0.00  0.00    +0.000 C 
ATOM      5  C   UNL     1      32.009 -22.039 -17.554  0.00  0.00    +0.003 C 
ATOM      6  C   UNL     1      34.357 -21.846 -17.020  0.00  0.00    +0.003 C 
ENDROOT
BRANCH   4   7
ATOM      7  C   UNL     1      33.484 -20.747 -19.041  0.00  0.00    +0.000 C 
ATOM      8  C   UNL     1      34.779 -20.452 -19.470  0.00  0.00    +0.000 C 
ATOM      9  C   UNL     1      32.387 -20.265 -19.755  0.00  0.00    +0.000 C 
ATOM     10  C   UNL     1      33.878 -19.194 -21.326  0.00  0.00    +0.031 C 
ATOM     11  C   UNL     1      34.975 -19.675 -20.612  0.00  0.00    +0.003 C 
ATOM     12  C   UNL     1      32.583 -19.488 -20.897  0.00  0.00    +0.003 C 
BRANCH  10  15
ATOM     13  N   UNL     1      33.317 -18.574 -23.664  0.00  0.00    -0.343 N 
ATOM     14  N   UNL     1      35.017 -17.448 -22.522  0.00  0.00    -0.285 NA
ATOM     15  C   UNL     1      34.083 -18.384 -22.516  0.00  0.00    +0.117 C 
ATOM     16  H   UNL     1      33.474 -18.014 -24.459  0.00  0.00    +0.144 HD
ATOM     17  H   UNL     1      32.619 -19.267 -23.681  0.00  0.00    +0.144 HD
ATOM     18  H   UNL     1      35.158 -16.899 -23.326  0.00  0.00    +0.188 HD
ENDBRANCH  10  15
ENDBRANCH   4   7
BRANCH   1  19
ATOM     19  O   UNL     1      32.698 -23.869 -14.462  0.00  0.00    -0.474 OA
BRANCH  19  20
ATOM     20  C   UNL     1      33.817 -24.588 -13.975  0.00  0.00    +0.225 C 
BRANCH  20  24
ATOM     21  O   UNL     1      36.044 -24.836 -10.200  0.00  0.00    -0.275 OA
ATOM     22  N   UNL     1      34.721 -23.811 -11.836  0.00  0.00    -0.302 N 
ATOM     23  C   UNL     1      36.677 -24.872 -12.560  0.00  0.00    +0.089 C 
ATOM     24  C   UNL     1      34.750 -23.616 -13.265  0.00  0.00    +0.116 C 
ATOM     25  C   UNL     1      36.219 -23.847 -13.604  0.00  0.00    +0.033 C 
ATOM     26  C   UNL     1      35.821 -24.520 -11.359  0.00  0.00    +0.223 C 
ATOM     27  H   UNL     1      33.998 -23.478 -11.257  0.00  0.00    +0.149 HD
BRANCH  23  28
ATOM     28  C   UNL     1      38.163 -24.802 -12.266  0.00  0.00    +0.118 C 
BRANCH  28  30
ATOM     29  O   UNL     1      39.992 -24.672 -13.872  0.00  0.00    -0.250 OA
ATOM     30  C   UNL     1      38.995 -25.236 -13.447  0.00  0.00    +0.314 C 
BRANCH  30  31
ATOM     31  O   UNL     1      38.479 -26.368 -13.990  0.00  0.00    -0.480 OA
ATOM     32  H   UNL     1      39.035 -26.960 -14.456  0.00  0.00    +0.295 HD
ENDBRANCH  30  31
ENDBRANCH  28  30
ENDBRANCH  23  28
ENDBRANCH  20  24
ENDBRANCH  19  20
ENDBRANCH   1  19
TORSDOF 8
ENDMDL
