MODEL 1
REMARK VINA RESULT:     -12.0      0.000      0.000
REMARK  Name = 447735
REMARK  4 active torsions:
REMARK  status: ('A' for Active; 'I' for Inactive)
REMARK    1  A    between atoms: N_2  and  C_13
REMARK    2  A    between atoms: C_3  and  C_18
REMARK    3  A    between atoms: C_7  and  C_15
REMARK    4  A    between atoms: C_26  and  C_30
REMARK                            x       y       z     vdW  Elec       q    Type
REMARK                         _______ _______ _______ _____ _____    ______ ____
ROOT
ATOM      1  O   UNL     1      32.796 -23.597 -17.193  0.00  0.00    -0.270 OA
ATOM      2  N   UNL     1      34.207 -22.147 -15.994  0.00  0.00    -0.280 N 
ATOM      3  C   UNL     1      33.411 -22.543 -17.078  0.00  0.00    +0.249 C 
ATOM      4  H   UNL     1      34.629 -21.262 -16.070  0.00  0.00    +0.155 HD
ENDROOT
BRANCH   2  13
ATOM      5  N   UNL     1      37.665 -25.140 -11.976  0.00  0.00    -0.274 NA
ATOM      6  C   UNL     1      35.989 -24.119 -13.437  0.00  0.00    +0.010 C 
ATOM      7  C   UNL     1      37.297 -24.763 -13.156  0.00  0.00    +0.053 C 
ATOM      8  C   UNL     1      34.993 -24.260 -12.462  0.00  0.00    -0.019 C 
ATOM      9  C   UNL     1      35.301 -25.051 -11.226  0.00  0.00    +0.053 C 
ATOM     10  C   UNL     1      36.765 -24.852 -10.854  0.00  0.00    +0.130 C 
ATOM     11  C   UNL     1      35.732 -23.412 -14.614  0.00  0.00    +0.016 C 
ATOM     12  C   UNL     1      33.726 -23.710 -12.685  0.00  0.00    -0.003 C 
ATOM     13  C   UNL     1      34.470 -22.854 -14.821  0.00  0.00    +0.051 C 
ATOM     14  C   UNL     1      33.469 -23.006 -13.861  0.00  0.00    +0.014 C 
BRANCH   7  15
ATOM     15  C   UNL     1      38.251 -25.003 -14.301  0.00  0.00    +0.040 C 
ATOM     16  C   UNL     1      38.655 -23.661 -14.884  0.00  0.00    +0.006 C 
ATOM     17  C   UNL     1      39.448 -25.788 -13.797  0.00  0.00    +0.006 C 
ENDBRANCH   7  15
ENDBRANCH   2  13
BRANCH   3  18
ATOM     18  C   UNL     1      33.344 -21.576 -18.205  0.00  0.00    +0.054 C 
ATOM     19  C   UNL     1      34.470 -20.110 -19.744  0.00  0.00    +0.000 C 
ATOM     20  C   UNL     1      33.219 -19.772 -20.311  0.00  0.00    +0.000 C 
ATOM     21  C   UNL     1      34.517 -21.025 -18.679  0.00  0.00    +0.005 C 
ATOM     22  C   UNL     1      32.115 -21.264 -18.739  0.00  0.00    +0.005 C 
ATOM     23  C   UNL     1      32.049 -20.357 -19.797  0.00  0.00    +0.000 C 
ATOM     24  C   UNL     1      33.172 -18.856 -21.376  0.00  0.00    +0.003 C 
ATOM     25  C   UNL     1      35.637 -19.523 -20.258  0.00  0.00    +0.000 C 
ATOM     26  C   UNL     1      34.343 -18.283 -21.874  0.00  0.00    +0.031 C 
ATOM     27  C   UNL     1      35.573 -18.616 -21.316  0.00  0.00    +0.003 C 
BRANCH  26  30
ATOM     28  N   UNL     1      34.816 -16.058 -22.868  0.00  0.00    -0.343 N 
ATOM     29  N   UNL     1      33.694 -17.689 -24.110  0.00  0.00    -0.285 NA
ATOM     30  C   UNL     1      34.278 -17.339 -22.977  0.00  0.00    +0.117 C 
ATOM     31  H   UNL     1      34.761 -15.434 -23.628  0.00  0.00    +0.144 HD
ATOM     32  H   UNL     1      35.252 -15.777 -22.031  0.00  0.00    +0.144 HD
ATOM     33  H   UNL     1      33.649 -17.050 -24.859  0.00  0.00    +0.188 HD
ENDBRANCH  26  30
ENDBRANCH   3  18
TORSDOF 4
ENDMDL
MODEL 2
REMARK VINA RESULT:     -11.8      7.807     14.952
REMARK  Name = 447735
REMARK  4 active torsions:
REMARK  status: ('A' for Active; 'I' for Inactive)
REMARK    1  A    between atoms: N_2  and  C_13
REMARK    2  A    between atoms: C_3  and  C_18
REMARK    3  A    between atoms: C_7  and  C_15
REMARK    4  A    between atoms: C_26  and  C_30
REMARK                            x       y       z     vdW  Elec       q    Type
REMARK                         _______ _______ _______ _____ _____    ______ ____
ROOT
ATOM      1  O   UNL     1      32.680 -12.441 -24.624  0.00  0.00    -0.270 OA
ATOM      2  N   UNL     1      33.836 -11.123 -23.057  0.00  0.00    -0.280 N 
ATOM      3  C   UNL     1      33.306 -12.311 -23.578  0.00  0.00    +0.249 C 
ATOM      4  H   UNL     1      34.313 -11.203 -22.200  0.00  0.00    +0.155 HD
ENDROOT
BRANCH   2  13
ATOM      5  N   UNL     1      32.384  -5.212 -23.202  0.00  0.00    -0.274 NA
ATOM      6  C   UNL     1      32.984  -7.564 -23.515  0.00  0.00    +0.010 C 
ATOM      7  C   UNL     1      32.208  -6.457 -22.901  0.00  0.00    +0.053 C 
ATOM      8  C   UNL     1      33.660  -7.276 -24.708  0.00  0.00    -0.019 C 
ATOM      9  C   UNL     1      33.546  -5.897 -25.285  0.00  0.00    +0.053 C 
ATOM     10  C   UNL     1      33.452  -4.883 -24.152  0.00  0.00    +0.130 C 
ATOM     11  C   UNL     1      33.043  -8.844 -22.959  0.00  0.00    +0.016 C 
ATOM     12  C   UNL     1      34.375  -8.287 -25.357  0.00  0.00    -0.003 C 
ATOM     13  C   UNL     1      33.773  -9.842 -23.606  0.00  0.00    +0.051 C 
ATOM     14  C   UNL     1      34.434  -9.565 -24.803  0.00  0.00    +0.014 C 
BRANCH   7  15
ATOM     15  C   UNL     1      31.151  -6.790 -21.876  0.00  0.00    +0.040 C 
ATOM     16  C   UNL     1      31.090  -5.666 -20.858  0.00  0.00    +0.006 C 
ATOM     17  C   UNL     1      29.821  -6.995 -22.579  0.00  0.00    +0.006 C 
ENDBRANCH   7  15
ENDBRANCH   2  13
BRANCH   3  18
ATOM     18  C   UNL     1      33.515 -13.522 -22.742  0.00  0.00    +0.054 C 
ATOM     19  C   UNL     1      33.961 -15.880 -22.590  0.00  0.00    +0.000 C 
ATOM     20  C   UNL     1      33.906 -15.783 -21.179  0.00  0.00    +0.000 C 
ATOM     21  C   UNL     1      33.762 -14.727 -23.366  0.00  0.00    +0.005 C 
ATOM     22  C   UNL     1      33.456 -13.400 -21.373  0.00  0.00    +0.005 C 
ATOM     23  C   UNL     1      33.652 -14.535 -20.585  0.00  0.00    +0.000 C 
ATOM     24  C   UNL     1      34.105 -16.936 -20.403  0.00  0.00    +0.003 C 
ATOM     25  C   UNL     1      34.215 -17.128 -23.182  0.00  0.00    +0.000 C 
ATOM     26  C   UNL     1      34.356 -18.168 -21.009  0.00  0.00    +0.031 C 
ATOM     27  C   UNL     1      34.411 -18.263 -22.396  0.00  0.00    +0.003 C 
BRANCH  26  30
ATOM     28  N   UNL     1      35.806 -19.644 -19.636  0.00  0.00    -0.343 N 
ATOM     29  N   UNL     1      33.555 -20.179 -19.966  0.00  0.00    -0.285 NA
ATOM     30  C   UNL     1      34.561 -19.352 -20.191  0.00  0.00    +0.117 C 
ATOM     31  H   UNL     1      35.922 -20.452 -19.085  0.00  0.00    +0.144 HD
ATOM     32  H   UNL     1      36.569 -19.042 -19.794  0.00  0.00    +0.144 HD
ATOM     33  H   UNL     1      33.692 -20.983 -19.413  0.00  0.00    +0.188 HD
ENDBRANCH  26  30
ENDBRANCH   3  18
TORSDOF 4
ENDMDL
MODEL 3
REMARK VINA RESULT:     -11.2      2.285     10.414
REMARK  Name = 447735
REMARK  4 active torsions:
REMARK  status: ('A' for Active; 'I' for Inactive)
REMARK    1  A    between atoms: N_2  and  C_13
REMARK    2  A    between atoms: C_3  and  C_18
REMARK    3  A    between atoms: C_7  and  C_15
REMARK    4  A    between atoms: C_26  and  C_30
REMARK                            x       y       z     vdW  Elec       q    Type
REMARK                         _______ _______ _______ _____ _____    ______ ____
ROOT
ATOM      1  O   UNL     1      32.699 -20.958 -19.491  0.00  0.00    -0.270 OA
ATOM      2  N   UNL     1      34.616 -19.609 -19.677  0.00  0.00    -0.280 N 
ATOM      3  C   UNL     1      33.811 -20.607 -19.112  0.00  0.00    +0.249 C 
ATOM      4  H   UNL     1      35.486 -19.459 -19.242  0.00  0.00    +0.155 HD
ENDROOT
BRANCH   2  13
ATOM      5  N   UNL     1      33.913 -14.366 -22.691  0.00  0.00    -0.274 NA
ATOM      6  C   UNL     1      33.979 -16.622 -21.744  0.00  0.00    +0.010 C 
ATOM      7  C   UNL     1      33.855 -15.144 -21.661  0.00  0.00    +0.053 C 
ATOM      8  C   UNL     1      33.788 -17.201 -23.005  0.00  0.00    -0.019 C 
ATOM      9  C   UNL     1      33.461 -16.310 -24.166  0.00  0.00    +0.053 C 
ATOM     10  C   UNL     1      34.181 -14.979 -23.997  0.00  0.00    +0.130 C 
ATOM     11  C   UNL     1      34.259 -17.420 -20.633  0.00  0.00    +0.016 C 
ATOM     12  C   UNL     1      33.853 -18.591 -23.142  0.00  0.00    -0.003 C 
ATOM     13  C   UNL     1      34.337 -18.805 -20.783  0.00  0.00    +0.051 C 
ATOM     14  C   UNL     1      34.131 -19.389 -22.033  0.00  0.00    +0.014 C 
BRANCH   7  15
ATOM     15  C   UNL     1      33.641 -14.507 -20.309  0.00  0.00    +0.040 C 
ATOM     16  C   UNL     1      34.203 -13.097 -20.343  0.00  0.00    +0.006 C 
ATOM     17  C   UNL     1      32.159 -14.522 -19.979  0.00  0.00    +0.006 C 
ENDBRANCH   7  15
ENDBRANCH   2  13
BRANCH   3  18
ATOM     18  C   UNL     1      34.376 -21.277 -17.911  0.00  0.00    +0.054 C 
ATOM     19  C   UNL     1      34.059 -22.677 -15.982  0.00  0.00    +0.000 C 
ATOM     20  C   UNL     1      35.431 -22.530 -15.670  0.00  0.00    +0.000 C 
ATOM     21  C   UNL     1      33.540 -22.038 -17.120  0.00  0.00    +0.005 C 
ATOM     22  C   UNL     1      35.713 -21.117 -17.631  0.00  0.00    +0.005 C 
ATOM     23  C   UNL     1      36.246 -21.746 -16.505  0.00  0.00    +0.000 C 
ATOM     24  C   UNL     1      35.950 -23.169 -14.532  0.00  0.00    +0.003 C 
ATOM     25  C   UNL     1      33.247 -23.460 -15.147  0.00  0.00    +0.000 C 
ATOM     26  C   UNL     1      35.127 -23.944 -13.714  0.00  0.00    +0.031 C 
ATOM     27  C   UNL     1      33.778 -24.089 -14.020  0.00  0.00    +0.003 C 
BRANCH  26  30
ATOM     28  N   UNL     1      37.050 -24.811 -12.405  0.00  0.00    -0.343 N 
ATOM     29  N   UNL     1      34.874 -25.013 -11.576  0.00  0.00    -0.285 NA
ATOM     30  C   UNL     1      35.680 -24.600 -12.540  0.00  0.00    +0.117 C 
ATOM     31  H   UNL     1      37.402 -25.258 -11.601  0.00  0.00    +0.144 HD
ATOM     32  H   UNL     1      37.667 -24.514 -13.112  0.00  0.00    +0.144 HD
ATOM     33  H   UNL     1      35.246 -25.458 -10.780  0.00  0.00    +0.188 HD
ENDBRANCH  26  30
ENDBRANCH   3  18
TORSDOF 4
ENDMDL
MODEL 4
REMARK VINA RESULT:     -11.2      2.692      4.705
REMARK  Name = 447735
REMARK  4 active torsions:
REMARK  status: ('A' for Active; 'I' for Inactive)
REMARK    1  A    between atoms: N_2  and  C_13
REMARK    2  A    between atoms: C_3  and  C_18
REMARK    3  A    between atoms: C_7  and  C_15
REMARK    4  A    between atoms: C_26  and  C_30
REMARK                            x       y       z     vdW  Elec       q    Type
REMARK                         _______ _______ _______ _____ _____    ______ ____
ROOT
ATOM      1  O   UNL     1      36.461 -19.322 -19.254  0.00  0.00    -0.270 OA
ATOM      2  N   UNL     1      34.443 -20.470 -18.883  0.00  0.00    -0.280 N 
ATOM      3  C   UNL     1      35.303 -19.590 -19.553  0.00  0.00    +0.249 C 
ATOM      4  H   UNL     1      33.541 -20.566 -19.266  0.00  0.00    +0.155 HD
ENDROOT
BRANCH   2  13
ATOM      5  N   UNL     1      33.080 -24.091 -14.182  0.00  0.00    -0.274 NA
ATOM      6  C   UNL     1      33.930 -22.542 -15.876  0.00  0.00    +0.010 C 
ATOM      7  C   UNL     1      32.864 -23.144 -15.035  0.00  0.00    +0.053 C 
ATOM      8  C   UNL     1      35.253 -22.756 -15.467  0.00  0.00    -0.019 C 
ATOM      9  C   UNL     1      35.502 -23.551 -14.220  0.00  0.00    +0.053 C 
ATOM     10  C   UNL     1      34.440 -24.635 -14.094  0.00  0.00    +0.130 C 
ATOM     11  C   UNL     1      33.656 -21.784 -17.016  0.00  0.00    +0.016 C 
ATOM     12  C   UNL     1      36.301 -22.182 -16.193  0.00  0.00    -0.003 C 
ATOM     13  C   UNL     1      34.710 -21.229 -17.743  0.00  0.00    +0.051 C 
ATOM     14  C   UNL     1      36.028 -21.424 -17.331  0.00  0.00    +0.014 C 
BRANCH   7  15
ATOM     15  C   UNL     1      31.453 -22.627 -15.171  0.00  0.00    +0.040 C 
ATOM     16  C   UNL     1      30.614 -23.683 -15.868  0.00  0.00    +0.006 C 
ATOM     17  C   UNL     1      30.911 -22.288 -13.794  0.00  0.00    +0.006 C 
ENDBRANCH   7  15
ENDBRANCH   2  13
BRANCH   3  18
ATOM     18  C   UNL     1      34.717 -18.901 -20.733  0.00  0.00    +0.054 C 
ATOM     19  C   UNL     1      34.106 -16.857 -21.844  0.00  0.00    +0.000 C 
ATOM     20  C   UNL     1      33.624 -17.615 -22.937  0.00  0.00    +0.000 C 
ATOM     21  C   UNL     1      34.658 -17.523 -20.737  0.00  0.00    +0.005 C 
ATOM     22  C   UNL     1      34.255 -19.661 -21.782  0.00  0.00    +0.005 C 
ATOM     23  C   UNL     1      33.704 -19.017 -22.891  0.00  0.00    +0.000 C 
ATOM     24  C   UNL     1      33.072 -16.950 -24.044  0.00  0.00    +0.003 C 
ATOM     25  C   UNL     1      34.025 -15.456 -21.891  0.00  0.00    +0.000 C 
ATOM     26  C   UNL     1      32.999 -15.556 -24.074  0.00  0.00    +0.031 C 
ATOM     27  C   UNL     1      33.474 -14.811 -22.999  0.00  0.00    +0.003 C 
BRANCH  26  30
ATOM     28  N   UNL     1      32.784 -13.576 -25.556  0.00  0.00    -0.343 N 
ATOM     29  N   UNL     1      31.545 -15.510 -25.986  0.00  0.00    -0.285 NA
ATOM     30  C   UNL     1      32.427 -14.882 -25.228  0.00  0.00    +0.117 C 
ATOM     31  H   UNL     1      32.383 -13.139 -26.342  0.00  0.00    +0.144 HD
ATOM     32  H   UNL     1      33.437 -13.090 -25.002  0.00  0.00    +0.144 HD
ATOM     33  H   UNL     1      31.155 -15.056 -26.768  0.00  0.00    +0.188 HD
ENDBRANCH  26  30
ENDBRANCH   3  18
TORSDOF 4
ENDMDL
MODEL 5
REMARK VINA RESULT:     -11.0      8.281     15.033
REMARK  Name = 447735
REMARK  4 active torsions:
REMARK  status: ('A' for Active; 'I' for Inactive)
REMARK    1  A    between atoms: N_2  and  C_13
REMARK    2  A    between atoms: C_3  and  C_18
REMARK    3  A    between atoms: C_7  and  C_15
REMARK    4  A    between atoms: C_26  and  C_30
REMARK                            x       y       z     vdW  Elec       q    Type
REMARK                         _______ _______ _______ _____ _____    ______ ____
ROOT
ATOM      1  O   UNL     1      33.077 -11.862 -24.632  0.00  0.00    -0.270 OA
ATOM      2  N   UNL     1      32.718 -10.678 -22.632  0.00  0.00    -0.280 N 
ATOM      3  C   UNL     1      33.034 -11.802 -23.408  0.00  0.00    +0.249 C 
ATOM      4  H   UNL     1      32.733 -10.810 -21.657  0.00  0.00    +0.155 HD
ENDROOT
BRANCH   2  13
ATOM      5  N   UNL     1      31.341  -4.781 -22.013  0.00  0.00    -0.274 NA
ATOM      6  C   UNL     1      31.728  -7.126 -22.594  0.00  0.00    +0.010 C 
ATOM      7  C   UNL     1      31.341  -6.027 -21.673  0.00  0.00    +0.053 C 
ATOM      8  C   UNL     1      31.739  -6.828 -23.963  0.00  0.00    -0.019 C 
ATOM      9  C   UNL     1      31.351  -5.448 -24.403  0.00  0.00    +0.053 C 
ATOM     10  C   UNL     1      31.812  -4.439 -23.359  0.00  0.00    +0.130 C 
ATOM     11  C   UNL     1      32.058  -8.407 -22.145  0.00  0.00    +0.016 C 
ATOM     12  C   UNL     1      32.056  -7.831 -24.885  0.00  0.00    -0.003 C 
ATOM     13  C   UNL     1      32.389  -9.397 -23.072  0.00  0.00    +0.051 C 
ATOM     14  C   UNL     1      32.385  -9.110 -24.437  0.00  0.00    +0.014 C 
BRANCH   7  15
ATOM     15  C   UNL     1      30.916  -6.374 -20.266  0.00  0.00    +0.040 C 
ATOM     16  C   UNL     1      32.159  -6.605 -19.427  0.00  0.00    +0.006 C 
ATOM     17  C   UNL     1      30.056  -5.251 -19.714  0.00  0.00    +0.006 C 
ENDBRANCH   7  15
ENDBRANCH   2  13
BRANCH   3  18
ATOM     18  C   UNL     1      33.318 -13.045 -22.644  0.00  0.00    +0.054 C 
ATOM     19  C   UNL     1      33.870 -15.385 -22.630  0.00  0.00    +0.000 C 
ATOM     20  C   UNL     1      33.849 -15.365 -21.216  0.00  0.00    +0.000 C 
ATOM     21  C   UNL     1      33.601 -14.203 -23.338  0.00  0.00    +0.005 C 
ATOM     22  C   UNL     1      33.290 -12.998 -21.269  0.00  0.00    +0.005 C 
ATOM     23  C   UNL     1      33.557 -14.163 -20.549  0.00  0.00    +0.000 C 
ATOM     24  C   UNL     1      34.118 -16.548 -20.508  0.00  0.00    +0.003 C 
ATOM     25  C   UNL     1      34.162 -16.587 -23.295  0.00  0.00    +0.000 C 
ATOM     26  C   UNL     1      34.407 -17.733 -21.185  0.00  0.00    +0.031 C 
ATOM     27  C   UNL     1      34.428 -17.753 -22.577  0.00  0.00    +0.003 C 
BRANCH  26  30
ATOM     28  N   UNL     1      35.933 -19.177 -19.862  0.00  0.00    -0.343 N 
ATOM     29  N   UNL     1      33.743 -19.867 -20.300  0.00  0.00    -0.285 NA
ATOM     30  C   UNL     1      34.685 -18.949 -20.438  0.00  0.00    +0.117 C 
ATOM     31  H   UNL     1      36.099 -20.007 -19.360  0.00  0.00    +0.144 HD
ATOM     32  H   UNL     1      36.648 -18.507 -19.956  0.00  0.00    +0.144 HD
ATOM     33  H   UNL     1      33.929 -20.691 -19.794  0.00  0.00    +0.188 HD
ENDBRANCH  26  30
ENDBRANCH   3  18
TORSDOF 4
ENDMDL
MODEL 6
REMARK VINA RESULT:     -10.9      8.532     15.372
REMARK  Name = 447735
REMARK  4 active torsions:
REMARK  status: ('A' for Active; 'I' for Inactive)
REMARK    1  A    between atoms: N_2  and  C_13
REMARK    2  A    between atoms: C_3  and  C_18
REMARK    3  A    between atoms: C_7  and  C_15
REMARK    4  A    between atoms: C_26  and  C_30
REMARK                            x       y       z     vdW  Elec       q    Type
REMARK                         _______ _______ _______ _____ _____    ______ ____
ROOT
ATOM      1  O   UNL     1      33.522 -10.348 -24.353  0.00  0.00    -0.270 OA
ATOM      2  N   UNL     1      32.166 -10.469 -22.436  0.00  0.00    -0.280 N 
ATOM      3  C   UNL     1      32.951 -10.986 -23.476  0.00  0.00    +0.249 C 
ATOM      4  H   UNL     1      31.781 -11.131 -21.817  0.00  0.00    +0.155 HD
ENDROOT
BRANCH   2  13
ATOM      5  N   UNL     1      31.462  -4.569 -23.763  0.00  0.00    -0.274 NA
ATOM      6  C   UNL     1      31.782  -6.828 -22.876  0.00  0.00    +0.010 C 
ATOM      7  C   UNL     1      32.011  -5.736 -23.856  0.00  0.00    +0.053 C 
ATOM      8  C   UNL     1      31.251  -6.460 -21.633  0.00  0.00    -0.019 C 
ATOM      9  C   UNL     1      30.968  -5.011 -21.371  0.00  0.00    +0.053 C 
ATOM     10  C   UNL     1      30.516  -4.345 -22.664  0.00  0.00    +0.130 C 
ATOM     11  C   UNL     1      32.085  -8.164 -23.150  0.00  0.00    +0.016 C 
ATOM     12  C   UNL     1      31.050  -7.437 -20.653  0.00  0.00    -0.003 C 
ATOM     13  C   UNL     1      31.866  -9.133 -22.170  0.00  0.00    +0.051 C 
ATOM     14  C   UNL     1      31.353  -8.770 -20.925  0.00  0.00    +0.014 C 
BRANCH   7  15
ATOM     15  C   UNL     1      32.936  -5.987 -25.022  0.00  0.00    +0.040 C 
ATOM     16  C   UNL     1      32.211  -5.622 -26.305  0.00  0.00    +0.006 C 
ATOM     17  C   UNL     1      34.206  -5.175 -24.835  0.00  0.00    +0.006 C 
ENDBRANCH   7  15
ENDBRANCH   2  13
BRANCH   3  18
ATOM     18  C   UNL     1      33.065 -12.468 -23.512  0.00  0.00    +0.054 C 
ATOM     19  C   UNL     1      33.624 -14.528 -22.405  0.00  0.00    +0.000 C 
ATOM     20  C   UNL     1      33.277 -15.235 -23.580  0.00  0.00    +0.000 C 
ATOM     21  C   UNL     1      33.511 -13.128 -22.386  0.00  0.00    +0.005 C 
ATOM     22  C   UNL     1      32.721 -13.130 -24.668  0.00  0.00    +0.005 C 
ATOM     23  C   UNL     1      32.827 -14.521 -24.704  0.00  0.00    +0.000 C 
ATOM     24  C   UNL     1      33.390 -16.634 -23.599  0.00  0.00    +0.003 C 
ATOM     25  C   UNL     1      34.074 -15.242 -21.283  0.00  0.00    +0.000 C 
ATOM     26  C   UNL     1      33.839 -17.328 -22.475  0.00  0.00    +0.031 C 
ATOM     27  C   UNL     1      34.181 -16.632 -21.318  0.00  0.00    +0.003 C 
BRANCH  26  30
ATOM     28  N   UNL     1      34.008 -19.471 -23.716  0.00  0.00    -0.343 N 
ATOM     29  N   UNL     1      33.994 -19.461 -21.379  0.00  0.00    -0.285 NA
ATOM     30  C   UNL     1      33.950 -18.777 -22.510  0.00  0.00    +0.117 C 
ATOM     31  H   UNL     1      34.083 -20.453 -23.716  0.00  0.00    +0.144 HD
ATOM     32  H   UNL     1      33.973 -18.980 -24.569  0.00  0.00    +0.144 HD
ATOM     33  H   UNL     1      34.069 -20.443 -21.400  0.00  0.00    +0.188 HD
ENDBRANCH  26  30
ENDBRANCH   3  18
TORSDOF 4
ENDMDL
MODEL 7
REMARK VINA RESULT:     -10.9      3.521     11.431
REMARK  Name = 447735
REMARK  4 active torsions:
REMARK  status: ('A' for Active; 'I' for Inactive)
REMARK    1  A    between atoms: N_2  and  C_13
REMARK    2  A    between atoms: C_3  and  C_18
REMARK    3  A    between atoms: C_7  and  C_15
REMARK    4  A    between atoms: C_26  and  C_30
REMARK                            x       y       z     vdW  Elec       q    Type
REMARK                         _______ _______ _______ _____ _____    ______ ____
ROOT
ATOM      1  O   UNL     1      33.518 -19.063 -22.719  0.00  0.00    -0.270 OA
ATOM      2  N   UNL     1      33.934 -17.122 -21.459  0.00  0.00    -0.280 N 
ATOM      3  C   UNL     1      33.857 -18.503 -21.682  0.00  0.00    +0.249 C 
ATOM      4  H   UNL     1      34.227 -16.846 -20.561  0.00  0.00    +0.155 HD
ENDROOT
BRANCH   2  13
ATOM      5  N   UNL     1      32.702 -11.396 -23.120  0.00  0.00    -0.274 NA
ATOM      6  C   UNL     1      33.039 -13.795 -22.775  0.00  0.00    +0.010 C 
ATOM      7  C   UNL     1      32.662 -12.426 -22.341  0.00  0.00    +0.053 C 
ATOM      8  C   UNL     1      33.087 -14.028 -24.155  0.00  0.00    -0.019 C 
ATOM      9  C   UNL     1      32.745 -12.906 -25.089  0.00  0.00    +0.053 C 
ATOM     10  C   UNL     1      33.211 -11.588 -24.482  0.00  0.00    +0.130 C 
ATOM     11  C   UNL     1      33.324 -14.822 -21.872  0.00  0.00    +0.016 C 
ATOM     12  C   UNL     1      33.396 -15.308 -24.628  0.00  0.00    -0.003 C 
ATOM     13  C   UNL     1      33.648 -16.091 -22.354  0.00  0.00    +0.051 C 
ATOM     14  C   UNL     1      33.680 -16.334 -23.728  0.00  0.00    +0.014 C 
BRANCH   7  15
ATOM     15  C   UNL     1      32.198 -12.216 -20.920  0.00  0.00    +0.040 C 
ATOM     16  C   UNL     1      31.363 -10.949 -20.864  0.00  0.00    +0.006 C 
ATOM     17  C   UNL     1      31.415 -13.434 -20.464  0.00  0.00    +0.006 C 
ENDBRANCH   7  15
ENDBRANCH   2  13
BRANCH   3  18
ATOM     18  C   UNL     1      34.202 -19.357 -20.515  0.00  0.00    +0.054 C 
ATOM     19  C   UNL     1      33.508 -20.877 -18.786  0.00  0.00    +0.000 C 
ATOM     20  C   UNL     1      34.848 -20.953 -18.338  0.00  0.00    +0.000 C 
ATOM     21  C   UNL     1      33.198 -20.066 -19.890  0.00  0.00    +0.005 C 
ATOM     22  C   UNL     1      35.512 -19.413 -20.101  0.00  0.00    +0.005 C 
ATOM     23  C   UNL     1      35.840 -20.215 -19.006  0.00  0.00    +0.000 C 
ATOM     24  C   UNL     1      35.159 -21.764 -17.234  0.00  0.00    +0.003 C 
ATOM     25  C   UNL     1      32.518 -21.615 -18.117  0.00  0.00    +0.000 C 
ATOM     26  C   UNL     1      34.162 -22.491 -16.582  0.00  0.00    +0.031 C 
ATOM     27  C   UNL     1      32.844 -22.416 -17.023  0.00  0.00    +0.003 C 
BRANCH  26  30
ATOM     28  N   UNL     1      33.512 -23.962 -14.690  0.00  0.00    -0.343 N 
ATOM     29  N   UNL     1      35.765 -23.492 -15.098  0.00  0.00    -0.285 NA
ATOM     30  C   UNL     1      34.499 -23.327 -15.441  0.00  0.00    +0.117 C 
ATOM     31  H   UNL     1      33.764 -24.523 -13.921  0.00  0.00    +0.144 HD
ATOM     32  H   UNL     1      32.564 -23.849 -14.927  0.00  0.00    +0.144 HD
ATOM     33  H   UNL     1      35.996 -24.057 -14.325  0.00  0.00    +0.188 HD
ENDBRANCH  26  30
ENDBRANCH   3  18
TORSDOF 4
ENDMDL
MODEL 8
REMARK VINA RESULT:     -10.8      1.069      2.714
REMARK  Name = 447735
REMARK  4 active torsions:
REMARK  status: ('A' for Active; 'I' for Inactive)
REMARK    1  A    between atoms: N_2  and  C_13
REMARK    2  A    between atoms: C_3  and  C_18
REMARK    3  A    between atoms: C_7  and  C_15
REMARK    4  A    between atoms: C_26  and  C_30
REMARK                            x       y       z     vdW  Elec       q    Type
REMARK                         _______ _______ _______ _____ _____    ______ ____
ROOT
ATOM      1  O   UNL     1      33.627 -22.981 -16.980  0.00  0.00    -0.270 OA
ATOM      2  N   UNL     1      35.689 -21.934 -16.555  0.00  0.00    -0.280 N 
ATOM      3  C   UNL     1      34.468 -22.121 -17.217  0.00  0.00    +0.249 C 
ATOM      4  H   UNL     1      36.245 -21.189 -16.878  0.00  0.00    +0.155 HD
ENDROOT
BRANCH   2  13
ATOM      5  N   UNL     1      35.459 -25.157 -11.396  0.00  0.00    -0.274 NA
ATOM      6  C   UNL     1      35.908 -23.799 -13.381  0.00  0.00    +0.010 C 
ATOM      7  C   UNL     1      35.094 -24.228 -12.215  0.00  0.00    +0.053 C 
ATOM      8  C   UNL     1      37.262 -24.160 -13.373  0.00  0.00    -0.019 C 
ATOM      9  C   UNL     1      37.796 -24.928 -12.201  0.00  0.00    +0.053 C 
ATOM     10  C   UNL     1      36.714 -25.864 -11.678  0.00  0.00    +0.130 C 
ATOM     11  C   UNL     1      35.378 -23.060 -14.442  0.00  0.00    +0.016 C 
ATOM     12  C   UNL     1      38.091 -23.752 -14.422  0.00  0.00    -0.003 C 
ATOM     13  C   UNL     1      36.211 -22.672 -15.492  0.00  0.00    +0.051 C 
ATOM     14  C   UNL     1      37.563 -23.013 -15.481  0.00  0.00    +0.014 C 
BRANCH   7  15
ATOM     15  C   UNL     1      33.773 -23.543 -11.960  0.00  0.00    +0.040 C 
ATOM     16  C   UNL     1      32.682 -24.310 -12.686  0.00  0.00    +0.006 C 
ATOM     17  C   UNL     1      33.524 -23.479 -10.464  0.00  0.00    +0.006 C 
ENDBRANCH   7  15
ENDBRANCH   2  13
BRANCH   3  18
ATOM     18  C   UNL     1      34.201 -21.182 -18.338  0.00  0.00    +0.054 C 
ATOM     19  C   UNL     1      35.022 -19.604 -19.956  0.00  0.00    +0.000 C 
ATOM     20  C   UNL     1      33.701 -19.431 -20.433  0.00  0.00    +0.000 C 
ATOM     21  C   UNL     1      35.258 -20.495 -18.897  0.00  0.00    +0.005 C 
ATOM     22  C   UNL     1      32.907 -21.032 -18.782  0.00  0.00    +0.005 C 
ATOM     23  C   UNL     1      32.654 -20.152 -19.835  0.00  0.00    +0.000 C 
ATOM     24  C   UNL     1      33.464 -18.540 -21.493  0.00  0.00    +0.003 C 
ATOM     25  C   UNL     1      36.067 -18.882 -20.555  0.00  0.00    +0.000 C 
ATOM     26  C   UNL     1      34.516 -17.831 -22.075  0.00  0.00    +0.031 C 
ATOM     27  C   UNL     1      35.815 -18.002 -21.607  0.00  0.00    +0.003 C 
BRANCH  26  30
ATOM     28  N   UNL     1      33.509 -17.304 -24.283  0.00  0.00    -0.343 N 
ATOM     29  N   UNL     1      34.733 -15.682 -23.129  0.00  0.00    -0.285 NA
ATOM     30  C   UNL     1      34.255 -16.913 -23.173  0.00  0.00    +0.117 C 
ATOM     31  H   UNL     1      33.344 -16.666 -25.014  0.00  0.00    +0.144 HD
ATOM     32  H   UNL     1      33.146 -18.218 -24.336  0.00  0.00    +0.144 HD
ATOM     33  H   UNL     1      34.558 -15.059 -23.871  0.00  0.00    +0.188 HD
ENDBRANCH  26  30
ENDBRANCH   3  18
TORSDOF 4
ENDMDL
MODEL 9
REMARK VINA RESULT:     -10.7      9.212     16.021
REMARK  Name = 447735
REMARK  4 active torsions:
REMARK  status: ('A' for Active; 'I' for Inactive)
REMARK    1  A    between atoms: N_2  and  C_13
REMARK    2  A    between atoms: C_3  and  C_18
REMARK    3  A    between atoms: C_7  and  C_15
REMARK    4  A    between atoms: C_26  and  C_30
REMARK                            x       y       z     vdW  Elec       q    Type
REMARK                         _______ _______ _______ _____ _____    ______ ____
ROOT
ATOM      1  O   UNL     1      29.605 -10.303 -20.664  0.00  0.00    -0.270 OA
ATOM      2  N   UNL     1      31.505  -9.398 -21.712  0.00  0.00    -0.280 N 
ATOM      3  C   UNL     1      30.748 -10.403 -21.095  0.00  0.00    +0.249 C 
ATOM      4  H   UNL     1      32.411  -9.655 -21.999  0.00  0.00    +0.155 HD
ENDROOT
BRANCH   2  13
ATOM      5  N   UNL     1      30.259  -4.569 -25.204  0.00  0.00    -0.274 NA
ATOM      6  C   UNL     1      30.818  -6.263 -23.528  0.00  0.00    +0.010 C 
ATOM      7  C   UNL     1      30.882  -5.654 -24.881  0.00  0.00    +0.053 C 
ATOM      8  C   UNL     1      30.368  -5.440 -22.487  0.00  0.00    -0.019 C 
ATOM      9  C   UNL     1      30.001  -4.020 -22.797  0.00  0.00    +0.053 C 
ATOM     10  C   UNL     1      29.394  -3.951 -24.192  0.00  0.00    +0.130 C 
ATOM     11  C   UNL     1      31.194  -7.583 -23.275  0.00  0.00    +0.016 C 
ATOM     12  C   UNL     1      30.323  -5.942 -21.182  0.00  0.00    -0.003 C 
ATOM     13  C   UNL     1      31.130  -8.080 -21.972  0.00  0.00    +0.051 C 
ATOM     14  C   UNL     1      30.699  -7.260 -20.929  0.00  0.00    +0.014 C 
BRANCH   7  15
ATOM     15  C   UNL     1      31.722  -6.325 -25.941  0.00  0.00    +0.040 C 
ATOM     16  C   UNL     1      30.948  -6.323 -27.247  0.00  0.00    +0.006 C 
ATOM     17  C   UNL     1      33.047  -5.594 -26.064  0.00  0.00    +0.006 C 
ENDBRANCH   7  15
ENDBRANCH   2  13
BRANCH   3  18
ATOM     18  C   UNL     1      31.437 -11.711 -20.933  0.00  0.00    +0.054 C 
ATOM     19  C   UNL     1      32.834 -13.441 -21.848  0.00  0.00    +0.000 C 
ATOM     20  C   UNL     1      32.724 -14.151 -20.629  0.00  0.00    +0.000 C 
ATOM     21  C   UNL     1      32.177 -12.207 -21.986  0.00  0.00    +0.005 C 
ATOM     22  C   UNL     1      31.313 -12.380 -19.738  0.00  0.00    +0.005 C 
ATOM     23  C   UNL     1      31.959 -13.608 -19.583  0.00  0.00    +0.000 C 
ATOM     24  C   UNL     1      33.380 -15.385 -20.492  0.00  0.00    +0.003 C 
ATOM     25  C   UNL     1      33.597 -13.985 -22.893  0.00  0.00    +0.000 C 
ATOM     26  C   UNL     1      34.135 -15.911 -21.541  0.00  0.00    +0.031 C 
ATOM     27  C   UNL     1      34.243 -15.212 -22.740  0.00  0.00    +0.003 C 
BRANCH  26  30
ATOM     28  N   UNL     1      34.916 -17.804 -20.137  0.00  0.00    -0.343 N 
ATOM     29  N   UNL     1      35.339 -17.789 -22.435  0.00  0.00    -0.285 NA
ATOM     30  C   UNL     1      34.809 -17.189 -21.383  0.00  0.00    +0.117 C 
ATOM     31  H   UNL     1      35.377 -18.670 -20.053  0.00  0.00    +0.144 HD
ATOM     32  H   UNL     1      34.530 -17.372 -19.340  0.00  0.00    +0.144 HD
ATOM     33  H   UNL     1      35.797 -18.654 -22.330  0.00  0.00    +0.188 HD
ENDBRANCH  26  30
ENDBRANCH   3  18
TORSDOF 4
ENDMDL
