MODEL 1
REMARK VINA RESULT:     -11.7      0.000      0.000
REMARK  Name = 447546
REMARK  10 active torsions:
REMARK  status: ('A' for Active; 'I' for Inactive)
REMARK    1  A    between atoms: N_1  and  C_23
REMARK    2  A    between atoms: C_8  and  N_11
REMARK    3  A    between atoms: N_12  and  C_16
REMARK    4  A    between atoms: C_16  and  C_17
REMARK    5  A    between atoms: C_23  and  C_24
REMARK    6  A    between atoms: C_24  and  C_25
REMARK    7  A    between atoms: C_25  and  N_26
REMARK    8  A    between atoms: C_25  and  C_36
REMARK    9  A    between atoms: C_30  and  C_33
REMARK   10  A    between atoms: C_36  and  O_37
REMARK                            x       y       z     vdW  Elec       q    Type
REMARK                         _______ _______ _______ _____ _____    ______ ____
ROOT
ATOM      1  N   UNL     1      31.544 -24.456 -13.206  0.00  0.00    -0.286 N 
ATOM      2  C   UNL     1      31.079 -23.723 -14.276  0.00  0.00    +0.053 C 
ATOM      3  C   UNL     1      29.695 -23.611 -14.125  0.00  0.00    +0.015 C 
ATOM      4  C   UNL     1      30.505 -24.807 -12.387  0.00  0.00    +0.065 C 
ATOM      5  C   UNL     1      29.348 -24.299 -12.929  0.00  0.00    +0.017 C 
ATOM      6  C   UNL     1      31.771 -23.159 -15.354  0.00  0.00    +0.030 C 
ATOM      7  C   UNL     1      28.963 -22.900 -15.097  0.00  0.00    +0.003 C 
ATOM      8  C   UNL     1      31.023 -22.458 -16.305  0.00  0.00    +0.053 C 
ATOM      9  C   UNL     1      29.641 -22.329 -16.180  0.00  0.00    +0.015 C 
ENDROOT
BRANCH   8  11
ATOM     10  O   UNL     1      33.939 -22.380 -17.011  0.00  0.00    -0.252 OA
ATOM     11  N   UNL     1      31.674 -21.878 -17.395  0.00  0.00    -0.268 N 
ATOM     12  N   UNL     1      33.302 -21.176 -18.879  0.00  0.00    -0.285 N 
ATOM     13  C   UNL     1      33.052 -21.866 -17.688  0.00  0.00    +0.305 C 
ATOM     14  H   UNL     1      31.094 -21.417 -18.044  0.00  0.00    +0.156 HD
ATOM     15  H   UNL     1      32.540 -20.791 -19.367  0.00  0.00    +0.151 HD
BRANCH  12  16
ATOM     16  C   UNL     1      34.629 -21.004 -19.426  0.00  0.00    +0.118 C 
BRANCH  16  17
ATOM     17  C   UNL     1      34.714 -19.804 -20.325  0.00  0.00    -0.003 C 
ATOM     18  C   UNL     1      33.635 -19.464 -21.139  0.00  0.00    -0.003 C 
ATOM     19  C   UNL     1      35.874 -19.029 -20.345  0.00  0.00    -0.003 C 
ATOM     20  C   UNL     1      33.715 -18.349 -21.974  0.00  0.00    -0.000 C 
ATOM     21  C   UNL     1      35.954 -17.915 -21.180  0.00  0.00    -0.000 C 
ATOM     22  C   UNL     1      34.874 -17.575 -21.994  0.00  0.00    -0.000 C 
ENDBRANCH  16  17
ENDBRANCH  12  16
ENDBRANCH   8  11
BRANCH   1  23
ATOM     23  C   UNL     1      32.927 -24.811 -12.968  0.00  0.00    +0.097 C 
BRANCH  23  24
ATOM     24  C   UNL     1      33.659 -23.879 -11.993  0.00  0.00    +0.040 C 
BRANCH  24  25
ATOM     25  C   UNL     1      34.974 -24.443 -11.409  0.00  0.00    +0.091 C 
BRANCH  25  26
ATOM     26  N   UNL     1      36.107 -24.386 -12.349  0.00  0.00    -0.246 NA
ATOM     27  N   UNL     1      37.540 -23.743 -13.918  0.00  0.00    -0.251 NA
ATOM     28  C   UNL     1      37.094 -25.328 -12.501  0.00  0.00    +0.125 C 
ATOM     29  C   UNL     1      36.406 -23.445 -13.217  0.00  0.00    +0.201 C 
ATOM     30  C   UNL     1      37.995 -24.951 -13.469  0.00  0.00    +0.124 C 
BRANCH  30  33
ATOM     31  O   UNL     1      39.534 -25.615 -15.136  0.00  0.00    -0.269 OA
ATOM     32  N   UNL     1      39.937 -26.322 -13.007  0.00  0.00    -0.324 N 
ATOM     33  C   UNL     1      39.158 -25.626 -13.939  0.00  0.00    +0.257 C 
ATOM     34  H   UNL     1      40.746 -26.799 -13.299  0.00  0.00    +0.145 HD
ATOM     35  H   UNL     1      39.675 -26.335 -12.057  0.00  0.00    +0.145 HD
ENDBRANCH  30  33
ENDBRANCH  25  26
BRANCH  25  36
ATOM     36  C   UNL     1      35.332 -23.730 -10.094  0.00  0.00    +0.153 C 
BRANCH  36  37
ATOM     37  O   UNL     1      34.610 -24.320  -9.019  0.00  0.00    -0.381 OA
ATOM     38  H   UNL     1      33.763 -24.659  -9.347  0.00  0.00    +0.210 HD
ENDBRANCH  36  37
ENDBRANCH  25  36
ENDBRANCH  24  25
ENDBRANCH  23  24
ENDBRANCH   1  23
TORSDOF 10
ENDMDL
MODEL 2
REMARK VINA RESULT:     -11.2      2.547      4.657
REMARK  Name = 447546
REMARK  10 active torsions:
REMARK  status: ('A' for Active; 'I' for Inactive)
REMARK    1  A    between atoms: N_1  and  C_23
REMARK    2  A    between atoms: C_8  and  N_11
REMARK    3  A    between atoms: N_12  and  C_16
REMARK    4  A    between atoms: C_16  and  C_17
REMARK    5  A    between atoms: C_23  and  C_24
REMARK    6  A    between atoms: C_24  and  C_25
REMARK    7  A    between atoms: C_25  and  N_26
REMARK    8  A    between atoms: C_25  and  C_36
REMARK    9  A    between atoms: C_30  and  C_33
REMARK   10  A    between atoms: C_36  and  O_37
REMARK                            x       y       z     vdW  Elec       q    Type
REMARK                         _______ _______ _______ _____ _____    ______ ____
ROOT
ATOM      1  N   UNL     1      35.401 -22.660 -15.423  0.00  0.00    -0.286 N 
ATOM      2  C   UNL     1      34.805 -22.142 -16.551  0.00  0.00    +0.053 C 
ATOM      3  C   UNL     1      33.488 -22.608 -16.570  0.00  0.00    +0.015 C 
ATOM      4  C   UNL     1      34.509 -23.434 -14.730  0.00  0.00    +0.065 C 
ATOM      5  C   UNL     1      33.317 -23.421 -15.415  0.00  0.00    +0.017 C 
ATOM      6  C   UNL     1      35.326 -21.306 -17.545  0.00  0.00    +0.030 C 
ATOM      7  C   UNL     1      32.648 -22.222 -17.633  0.00  0.00    +0.003 C 
ATOM      8  C   UNL     1      34.473 -20.936 -18.589  0.00  0.00    +0.053 C 
ATOM      9  C   UNL     1      33.154 -21.385 -18.634  0.00  0.00    +0.015 C 
ENDROOT
BRANCH   8  11
ATOM     10  O   UNL     1      33.009 -19.510 -20.787  0.00  0.00    -0.252 OA
ATOM     11  N   UNL     1      34.951 -20.101 -19.600  0.00  0.00    -0.268 N 
ATOM     12  N   UNL     1      35.076 -18.700 -21.436  0.00  0.00    -0.285 N 
ATOM     13  C   UNL     1      34.224 -19.449 -20.616  0.00  0.00    +0.305 C 
ATOM     14  H   UNL     1      35.924 -19.947 -19.603  0.00  0.00    +0.156 HD
ATOM     15  H   UNL     1      36.039 -18.700 -21.236  0.00  0.00    +0.151 HD
BRANCH  12  16
ATOM     16  C   UNL     1      34.606 -17.926 -22.562  0.00  0.00    +0.118 C 
BRANCH  16  17
ATOM     17  C   UNL     1      34.177 -16.546 -22.154  0.00  0.00    -0.003 C 
ATOM     18  C   UNL     1      33.831 -15.607 -23.125  0.00  0.00    -0.003 C 
ATOM     19  C   UNL     1      34.123 -16.203 -20.803  0.00  0.00    -0.003 C 
ATOM     20  C   UNL     1      33.433 -14.326 -22.746  0.00  0.00    -0.000 C 
ATOM     21  C   UNL     1      33.725 -14.921 -20.424  0.00  0.00    -0.000 C 
ATOM     22  C   UNL     1      33.379 -13.983 -21.396  0.00  0.00    -0.000 C 
ENDBRANCH  16  17
ENDBRANCH  12  16
ENDBRANCH   8  11
BRANCH   1  23
ATOM     23  C   UNL     1      36.770 -22.431 -15.014  0.00  0.00    +0.097 C 
BRANCH  23  24
ATOM     24  C   UNL     1      37.678 -23.664 -15.125  0.00  0.00    +0.040 C 
BRANCH  24  25
ATOM     25  C   UNL     1      38.306 -24.138 -13.796  0.00  0.00    +0.091 C 
BRANCH  25  26
ATOM     26  N   UNL     1      37.316 -24.607 -12.811  0.00  0.00    -0.246 NA
ATOM     27  N   UNL     1      35.849 -25.839 -11.689  0.00  0.00    -0.251 NA
ATOM     28  C   UNL     1      36.834 -23.904 -11.735  0.00  0.00    +0.125 C 
ATOM     29  C   UNL     1      36.703 -25.769 -12.754  0.00  0.00    +0.201 C 
ATOM     30  C   UNL     1      35.922 -24.649 -11.024  0.00  0.00    +0.124 C 
BRANCH  30  33
ATOM     31  O   UNL     1      34.296 -25.033  -9.351  0.00  0.00    -0.269 OA
ATOM     32  N   UNL     1      35.498 -23.102  -9.209  0.00  0.00    -0.324 N 
ATOM     33  C   UNL     1      35.189 -24.307  -9.851  0.00  0.00    +0.257 C 
ATOM     34  H   UNL     1      35.010 -22.837  -8.397  0.00  0.00    +0.145 HD
ATOM     35  H   UNL     1      36.205 -22.519  -9.570  0.00  0.00    +0.145 HD
ENDBRANCH  30  33
ENDBRANCH  25  26
BRANCH  25  36
ATOM     36  C   UNL     1      39.363 -25.225 -14.054  0.00  0.00    +0.153 C 
BRANCH  36  37
ATOM     37  O   UNL     1      39.330 -25.609 -15.424  0.00  0.00    -0.381 OA
ATOM     38  H   UNL     1      40.025 -25.135 -15.908  0.00  0.00    +0.210 HD
ENDBRANCH  36  37
ENDBRANCH  25  36
ENDBRANCH  24  25
ENDBRANCH  23  24
ENDBRANCH   1  23
TORSDOF 10
ENDMDL
MODEL 3
REMARK VINA RESULT:     -11.2      3.036      6.973
REMARK  Name = 447546
REMARK  10 active torsions:
REMARK  status: ('A' for Active; 'I' for Inactive)
REMARK    1  A    between atoms: N_1  and  C_23
REMARK    2  A    between atoms: C_8  and  N_11
REMARK    3  A    between atoms: N_12  and  C_16
REMARK    4  A    between atoms: C_16  and  C_17
REMARK    5  A    between atoms: C_23  and  C_24
REMARK    6  A    between atoms: C_24  and  C_25
REMARK    7  A    between atoms: C_25  and  N_26
REMARK    8  A    between atoms: C_25  and  C_36
REMARK    9  A    between atoms: C_30  and  C_33
REMARK   10  A    between atoms: C_36  and  O_37
REMARK                            x       y       z     vdW  Elec       q    Type
REMARK                         _______ _______ _______ _____ _____    ______ ____
ROOT
ATOM      1  N   UNL     1      33.251 -23.559 -14.493  0.00  0.00    -0.286 N 
ATOM      2  C   UNL     1      34.239 -22.907 -15.195  0.00  0.00    +0.053 C 
ATOM      3  C   UNL     1      35.420 -23.042 -14.461  0.00  0.00    +0.015 C 
ATOM      4  C   UNL     1      33.765 -24.101 -13.346  0.00  0.00    +0.065 C 
ATOM      5  C   UNL     1      35.105 -23.798 -13.298  0.00  0.00    +0.017 C 
ATOM      6  C   UNL     1      34.178 -22.215 -16.410  0.00  0.00    +0.030 C 
ATOM      7  C   UNL     1      36.600 -22.458 -14.963  0.00  0.00    +0.003 C 
ATOM      8  C   UNL     1      35.362 -21.644 -16.887  0.00  0.00    +0.053 C 
ATOM      9  C   UNL     1      36.555 -21.763 -16.178  0.00  0.00    +0.015 C 
ENDROOT
BRANCH   8  11
ATOM     10  O   UNL     1      33.162 -21.290 -18.898  0.00  0.00    -0.252 OA
ATOM     11  N   UNL     1      35.346 -20.947 -18.097  0.00  0.00    -0.268 N 
ATOM     12  N   UNL     1      34.673 -20.025 -20.108  0.00  0.00    -0.285 N 
ATOM     13  C   UNL     1      34.285 -20.806 -19.013  0.00  0.00    +0.305 C 
ATOM     14  H   UNL     1      36.186 -20.493 -18.340  0.00  0.00    +0.156 HD
ATOM     15  H   UNL     1      35.591 -19.672 -20.130  0.00  0.00    +0.151 HD
BRANCH  12  16
ATOM     16  C   UNL     1      33.788 -19.714 -21.207  0.00  0.00    +0.118 C 
BRANCH  16  17
ATOM     17  C   UNL     1      33.941 -18.293 -21.667  0.00  0.00    -0.003 C 
ATOM     18  C   UNL     1      34.203 -17.284 -20.741  0.00  0.00    -0.003 C 
ATOM     19  C   UNL     1      33.823 -17.983 -23.022  0.00  0.00    -0.003 C 
ATOM     20  C   UNL     1      34.346 -15.965 -21.169  0.00  0.00    -0.000 C 
ATOM     21  C   UNL     1      33.966 -16.663 -23.450  0.00  0.00    -0.000 C 
ATOM     22  C   UNL     1      34.227 -15.654 -22.523  0.00  0.00    -0.000 C 
ENDBRANCH  16  17
ENDBRANCH  12  16
ENDBRANCH   8  11
BRANCH   1  23
ATOM     23  C   UNL     1      31.864 -23.666 -14.895  0.00  0.00    +0.097 C 
BRANCH  23  24
ATOM     24  C   UNL     1      30.929 -22.661 -14.208  0.00  0.00    +0.040 C 
BRANCH  24  25
ATOM     25  C   UNL     1      29.583 -23.245 -13.721  0.00  0.00    +0.091 C 
BRANCH  25  26
ATOM     26  N   UNL     1      28.524 -23.215 -14.744  0.00  0.00    -0.246 NA
ATOM     27  N   UNL     1      27.050 -23.798 -16.298  0.00  0.00    -0.251 NA
ATOM     28  C   UNL     1      27.834 -22.110 -15.177  0.00  0.00    +0.125 C 
ATOM     29  C   UNL     1      28.027 -24.214 -15.439  0.00  0.00    +0.201 C 
ATOM     30  C   UNL     1      26.913 -22.447 -16.142  0.00  0.00    +0.124 C 
BRANCH  30  33
ATOM     31  O   UNL     1      25.569 -20.522 -16.418  0.00  0.00    -0.269 OA
ATOM     32  N   UNL     1      25.569 -22.043 -18.115  0.00  0.00    -0.324 N 
ATOM     33  C   UNL     1      25.997 -21.619 -16.852  0.00  0.00    +0.257 C 
ATOM     34  H   UNL     1      24.937 -21.493 -18.631  0.00  0.00    +0.145 HD
ATOM     35  H   UNL     1      25.901 -22.892 -18.488  0.00  0.00    +0.145 HD
ENDBRANCH  30  33
ENDBRANCH  25  26
BRANCH  25  36
ATOM     36  C   UNL     1      29.775 -24.675 -13.188  0.00  0.00    +0.153 C 
BRANCH  36  37
ATOM     37  O   UNL     1      29.728 -24.666 -11.766  0.00  0.00    -0.381 OA
ATOM     38  H   UNL     1      28.815 -24.514 -11.475  0.00  0.00    +0.210 HD
ENDBRANCH  36  37
ENDBRANCH  25  36
ENDBRANCH  24  25
ENDBRANCH  23  24
ENDBRANCH   1  23
TORSDOF 10
ENDMDL
MODEL 4
REMARK VINA RESULT:     -11.1      7.654     12.346
REMARK  Name = 447546
REMARK  10 active torsions:
REMARK  status: ('A' for Active; 'I' for Inactive)
REMARK    1  A    between atoms: N_1  and  C_23
REMARK    2  A    between atoms: C_8  and  N_11
REMARK    3  A    between atoms: N_12  and  C_16
REMARK    4  A    between atoms: C_16  and  C_17
REMARK    5  A    between atoms: C_23  and  C_24
REMARK    6  A    between atoms: C_24  and  C_25
REMARK    7  A    between atoms: C_25  and  N_26
REMARK    8  A    between atoms: C_25  and  C_36
REMARK    9  A    between atoms: C_30  and  C_33
REMARK   10  A    between atoms: C_36  and  O_37
REMARK                            x       y       z     vdW  Elec       q    Type
REMARK                         _______ _______ _______ _____ _____    ______ ____
ROOT
ATOM      1  N   UNL     1      33.712 -15.842 -22.717  0.00  0.00    -0.286 N 
ATOM      2  C   UNL     1      33.371 -14.645 -23.307  0.00  0.00    +0.053 C 
ATOM      3  C   UNL     1      32.882 -14.941 -24.582  0.00  0.00    +0.015 C 
ATOM      4  C   UNL     1      33.455 -16.880 -23.573  0.00  0.00    +0.065 C 
ATOM      5  C   UNL     1      32.941 -16.354 -24.734  0.00  0.00    +0.017 C 
ATOM      6  C   UNL     1      33.458 -13.338 -22.814  0.00  0.00    +0.030 C 
ATOM      7  C   UNL     1      32.458 -13.880 -25.407  0.00  0.00    +0.003 C 
ATOM      8  C   UNL     1      33.031 -12.303 -23.652  0.00  0.00    +0.053 C 
ATOM      9  C   UNL     1      32.538 -12.568 -24.928  0.00  0.00    +0.015 C 
ENDROOT
BRANCH   8  11
ATOM     10  O   UNL     1      34.590  -9.964 -24.703  0.00  0.00    -0.252 OA
ATOM     11  N   UNL     1      33.098 -10.985 -23.199  0.00  0.00    -0.268 N 
ATOM     12  N   UNL     1      33.639  -8.747 -22.982  0.00  0.00    -0.285 N 
ATOM     13  C   UNL     1      33.847  -9.913 -23.726  0.00  0.00    +0.305 C 
ATOM     14  H   UNL     1      32.550 -10.775 -22.408  0.00  0.00    +0.156 HD
ATOM     15  H   UNL     1      33.029  -8.784 -22.211  0.00  0.00    +0.151 HD
BRANCH  12  16
ATOM     16  C   UNL     1      34.280  -7.489 -23.293  0.00  0.00    +0.118 C 
BRANCH  16  17
ATOM     17  C   UNL     1      33.321  -6.337 -23.217  0.00  0.00    -0.003 C 
ATOM     18  C   UNL     1      33.291  -5.385 -24.235  0.00  0.00    -0.003 C 
ATOM     19  C   UNL     1      32.458  -6.218 -22.127  0.00  0.00    -0.003 C 
ATOM     20  C   UNL     1      32.400  -4.314 -24.164  0.00  0.00    -0.000 C 
ATOM     21  C   UNL     1      31.567  -5.148 -22.055  0.00  0.00    -0.000 C 
ATOM     22  C   UNL     1      31.538  -4.196 -23.074  0.00  0.00    -0.000 C 
ENDBRANCH  16  17
ENDBRANCH  12  16
ENDBRANCH   8  11
BRANCH   1  23
ATOM     23  C   UNL     1      34.264 -15.998 -21.389  0.00  0.00    +0.097 C 
BRANCH  23  24
ATOM     24  C   UNL     1      34.006 -17.372 -20.755  0.00  0.00    +0.040 C 
BRANCH  24  25
ATOM     25  C   UNL     1      35.273 -18.206 -20.460  0.00  0.00    +0.091 C 
BRANCH  25  26
ATOM     26  N   UNL     1      34.994 -19.474 -19.764  0.00  0.00    -0.246 NA
ATOM     27  N   UNL     1      35.207 -21.368 -18.625  0.00  0.00    -0.251 NA
ATOM     28  C   UNL     1      33.768 -20.069 -19.605  0.00  0.00    +0.125 C 
ATOM     29  C   UNL     1      35.839 -20.282 -19.162  0.00  0.00    +0.201 C 
ATOM     30  C   UNL     1      33.874 -21.246 -18.900  0.00  0.00    +0.124 C 
BRANCH  30  33
ATOM     31  O   UNL     1      32.975 -23.414 -18.619  0.00  0.00    -0.269 OA
ATOM     32  N   UNL     1      31.676 -21.657 -17.972  0.00  0.00    -0.324 N 
ATOM     33  C   UNL     1      32.860 -22.169 -18.516  0.00  0.00    +0.257 C 
ATOM     34  H   UNL     1      30.955 -22.268 -17.698  0.00  0.00    +0.145 HD
ATOM     35  H   UNL     1      31.563 -20.684 -17.865  0.00  0.00    +0.145 HD
ENDBRANCH  30  33
ENDBRANCH  25  26
BRANCH  25  36
ATOM     36  C   UNL     1      36.063 -18.466 -21.753  0.00  0.00    +0.153 C 
BRANCH  36  37
ATOM     37  O   UNL     1      37.424 -18.096 -21.566  0.00  0.00    -0.381 OA
ATOM     38  H   UNL     1      37.992 -18.867 -21.720  0.00  0.00    +0.210 HD
ENDBRANCH  36  37
ENDBRANCH  25  36
ENDBRANCH  24  25
ENDBRANCH  23  24
ENDBRANCH   1  23
TORSDOF 10
ENDMDL
MODEL 5
REMARK VINA RESULT:     -10.9      3.676      7.429
REMARK  Name = 447546
REMARK  10 active torsions:
REMARK  status: ('A' for Active; 'I' for Inactive)
REMARK    1  A    between atoms: N_1  and  C_23
REMARK    2  A    between atoms: C_8  and  N_11
REMARK    3  A    between atoms: N_12  and  C_16
REMARK    4  A    between atoms: C_16  and  C_17
REMARK    5  A    between atoms: C_23  and  C_24
REMARK    6  A    between atoms: C_24  and  C_25
REMARK    7  A    between atoms: C_25  and  N_26
REMARK    8  A    between atoms: C_25  and  C_36
REMARK    9  A    between atoms: C_30  and  C_33
REMARK   10  A    between atoms: C_36  and  O_37
REMARK                            x       y       z     vdW  Elec       q    Type
REMARK                         _______ _______ _______ _____ _____    ______ ____
ROOT
ATOM      1  N   UNL     1      33.710 -22.097 -17.023  0.00  0.00    -0.286 N 
ATOM      2  C   UNL     1      34.189 -21.301 -18.039  0.00  0.00    +0.053 C 
ATOM      3  C   UNL     1      35.555 -21.119 -17.809  0.00  0.00    +0.015 C 
ATOM      4  C   UNL     1      34.724 -22.426 -16.163  0.00  0.00    +0.065 C 
ATOM      5  C   UNL     1      35.877 -21.835 -16.624  0.00  0.00    +0.017 C 
ATOM      6  C   UNL     1      33.524 -20.732 -19.132  0.00  0.00    +0.030 C 
ATOM      7  C   UNL     1      36.295 -20.332 -18.714  0.00  0.00    +0.003 C 
ATOM      8  C   UNL     1      34.280 -19.955 -20.015  0.00  0.00    +0.053 C 
ATOM      9  C   UNL     1      35.644 -19.758 -19.812  0.00  0.00    +0.015 C 
ENDROOT
BRANCH   8  11
ATOM     10  O   UNL     1      35.403 -18.216 -22.188  0.00  0.00    -0.252 OA
ATOM     11  N   UNL     1      33.656 -19.372 -21.119  0.00  0.00    -0.268 N 
ATOM     12  N   UNL     1      33.260 -18.174 -23.057  0.00  0.00    -0.285 N 
ATOM     13  C   UNL     1      34.225 -18.559 -22.119  0.00  0.00    +0.305 C 
ATOM     14  H   UNL     1      32.693 -19.554 -21.211  0.00  0.00    +0.156 HD
ATOM     15  H   UNL     1      32.336 -18.489 -22.935  0.00  0.00    +0.151 HD
BRANCH  12  16
ATOM     16  C   UNL     1      33.559 -17.336 -24.195  0.00  0.00    +0.118 C 
BRANCH  16  17
ATOM     17  C   UNL     1      33.343 -15.881 -23.894  0.00  0.00    -0.003 C 
ATOM     18  C   UNL     1      32.604 -15.089 -24.771  0.00  0.00    -0.003 C 
ATOM     19  C   UNL     1      33.882 -15.322 -22.735  0.00  0.00    -0.003 C 
ATOM     20  C   UNL     1      32.404 -13.737 -24.491  0.00  0.00    -0.000 C 
ATOM     21  C   UNL     1      33.682 -13.970 -22.455  0.00  0.00    -0.000 C 
ATOM     22  C   UNL     1      32.943 -13.178 -23.333  0.00  0.00    -0.000 C 
ENDBRANCH  16  17
ENDBRANCH  12  16
ENDBRANCH   8  11
BRANCH   1  23
ATOM     23  C   UNL     1      32.339 -22.533 -16.871  0.00  0.00    +0.097 C 
BRANCH  23  24
ATOM     24  C   UNL     1      32.121 -23.552 -15.744  0.00  0.00    +0.040 C 
BRANCH  24  25
ATOM     25  C   UNL     1      31.271 -23.045 -14.557  0.00  0.00    +0.091 C 
BRANCH  25  26
ATOM     26  N   UNL     1      29.826 -23.277 -14.726  0.00  0.00    -0.246 NA
ATOM     27  N   UNL     1      27.784 -24.141 -14.626  0.00  0.00    -0.251 NA
ATOM     28  C   UNL     1      28.944 -22.483 -15.415  0.00  0.00    +0.125 C 
ATOM     29  C   UNL     1      29.095 -24.267 -14.263  0.00  0.00    +0.201 C 
ATOM     30  C   UNL     1      27.670 -22.998 -15.367  0.00  0.00    +0.124 C 
BRANCH  30  33
ATOM     31  O   UNL     1      26.149 -22.656 -17.144  0.00  0.00    -0.269 OA
ATOM     32  N   UNL     1      25.575 -21.811 -15.107  0.00  0.00    -0.324 N 
ATOM     33  C   UNL     1      26.466 -22.498 -15.940  0.00  0.00    +0.257 C 
ATOM     34  H   UNL     1      24.735 -21.453 -15.472  0.00  0.00    +0.145 HD
ATOM     35  H   UNL     1      25.790 -21.685 -14.153  0.00  0.00    +0.145 HD
ENDBRANCH  30  33
ENDBRANCH  25  26
BRANCH  25  36
ATOM     36  C   UNL     1      31.763 -23.663 -13.237  0.00  0.00    +0.153 C 
BRANCH  36  37
ATOM     37  O   UNL     1      31.475 -22.779 -12.159  0.00  0.00    -0.381 OA
ATOM     38  H   UNL     1      31.229 -21.910 -12.511  0.00  0.00    +0.210 HD
ENDBRANCH  36  37
ENDBRANCH  25  36
ENDBRANCH  24  25
ENDBRANCH  23  24
ENDBRANCH   1  23
TORSDOF 10
ENDMDL
MODEL 6
REMARK VINA RESULT:     -10.8     10.668     15.711
REMARK  Name = 447546
REMARK  10 active torsions:
REMARK  status: ('A' for Active; 'I' for Inactive)
REMARK    1  A    between atoms: N_1  and  C_23
REMARK    2  A    between atoms: C_8  and  N_11
REMARK    3  A    between atoms: N_12  and  C_16
REMARK    4  A    between atoms: C_16  and  C_17
REMARK    5  A    between atoms: C_23  and  C_24
REMARK    6  A    between atoms: C_24  and  C_25
REMARK    7  A    between atoms: C_25  and  N_26
REMARK    8  A    between atoms: C_25  and  C_36
REMARK    9  A    between atoms: C_30  and  C_33
REMARK   10  A    between atoms: C_36  and  O_37
REMARK                            x       y       z     vdW  Elec       q    Type
REMARK                         _______ _______ _______ _____ _____    ______ ____
ROOT
ATOM      1  N   UNL     1      32.333  -6.737 -23.133  0.00  0.00    -0.286 N 
ATOM      2  C   UNL     1      32.990  -7.862 -23.579  0.00  0.00    +0.053 C 
ATOM      3  C   UNL     1      33.948  -7.439 -24.504  0.00  0.00    +0.015 C 
ATOM      4  C   UNL     1      32.843  -5.621 -23.740  0.00  0.00    +0.065 C 
ATOM      5  C   UNL     1      33.843  -6.023 -24.594  0.00  0.00    +0.017 C 
ATOM      6  C   UNL     1      32.810  -9.208 -23.240  0.00  0.00    +0.030 C 
ATOM      7  C   UNL     1      34.768  -8.405 -25.121  0.00  0.00    +0.003 C 
ATOM      8  C   UNL     1      33.636 -10.148 -23.865  0.00  0.00    +0.053 C 
ATOM      9  C   UNL     1      34.600  -9.754 -24.790  0.00  0.00    +0.015 C 
ENDROOT
BRANCH   8  11
ATOM     10  O   UNL     1      32.735 -12.450 -25.567  0.00  0.00    -0.252 OA
ATOM     11  N   UNL     1      33.491 -11.501 -23.553  0.00  0.00    -0.268 N 
ATOM     12  N   UNL     1      33.055 -13.767 -23.694  0.00  0.00    -0.285 N 
ATOM     13  C   UNL     1      33.064 -12.552 -24.388  0.00  0.00    +0.305 C 
ATOM     14  H   UNL     1      33.719 -11.753 -22.628  0.00  0.00    +0.156 HD
ATOM     15  H   UNL     1      33.332 -13.770 -22.750  0.00  0.00    +0.151 HD
BRANCH  12  16
ATOM     16  C   UNL     1      32.659 -15.018 -24.300  0.00  0.00    +0.118 C 
BRANCH  16  17
ATOM     17  C   UNL     1      33.287 -16.197 -23.615  0.00  0.00    -0.003 C 
ATOM     18  C   UNL     1      33.052 -17.486 -24.090  0.00  0.00    -0.003 C 
ATOM     19  C   UNL     1      34.107 -16.002 -22.503  0.00  0.00    -0.003 C 
ATOM     20  C   UNL     1      33.636 -18.582 -23.454  0.00  0.00    -0.000 C 
ATOM     21  C   UNL     1      34.691 -17.098 -21.867  0.00  0.00    -0.000 C 
ATOM     22  C   UNL     1      34.455 -18.388 -22.342  0.00  0.00    -0.000 C 
ENDBRANCH  16  17
ENDBRANCH  12  16
ENDBRANCH   8  11
BRANCH   1  23
ATOM     23  C   UNL     1      31.259  -6.719 -22.164  0.00  0.00    +0.097 C 
BRANCH  23  24
ATOM     24  C   UNL     1      31.725  -6.796 -20.703  0.00  0.00    +0.040 C 
BRANCH  24  25
ATOM     25  C   UNL     1      30.668  -7.319 -19.704  0.00  0.00    +0.091 C 
BRANCH  25  26
ATOM     26  N   UNL     1      30.778  -8.763 -19.433  0.00  0.00    -0.246 NA
ATOM     27  N   UNL     1      30.900 -10.734 -18.419  0.00  0.00    -0.251 NA
ATOM     28  C   UNL     1      30.901  -9.764 -20.363  0.00  0.00    +0.125 C 
ATOM     29  C   UNL     1      30.781  -9.381 -18.272  0.00  0.00    +0.201 C 
ATOM     30  C   UNL     1      30.978 -10.997 -19.758  0.00  0.00    +0.124 C 
BRANCH  30  33
ATOM     31  O   UNL     1      31.225 -12.487 -21.576  0.00  0.00    -0.269 OA
ATOM     32  N   UNL     1      31.133 -13.399 -19.489  0.00  0.00    -0.324 N 
ATOM     33  C   UNL     1      31.109 -12.289 -20.343  0.00  0.00    +0.257 C 
ATOM     34  H   UNL     1      31.222 -14.305 -19.862  0.00  0.00    +0.145 HD
ATOM     35  H   UNL     1      31.059 -13.273 -18.515  0.00  0.00    +0.145 HD
ENDBRANCH  30  33
ENDBRANCH  25  26
BRANCH  25  36
ATOM     36  C   UNL     1      30.723  -6.520 -18.391  0.00  0.00    +0.153 C 
BRANCH  36  37
ATOM     37  O   UNL     1      31.957  -5.816 -18.310  0.00  0.00    -0.381 OA
ATOM     38  H   UNL     1      31.824  -4.898 -18.596  0.00  0.00    +0.210 HD
ENDBRANCH  36  37
ENDBRANCH  25  36
ENDBRANCH  24  25
ENDBRANCH  23  24
ENDBRANCH   1  23
TORSDOF 10
ENDMDL
MODEL 7
REMARK VINA RESULT:     -10.8      9.459     14.150
REMARK  Name = 447546
REMARK  10 active torsions:
REMARK  status: ('A' for Active; 'I' for Inactive)
REMARK    1  A    between atoms: N_1  and  C_23
REMARK    2  A    between atoms: C_8  and  N_11
REMARK    3  A    between atoms: N_12  and  C_16
REMARK    4  A    between atoms: C_16  and  C_17
REMARK    5  A    between atoms: C_23  and  C_24
REMARK    6  A    between atoms: C_24  and  C_25
REMARK    7  A    between atoms: C_25  and  N_26
REMARK    8  A    between atoms: C_25  and  C_36
REMARK    9  A    between atoms: C_30  and  C_33
REMARK   10  A    between atoms: C_36  and  O_37
REMARK                            x       y       z     vdW  Elec       q    Type
REMARK                         _______ _______ _______ _____ _____    ______ ____
ROOT
ATOM      1  N   UNL     1      32.085 -12.914 -21.462  0.00  0.00    -0.286 N 
ATOM      2  C   UNL     1      31.546 -11.713 -21.058  0.00  0.00    +0.053 C 
ATOM      3  C   UNL     1      31.157 -11.866 -19.725  0.00  0.00    +0.015 C 
ATOM      4  C   UNL     1      32.051 -13.817 -20.434  0.00  0.00    +0.065 C 
ATOM      5  C   UNL     1      31.482 -13.197 -19.345  0.00  0.00    +0.017 C 
ATOM      6  C   UNL     1      31.375 -10.516 -21.763  0.00  0.00    +0.030 C 
ATOM      7  C   UNL     1      30.568 -10.771 -19.061  0.00  0.00    +0.003 C 
ATOM      8  C   UNL     1      30.789  -9.444 -21.083  0.00  0.00    +0.053 C 
ATOM      9  C   UNL     1      30.392  -9.567 -19.753  0.00  0.00    +0.015 C 
ENDROOT
BRANCH   8  11
ATOM     10  O   UNL     1      32.275  -6.848 -20.846  0.00  0.00    -0.252 OA
ATOM     11  N   UNL     1      30.602  -8.231 -21.749  0.00  0.00    -0.268 N 
ATOM     12  N   UNL     1      30.826  -6.042 -22.457  0.00  0.00    -0.285 N 
ATOM     13  C   UNL     1      31.328  -7.032 -21.605  0.00  0.00    +0.305 C 
ATOM     14  H   UNL     1      29.868  -8.212 -22.405  0.00  0.00    +0.156 HD
ATOM     15  H   UNL     1      30.064  -6.264 -23.038  0.00  0.00    +0.151 HD
BRANCH  12  16
ATOM     16  C   UNL     1      31.376  -4.707 -22.524  0.00  0.00    +0.118 C 
BRANCH  16  17
ATOM     17  C   UNL     1      32.315  -4.544 -23.684  0.00  0.00    -0.003 C 
ATOM     18  C   UNL     1      32.082  -3.553 -24.637  0.00  0.00    -0.003 C 
ATOM     19  C   UNL     1      33.422  -5.384 -23.809  0.00  0.00    -0.003 C 
ATOM     20  C   UNL     1      32.954  -3.402 -25.714  0.00  0.00    -0.000 C 
ATOM     21  C   UNL     1      34.294  -5.233 -24.887  0.00  0.00    -0.000 C 
ATOM     22  C   UNL     1      34.060  -4.242 -25.839  0.00  0.00    -0.000 C 
ENDBRANCH  16  17
ENDBRANCH  12  16
ENDBRANCH   8  11
BRANCH   1  23
ATOM     23  C   UNL     1      32.614 -13.198 -22.779  0.00  0.00    +0.097 C 
BRANCH  23  24
ATOM     24  C   UNL     1      33.831 -14.133 -22.783  0.00  0.00    +0.040 C 
BRANCH  24  25
ATOM     25  C   UNL     1      33.734 -15.331 -23.754  0.00  0.00    +0.091 C 
BRANCH  25  26
ATOM     26  N   UNL     1      33.918 -16.637 -23.098  0.00  0.00    -0.246 NA
ATOM     27  N   UNL     1      33.895 -18.808 -22.637  0.00  0.00    -0.251 NA
ATOM     28  C   UNL     1      34.526 -16.869 -21.890  0.00  0.00    +0.125 C 
ATOM     29  C   UNL     1      33.550 -17.826 -23.522  0.00  0.00    +0.201 C 
ATOM     30  C   UNL     1      34.524 -18.209 -21.582  0.00  0.00    +0.124 C 
BRANCH  30  33
ATOM     31  O   UNL     1      34.420 -19.761 -19.802  0.00  0.00    -0.269 OA
ATOM     32  N   UNL     1      36.338 -18.548 -20.013  0.00  0.00    -0.324 N 
ATOM     33  C   UNL     1      35.045 -18.879 -20.438  0.00  0.00    +0.257 C 
ATOM     34  H   UNL     1      36.726 -18.992 -19.226  0.00  0.00    +0.145 HD
ATOM     35  H   UNL     1      36.858 -17.870 -20.503  0.00  0.00    +0.145 HD
ENDBRANCH  30  33
ENDBRANCH  25  26
BRANCH  25  36
ATOM     36  C   UNL     1      32.402 -15.299 -24.522  0.00  0.00    +0.153 C 
BRANCH  36  37
ATOM     37  O   UNL     1      32.618 -14.791 -25.834  0.00  0.00    -0.381 OA
ATOM     38  H   UNL     1      33.474 -14.336 -25.867  0.00  0.00    +0.210 HD
ENDBRANCH  36  37
ENDBRANCH  25  36
ENDBRANCH  24  25
ENDBRANCH  23  24
ENDBRANCH   1  23
TORSDOF 10
ENDMDL
MODEL 8
REMARK VINA RESULT:     -10.7      2.900      6.267
REMARK  Name = 447546
REMARK  10 active torsions:
REMARK  status: ('A' for Active; 'I' for Inactive)
REMARK    1  A    between atoms: N_1  and  C_23
REMARK    2  A    between atoms: C_8  and  N_11
REMARK    3  A    between atoms: N_12  and  C_16
REMARK    4  A    between atoms: C_16  and  C_17
REMARK    5  A    between atoms: C_23  and  C_24
REMARK    6  A    between atoms: C_24  and  C_25
REMARK    7  A    between atoms: C_25  and  N_26
REMARK    8  A    between atoms: C_25  and  C_36
REMARK    9  A    between atoms: C_30  and  C_33
REMARK   10  A    between atoms: C_36  and  O_37
REMARK                            x       y       z     vdW  Elec       q    Type
REMARK                         _______ _______ _______ _____ _____    ______ ____
ROOT
ATOM      1  N   UNL     1      33.356 -22.167 -17.385  0.00  0.00    -0.286 N 
ATOM      2  C   UNL     1      33.908 -21.315 -18.315  0.00  0.00    +0.053 C 
ATOM      3  C   UNL     1      35.252 -21.149 -17.971  0.00  0.00    +0.015 C 
ATOM      4  C   UNL     1      34.301 -22.545 -16.469  0.00  0.00    +0.065 C 
ATOM      5  C   UNL     1      35.485 -21.931 -16.806  0.00  0.00    +0.017 C 
ATOM      6  C   UNL     1      33.328 -20.686 -19.422  0.00  0.00    +0.030 C 
ATOM      7  C   UNL     1      36.058 -20.313 -18.770  0.00  0.00    +0.003 C 
ATOM      8  C   UNL     1      34.147 -19.862 -20.199  0.00  0.00    +0.053 C 
ATOM      9  C   UNL     1      35.491 -19.678 -19.881  0.00  0.00    +0.015 C 
ENDROOT
BRANCH   8  11
ATOM     10  O   UNL     1      35.432 -18.014 -22.185  0.00  0.00    -0.252 OA
ATOM     11  N   UNL     1      33.609 -19.217 -21.314  0.00  0.00    -0.268 N 
ATOM     12  N   UNL     1      33.360 -17.914 -23.208  0.00  0.00    -0.285 N 
ATOM     13  C   UNL     1      34.252 -18.354 -22.223  0.00  0.00    +0.305 C 
ATOM     14  H   UNL     1      32.654 -19.388 -21.487  0.00  0.00    +0.156 HD
ATOM     15  H   UNL     1      32.429 -18.230 -23.173  0.00  0.00    +0.151 HD
BRANCH  12  16
ATOM     16  C   UNL     1      33.744 -17.017 -24.274  0.00  0.00    +0.118 C 
BRANCH  16  17
ATOM     17  C   UNL     1      33.442 -15.585 -23.940  0.00  0.00    -0.003 C 
ATOM     18  C   UNL     1      33.919 -15.029 -22.755  0.00  0.00    -0.003 C 
ATOM     19  C   UNL     1      32.683 -14.810 -24.818  0.00  0.00    -0.003 C 
ATOM     20  C   UNL     1      33.638 -13.699 -22.445  0.00  0.00    -0.000 C 
ATOM     21  C   UNL     1      32.402 -13.479 -24.509  0.00  0.00    -0.000 C 
ATOM     22  C   UNL     1      32.880 -12.924 -23.322  0.00  0.00    -0.000 C 
ENDBRANCH  16  17
ENDBRANCH  12  16
ENDBRANCH   8  11
BRANCH   1  23
ATOM     23  C   UNL     1      31.978 -22.609 -17.364  0.00  0.00    +0.097 C 
BRANCH  23  24
ATOM     24  C   UNL     1      31.184 -22.142 -16.135  0.00  0.00    +0.040 C 
BRANCH  24  25
ATOM     25  C   UNL     1      30.408 -23.255 -15.394  0.00  0.00    +0.091 C 
BRANCH  25  26
ATOM     26  N   UNL     1      31.074 -23.717 -14.164  0.00  0.00    -0.246 NA
ATOM     27  N   UNL     1      31.526 -24.731 -12.242  0.00  0.00    -0.251 NA
ATOM     28  C   UNL     1      32.333 -23.377 -13.737  0.00  0.00    +0.125 C 
ATOM     29  C   UNL     1      30.616 -24.534 -13.241  0.00  0.00    +0.201 C 
ATOM     30  C   UNL     1      32.636 -23.994 -12.545  0.00  0.00    +0.124 C 
BRANCH  30  33
ATOM     31  O   UNL     1      34.028 -24.619 -10.740  0.00  0.00    -0.269 OA
ATOM     32  N   UNL     1      34.824 -23.028 -12.165  0.00  0.00    -0.324 N 
ATOM     33  C   UNL     1      33.823 -23.919 -11.760  0.00  0.00    +0.257 C 
ATOM     34  H   UNL     1      35.655 -22.953 -11.644  0.00  0.00    +0.145 HD
ATOM     35  H   UNL     1      34.697 -22.477 -12.971  0.00  0.00    +0.145 HD
ENDBRANCH  30  33
ENDBRANCH  25  26
BRANCH  25  36
ATOM     36  C   UNL     1      28.971 -22.801 -15.088  0.00  0.00    +0.153 C 
BRANCH  36  37
ATOM     37  O   UNL     1      28.392 -22.227 -16.255  0.00  0.00    -0.381 OA
ATOM     38  H   UNL     1      29.080 -21.771 -16.765  0.00  0.00    +0.210 HD
ENDBRANCH  36  37
ENDBRANCH  25  36
ENDBRANCH  24  25
ENDBRANCH  23  24
ENDBRANCH   1  23
TORSDOF 10
ENDMDL
MODEL 9
REMARK VINA RESULT:     -10.5      1.711      2.335
REMARK  Name = 447546
REMARK  10 active torsions:
REMARK  status: ('A' for Active; 'I' for Inactive)
REMARK    1  A    between atoms: N_1  and  C_23
REMARK    2  A    between atoms: C_8  and  N_11
REMARK    3  A    between atoms: N_12  and  C_16
REMARK    4  A    between atoms: C_16  and  C_17
REMARK    5  A    between atoms: C_23  and  C_24
REMARK    6  A    between atoms: C_24  and  C_25
REMARK    7  A    between atoms: C_25  and  N_26
REMARK    8  A    between atoms: C_25  and  C_36
REMARK    9  A    between atoms: C_30  and  C_33
REMARK   10  A    between atoms: C_36  and  O_37
REMARK                            x       y       z     vdW  Elec       q    Type
REMARK                         _______ _______ _______ _____ _____    ______ ____
ROOT
ATOM      1  N   UNL     1      32.003 -24.310 -13.557  0.00  0.00    -0.286 N 
ATOM      2  C   UNL     1      31.364 -23.590 -14.542  0.00  0.00    +0.053 C 
ATOM      3  C   UNL     1      29.991 -23.710 -14.312  0.00  0.00    +0.015 C 
ATOM      4  C   UNL     1      31.084 -24.877 -12.714  0.00  0.00    +0.065 C 
ATOM      5  C   UNL     1      29.831 -24.524 -13.156  0.00  0.00    +0.017 C 
ATOM      6  C   UNL     1      31.890 -22.851 -15.607  0.00  0.00    +0.030 C 
ATOM      7  C   UNL     1      29.098 -23.061 -15.188  0.00  0.00    +0.003 C 
ATOM      8  C   UNL     1      30.984 -22.216 -16.462  0.00  0.00    +0.053 C 
ATOM      9  C   UNL     1      29.610 -22.318 -16.257  0.00  0.00    +0.015 C 
ENDROOT
BRANCH   8  11
ATOM     10  O   UNL     1      33.446 -22.586 -18.139  0.00  0.00    -0.252 OA
ATOM     11  N   UNL     1      31.468 -21.467 -17.536  0.00  0.00    -0.268 N 
ATOM     12  N   UNL     1      32.764 -20.701 -19.291  0.00  0.00    -0.285 N 
ATOM     13  C   UNL     1      32.634 -21.679 -18.299  0.00  0.00    +0.305 C 
ATOM     14  H   UNL     1      30.922 -20.689 -17.796  0.00  0.00    +0.156 HD
ATOM     15  H   UNL     1      32.072 -20.005 -19.358  0.00  0.00    +0.151 HD
BRANCH  12  16
ATOM     16  C   UNL     1      33.867 -20.667 -20.224  0.00  0.00    +0.118 C 
BRANCH  16  17
ATOM     17  C   UNL     1      33.937 -19.364 -20.966  0.00  0.00    -0.003 C 
ATOM     18  C   UNL     1      33.496 -19.287 -22.286  0.00  0.00    -0.003 C 
ATOM     19  C   UNL     1      34.442 -18.228 -20.332  0.00  0.00    -0.003 C 
ATOM     20  C   UNL     1      33.560 -18.076 -22.974  0.00  0.00    -0.000 C 
ATOM     21  C   UNL     1      34.507 -17.016 -21.021  0.00  0.00    -0.000 C 
ATOM     22  C   UNL     1      34.066 -16.941 -22.342  0.00  0.00    -0.000 C 
ENDBRANCH  16  17
ENDBRANCH  12  16
ENDBRANCH   8  11
BRANCH   1  23
ATOM     23  C   UNL     1      33.436 -24.455 -13.418  0.00  0.00    +0.097 C 
BRANCH  23  24
ATOM     24  C   UNL     1      33.989 -23.996 -12.061  0.00  0.00    +0.040 C 
BRANCH  24  25
ATOM     25  C   UNL     1      35.528 -23.881 -11.985  0.00  0.00    +0.091 C 
BRANCH  25  26
ATOM     26  N   UNL     1      36.145 -23.400 -13.233  0.00  0.00    -0.246 NA
ATOM     27  N   UNL     1      37.463 -23.170 -15.004  0.00  0.00    -0.251 NA
ATOM     28  C   UNL     1      35.740 -22.325 -13.986  0.00  0.00    +0.125 C 
ATOM     29  C   UNL     1      37.184 -23.886 -13.875  0.00  0.00    +0.201 C 
ATOM     30  C   UNL     1      36.544 -22.163 -15.090  0.00  0.00    +0.124 C 
BRANCH  30  33
ATOM     31  O   UNL     1      36.916 -20.015 -16.004  0.00  0.00    -0.269 OA
ATOM     32  N   UNL     1      35.915 -21.558 -17.350  0.00  0.00    -0.324 N 
ATOM     33  C   UNL     1      36.479 -21.185 -16.124  0.00  0.00    +0.257 C 
ATOM     34  H   UNL     1      35.856 -20.906 -18.083  0.00  0.00    +0.145 HD
ATOM     35  H   UNL     1      35.578 -22.475 -17.478  0.00  0.00    +0.145 HD
ENDBRANCH  30  33
ENDBRANCH  25  26
BRANCH  25  36
ATOM     36  C   UNL     1      35.946 -22.991 -10.802  0.00  0.00    +0.153 C 
BRANCH  36  37
ATOM     37  O   UNL     1      35.603 -23.631  -9.578  0.00  0.00    -0.381 OA
ATOM     38  H   UNL     1      34.691 -23.404  -9.340  0.00  0.00    +0.210 HD
ENDBRANCH  36  37
ENDBRANCH  25  36
ENDBRANCH  24  25
ENDBRANCH  23  24
ENDBRANCH   1  23
TORSDOF 10
ENDMDL
