MODEL 1
REMARK VINA RESULT:     -12.1      0.000      0.000
REMARK  Name = 5288527
REMARK  4 active torsions:
REMARK  status: ('A' for Active; 'I' for Inactive)
REMARK    1  A    between atoms: N_1  and  C_18
REMARK    2  A    between atoms: C_4  and  C_11
REMARK    3  A    between atoms: C_19  and  S_24
REMARK    4  A    between atoms: S_24  and  N_27
REMARK                            x       y       z     vdW  Elec       q    Type
REMARK                         _______ _______ _______ _____ _____    ______ ____
ROOT
ATOM      1  N   UNL     1      31.788 -24.273 -12.335  0.00  0.00    -0.247 N 
ATOM      2  N   UNL     1      33.548 -23.438 -13.641  0.00  0.00    -0.336 NA
ATOM      3  N   UNL     1      33.982 -24.570 -11.559  0.00  0.00    -0.170 NA
ATOM      4  C   UNL     1      34.879 -23.278 -13.783  0.00  0.00    +0.161 C 
ATOM      5  C   UNL     1      33.175 -24.084 -12.521  0.00  0.00    +0.149 C 
ATOM      6  C   UNL     1      35.812 -23.726 -12.875  0.00  0.00    +0.056 C 
ATOM      7  C   UNL     1      35.300 -24.373 -11.769  0.00  0.00    +0.114 C 
ATOM      8  H   UNL     1      31.561 -24.750 -11.503  0.00  0.00    +0.165 HD
ENDROOT
BRANCH   4  11
ATOM      9  N   UNL     1      34.471 -22.382 -16.078  0.00  0.00    -0.246 N 
ATOM     10  N   UNL     1      36.442 -21.437 -16.558  0.00  0.00    -0.227 NA
ATOM     11  C   UNL     1      35.275 -22.584 -14.986  0.00  0.00    +0.107 C 
ATOM     12  C   UNL     1      35.229 -21.677 -17.011  0.00  0.00    +0.139 C 
ATOM     13  C   UNL     1      36.476 -21.995 -15.305  0.00  0.00    +0.118 C 
ATOM     14  C   UNL     1      33.152 -22.771 -16.292  0.00  0.00    +0.071 C 
ATOM     15  C   UNL     1      34.593 -21.349 -18.244  0.00  0.00    +0.035 C 
ATOM     16  C   UNL     1      32.561 -22.458 -17.456  0.00  0.00    +0.017 C 
ATOM     17  C   UNL     1      33.317 -21.723 -18.458  0.00  0.00    +0.004 C 
ENDBRANCH   4  11
BRANCH   1  18
ATOM     18  C   UNL     1      30.666 -23.915 -13.105  0.00  0.00    +0.058 C 
ATOM     19  C   UNL     1      28.440 -23.202 -14.634  0.00  0.00    +0.122 C 
ATOM     20  C   UNL     1      29.718 -24.879 -13.455  0.00  0.00    +0.017 C 
ATOM     21  C   UNL     1      30.497 -22.592 -13.522  0.00  0.00    +0.017 C 
ATOM     22  C   UNL     1      28.607 -24.523 -14.218  0.00  0.00    +0.021 C 
ATOM     23  C   UNL     1      29.385 -22.237 -14.285  0.00  0.00    +0.021 C 
BRANCH  19  24
ATOM     24  S   UNL     1      27.049 -22.756 -15.590  0.00  0.00    +0.057 S 
ATOM     25  O   UNL     1      25.913 -22.587 -14.696  0.00  0.00    -0.153 OA
ATOM     26  O   UNL     1      27.431 -21.674 -16.486  0.00  0.00    -0.153 OA
BRANCH  24  27
ATOM     27  N   UNL     1      26.819 -24.176 -16.513  0.00  0.00    -0.203 NA
ATOM     28  H   UNL     1      25.823 -24.387 -16.568  0.00  0.00    +0.144 HD
ATOM     29  H   UNL     1      27.309 -24.953 -16.068  0.00  0.00    +0.144 HD
ENDBRANCH  24  27
ENDBRANCH  19  24
ENDBRANCH   1  18
TORSDOF 4
ENDMDL
MODEL 2
REMARK VINA RESULT:     -12.0      0.728      1.301
REMARK  Name = 5288527
REMARK  4 active torsions:
REMARK  status: ('A' for Active; 'I' for Inactive)
REMARK    1  A    between atoms: N_1  and  C_18
REMARK    2  A    between atoms: C_4  and  C_11
REMARK    3  A    between atoms: C_19  and  S_24
REMARK    4  A    between atoms: S_24  and  N_27
REMARK                            x       y       z     vdW  Elec       q    Type
REMARK                         _______ _______ _______ _____ _____    ______ ____
ROOT
ATOM      1  N   UNL     1      31.757 -24.216 -12.369  0.00  0.00    -0.247 N 
ATOM      2  N   UNL     1      33.546 -23.375 -13.631  0.00  0.00    -0.336 NA
ATOM      3  N   UNL     1      33.925 -24.433 -11.499  0.00  0.00    -0.170 NA
ATOM      4  C   UNL     1      34.878 -23.185 -13.726  0.00  0.00    +0.161 C 
ATOM      5  C   UNL     1      33.145 -23.997 -12.506  0.00  0.00    +0.149 C 
ATOM      6  C   UNL     1      35.785 -23.582 -12.769  0.00  0.00    +0.056 C 
ATOM      7  C   UNL     1      35.245 -24.208 -11.664  0.00  0.00    +0.114 C 
ATOM      8  H   UNL     1      31.509 -24.673 -11.532  0.00  0.00    +0.165 HD
ENDROOT
BRANCH   4  11
ATOM      9  N   UNL     1      34.528 -22.340 -16.050  0.00  0.00    -0.246 N 
ATOM     10  N   UNL     1      36.509 -21.403 -16.499  0.00  0.00    -0.227 NA
ATOM     11  C   UNL     1      35.304 -22.517 -14.933  0.00  0.00    +0.107 C 
ATOM     12  C   UNL     1      35.308 -21.655 -16.978  0.00  0.00    +0.139 C 
ATOM     13  C   UNL     1      36.512 -21.933 -15.234  0.00  0.00    +0.118 C 
ATOM     14  C   UNL     1      33.215 -22.736 -16.289  0.00  0.00    +0.071 C 
ATOM     15  C   UNL     1      34.704 -21.355 -18.234  0.00  0.00    +0.035 C 
ATOM     16  C   UNL     1      32.654 -22.450 -17.475  0.00  0.00    +0.017 C 
ATOM     17  C   UNL     1      33.434 -21.736 -18.473  0.00  0.00    +0.004 C 
ENDBRANCH   4  11
BRANCH   1  18
ATOM     18  C   UNL     1      30.658 -23.910 -13.193  0.00  0.00    +0.058 C 
ATOM     19  C   UNL     1      28.476 -23.303 -14.827  0.00  0.00    +0.122 C 
ATOM     20  C   UNL     1      30.480 -22.610 -13.670  0.00  0.00    +0.017 C 
ATOM     21  C   UNL     1      29.741 -24.906 -13.536  0.00  0.00    +0.017 C 
ATOM     22  C   UNL     1      29.391 -22.307 -14.486  0.00  0.00    +0.021 C 
ATOM     23  C   UNL     1      28.652 -24.603 -14.352  0.00  0.00    +0.021 C 
BRANCH  19  24
ATOM     24  S   UNL     1      27.112 -22.925 -15.849  0.00  0.00    +0.057 S 
ATOM     25  O   UNL     1      27.432 -21.730 -16.617  0.00  0.00    -0.153 OA
ATOM     26  O   UNL     1      26.698 -24.138 -16.538  0.00  0.00    -0.153 OA
BRANCH  24  27
ATOM     27  N   UNL     1      25.930 -22.528 -14.680  0.00  0.00    -0.203 NA
ATOM     28  H   UNL     1      26.365 -22.007 -13.920  0.00  0.00    +0.144 HD
ATOM     29  H   UNL     1      25.515 -23.385 -14.312  0.00  0.00    +0.144 HD
ENDBRANCH  24  27
ENDBRANCH  19  24
ENDBRANCH   1  18
TORSDOF 4
ENDMDL
MODEL 3
REMARK VINA RESULT:     -11.7      4.952      6.954
REMARK  Name = 5288527
REMARK  4 active torsions:
REMARK  status: ('A' for Active; 'I' for Inactive)
REMARK    1  A    between atoms: N_1  and  C_18
REMARK    2  A    between atoms: C_4  and  C_11
REMARK    3  A    between atoms: C_19  and  S_24
REMARK    4  A    between atoms: S_24  and  N_27
REMARK                            x       y       z     vdW  Elec       q    Type
REMARK                         _______ _______ _______ _____ _____    ______ ____
ROOT
ATOM      1  N   UNL     1      33.935 -24.621 -12.226  0.00  0.00    -0.247 N 
ATOM      2  N   UNL     1      33.065 -23.600 -14.150  0.00  0.00    -0.336 NA
ATOM      3  N   UNL     1      31.662 -24.042 -12.242  0.00  0.00    -0.170 NA
ATOM      4  C   UNL     1      31.988 -23.071 -14.766  0.00  0.00    +0.161 C 
ATOM      5  C   UNL     1      32.833 -24.060 -12.906  0.00  0.00    +0.149 C 
ATOM      6  C   UNL     1      30.736 -22.991 -14.199  0.00  0.00    +0.056 C 
ATOM      7  C   UNL     1      30.630 -23.499 -12.920  0.00  0.00    +0.114 C 
ATOM      8  H   UNL     1      33.720 -24.945 -11.321  0.00  0.00    +0.165 HD
ENDROOT
BRANCH   4  11
ATOM      9  N   UNL     1      33.468 -22.188 -16.574  0.00  0.00    -0.246 N 
ATOM     10  N   UNL     1      32.018 -21.905 -18.254  0.00  0.00    -0.227 NA
ATOM     11  C   UNL     1      32.241 -22.579 -16.099  0.00  0.00    +0.107 C 
ATOM     12  C   UNL     1      33.279 -21.785 -17.894  0.00  0.00    +0.139 C 
ATOM     13  C   UNL     1      31.371 -22.396 -17.148  0.00  0.00    +0.118 C 
ATOM     14  C   UNL     1      34.702 -22.167 -15.931  0.00  0.00    +0.071 C 
ATOM     15  C   UNL     1      34.430 -21.331 -18.602  0.00  0.00    +0.035 C 
ATOM     16  C   UNL     1      35.781 -21.738 -16.604  0.00  0.00    +0.017 C 
ATOM     17  C   UNL     1      35.627 -21.308 -17.985  0.00  0.00    +0.004 C 
ENDBRANCH   4  11
BRANCH   1  18
ATOM     18  C   UNL     1      35.283 -24.809 -12.588  0.00  0.00    +0.058 C 
ATOM     19  C   UNL     1      37.955 -25.181 -13.306  0.00  0.00    +0.122 C 
ATOM     20  C   UNL     1      36.302 -24.302 -11.779  0.00  0.00    +0.017 C 
ATOM     21  C   UNL     1      35.604 -25.503 -13.756  0.00  0.00    +0.017 C 
ATOM     22  C   UNL     1      37.637 -24.488 -12.138  0.00  0.00    +0.021 C 
ATOM     23  C   UNL     1      36.938 -25.688 -14.115  0.00  0.00    +0.021 C 
BRANCH  19  24
ATOM     24  S   UNL     1      39.626 -25.414 -13.756  0.00  0.00    +0.057 S 
ATOM     25  O   UNL     1      40.306 -24.128 -13.676  0.00  0.00    -0.153 OA
ATOM     26  O   UNL     1      40.150 -26.555 -13.019  0.00  0.00    -0.153 OA
BRANCH  24  27
ATOM     27  N   UNL     1      39.463 -25.851 -15.400  0.00  0.00    -0.203 NA
ATOM     28  H   UNL     1      39.625 -25.033 -15.986  0.00  0.00    +0.144 HD
ATOM     29  H   UNL     1      38.522 -26.207 -15.565  0.00  0.00    +0.144 HD
ENDBRANCH  24  27
ENDBRANCH  19  24
ENDBRANCH   1  18
TORSDOF 4
ENDMDL
MODEL 4
REMARK VINA RESULT:     -11.0      4.322      6.789
REMARK  Name = 5288527
REMARK  4 active torsions:
REMARK  status: ('A' for Active; 'I' for Inactive)
REMARK    1  A    between atoms: N_1  and  C_18
REMARK    2  A    between atoms: C_4  and  C_11
REMARK    3  A    between atoms: C_19  and  S_24
REMARK    4  A    between atoms: S_24  and  N_27
REMARK                            x       y       z     vdW  Elec       q    Type
REMARK                         _______ _______ _______ _____ _____    ______ ____
ROOT
ATOM      1  N   UNL     1      31.657 -21.913 -17.721  0.00  0.00    -0.247 N 
ATOM      2  N   UNL     1      33.167 -22.572 -16.050  0.00  0.00    -0.336 NA
ATOM      3  N   UNL     1      30.850 -23.226 -15.952  0.00  0.00    -0.170 NA
ATOM      4  C   UNL     1      33.362 -23.244 -14.898  0.00  0.00    +0.161 C 
ATOM      5  C   UNL     1      31.904 -22.605 -16.515  0.00  0.00    +0.149 C 
ATOM      6  C   UNL     1      32.372 -23.921 -14.221  0.00  0.00    +0.056 C 
ATOM      7  C   UNL     1      31.121 -23.878 -14.802  0.00  0.00    +0.114 C 
ATOM      8  H   UNL     1      30.721 -21.964 -18.023  0.00  0.00    +0.165 HD
ENDROOT
BRANCH   4  11
ATOM      9  N   UNL     1      35.510 -24.305 -14.193  0.00  0.00    -0.246 N 
ATOM     10  N   UNL     1      36.736 -22.523 -13.623  0.00  0.00    -0.227 NA
ATOM     11  C   UNL     1      34.718 -23.205 -14.403  0.00  0.00    +0.107 C 
ATOM     12  C   UNL     1      36.732 -23.836 -13.717  0.00  0.00    +0.139 C 
ATOM     13  C   UNL     1      35.493 -22.127 -14.047  0.00  0.00    +0.118 C 
ATOM     14  C   UNL     1      35.226 -25.653 -14.392  0.00  0.00    +0.071 C 
ATOM     15  C   UNL     1      37.729 -24.813 -13.425  0.00  0.00    +0.035 C 
ATOM     16  C   UNL     1      36.170 -26.566 -14.114  0.00  0.00    +0.017 C 
ATOM     17  C   UNL     1      37.461 -26.119 -13.613  0.00  0.00    +0.004 C 
ENDBRANCH   4  11
BRANCH   1  18
ATOM     18  C   UNL     1      32.488 -21.166 -18.577  0.00  0.00    +0.058 C 
ATOM     19  C   UNL     1      34.134 -19.683 -20.277  0.00  0.00    +0.122 C 
ATOM     20  C   UNL     1      33.874 -21.328 -18.527  0.00  0.00    +0.017 C 
ATOM     21  C   UNL     1      31.927 -20.260 -19.481  0.00  0.00    +0.017 C 
ATOM     22  C   UNL     1      34.696 -20.587 -19.375  0.00  0.00    +0.021 C 
ATOM     23  C   UNL     1      32.749 -19.519 -20.329  0.00  0.00    +0.021 C 
BRANCH  19  24
ATOM     24  S   UNL     1      35.162 -18.754 -21.339  0.00  0.00    +0.057 S 
ATOM     25  O   UNL     1      36.534 -18.865 -20.861  0.00  0.00    -0.153 OA
ATOM     26  O   UNL     1      34.846 -19.107 -22.715  0.00  0.00    -0.153 OA
BRANCH  24  27
ATOM     27  N   UNL     1      34.599 -17.170 -21.036  0.00  0.00    -0.203 NA
ATOM     28  H   UNL     1      35.389 -16.566 -20.809  0.00  0.00    +0.144 HD
ATOM     29  H   UNL     1      33.946 -17.185 -20.252  0.00  0.00    +0.144 HD
ENDBRANCH  24  27
ENDBRANCH  19  24
ENDBRANCH   1  18
TORSDOF 4
ENDMDL
MODEL 5
REMARK VINA RESULT:     -10.8      4.171      6.866
REMARK  Name = 5288527
REMARK  4 active torsions:
REMARK  status: ('A' for Active; 'I' for Inactive)
REMARK    1  A    between atoms: N_1  and  C_18
REMARK    2  A    between atoms: C_4  and  C_11
REMARK    3  A    between atoms: C_19  and  S_24
REMARK    4  A    between atoms: S_24  and  N_27
REMARK                            x       y       z     vdW  Elec       q    Type
REMARK                         _______ _______ _______ _____ _____    ______ ____
ROOT
ATOM      1  N   UNL     1      31.625 -22.020 -17.628  0.00  0.00    -0.247 N 
ATOM      2  N   UNL     1      33.077 -22.548 -15.862  0.00  0.00    -0.336 NA
ATOM      3  N   UNL     1      30.791 -23.312 -15.856  0.00  0.00    -0.170 NA
ATOM      4  C   UNL     1      33.244 -23.172 -14.679  0.00  0.00    +0.161 C 
ATOM      5  C   UNL     1      31.842 -22.658 -16.387  0.00  0.00    +0.149 C 
ATOM      6  C   UNL     1      32.254 -23.874 -14.029  0.00  0.00    +0.056 C 
ATOM      7  C   UNL     1      31.034 -23.911 -14.671  0.00  0.00    +0.114 C 
ATOM      8  H   UNL     1      30.709 -22.126 -17.973  0.00  0.00    +0.165 HD
ENDROOT
BRANCH   4  11
ATOM      9  N   UNL     1      34.904 -23.337 -12.820  0.00  0.00    -0.246 N 
ATOM     10  N   UNL     1      36.788 -22.672 -13.828  0.00  0.00    -0.227 NA
ATOM     11  C   UNL     1      34.570 -23.051 -14.119  0.00  0.00    +0.107 C 
ATOM     12  C   UNL     1      36.269 -23.090 -12.692  0.00  0.00    +0.139 C 
ATOM     13  C   UNL     1      35.741 -22.646 -14.715  0.00  0.00    +0.118 C 
ATOM     14  C   UNL     1      34.101 -23.789 -11.777  0.00  0.00    +0.071 C 
ATOM     15  C   UNL     1      36.850 -23.321 -11.411  0.00  0.00    +0.035 C 
ATOM     16  C   UNL     1      34.656 -24.004 -10.574  0.00  0.00    +0.017 C 
ATOM     17  C   UNL     1      36.079 -23.758 -10.396  0.00  0.00    +0.004 C 
ENDBRANCH   4  11
BRANCH   1  18
ATOM     18  C   UNL     1      32.462 -21.261 -18.468  0.00  0.00    +0.058 C 
ATOM     19  C   UNL     1      34.121 -19.756 -20.135  0.00  0.00    +0.122 C 
ATOM     20  C   UNL     1      33.849 -21.392 -18.378  0.00  0.00    +0.017 C 
ATOM     21  C   UNL     1      31.907 -20.376 -19.395  0.00  0.00    +0.017 C 
ATOM     22  C   UNL     1      34.677 -20.640 -19.210  0.00  0.00    +0.021 C 
ATOM     23  C   UNL     1      32.735 -19.625 -20.227  0.00  0.00    +0.021 C 
BRANCH  19  24
ATOM     24  S   UNL     1      35.157 -18.814 -21.177  0.00  0.00    +0.057 S 
ATOM     25  O   UNL     1      36.534 -18.994 -20.739  0.00  0.00    -0.153 OA
ATOM     26  O   UNL     1      34.797 -19.089 -22.561  0.00  0.00    -0.153 OA
BRANCH  24  27
ATOM     27  N   UNL     1      34.658 -17.227 -20.786  0.00  0.00    -0.203 NA
ATOM     28  H   UNL     1      33.649 -17.216 -20.637  0.00  0.00    +0.144 HD
ATOM     29  H   UNL     1      34.897 -16.597 -21.552  0.00  0.00    +0.144 HD
ENDBRANCH  24  27
ENDBRANCH  19  24
ENDBRANCH   1  18
TORSDOF 4
ENDMDL
MODEL 6
REMARK VINA RESULT:      -9.6     13.073     15.380
REMARK  Name = 5288527
REMARK  4 active torsions:
REMARK  status: ('A' for Active; 'I' for Inactive)
REMARK    1  A    between atoms: N_1  and  C_18
REMARK    2  A    between atoms: C_4  and  C_11
REMARK    3  A    between atoms: C_19  and  S_24
REMARK    4  A    between atoms: S_24  and  N_27
REMARK                            x       y       z     vdW  Elec       q    Type
REMARK                         _______ _______ _______ _____ _____    ______ ____
ROOT
ATOM      1  N   UNL     1      31.592 -12.126 -19.873  0.00  0.00    -0.247 N 
ATOM      2  N   UNL     1      31.273  -9.981 -20.767  0.00  0.00    -0.336 NA
ATOM      3  N   UNL     1      30.941 -10.404 -18.419  0.00  0.00    -0.170 NA
ATOM      4  C   UNL     1      30.944  -8.694 -20.539  0.00  0.00    +0.161 C 
ATOM      5  C   UNL     1      31.252 -10.770 -19.677  0.00  0.00    +0.149 C 
ATOM      6  C   UNL     1      30.607  -8.190 -19.302  0.00  0.00    +0.056 C 
ATOM      7  C   UNL     1      30.622  -9.102 -18.267  0.00  0.00    +0.114 C 
ATOM      8  H   UNL     1      31.562 -12.665 -19.050  0.00  0.00    +0.165 HD
ENDROOT
BRANCH   4  11
ATOM      9  N   UNL     1      32.099  -7.312 -22.270  0.00  0.00    -0.246 N 
ATOM     10  N   UNL     1      30.381  -6.624 -23.527  0.00  0.00    -0.227 NA
ATOM     11  C   UNL     1      30.968  -7.851 -21.711  0.00  0.00    +0.107 C 
ATOM     12  C   UNL     1      31.689  -6.571 -23.375  0.00  0.00    +0.139 C 
ATOM     13  C   UNL     1      29.930  -7.415 -22.501  0.00  0.00    +0.118 C 
ATOM     14  C   UNL     1      33.428  -7.433 -21.873  0.00  0.00    +0.071 C 
ATOM     15  C   UNL     1      32.706  -5.910 -24.124  0.00  0.00    +0.035 C 
ATOM     16  C   UNL     1      34.380  -6.807 -22.583  0.00  0.00    +0.017 C 
ATOM     17  C   UNL     1      33.994  -6.022 -23.745  0.00  0.00    +0.004 C 
ENDBRANCH   4  11
BRANCH   1  18
ATOM     18  C   UNL     1      31.965 -12.859 -21.016  0.00  0.00    +0.058 C 
ATOM     19  C   UNL     1      32.706 -14.314 -23.281  0.00  0.00    +0.122 C 
ATOM     20  C   UNL     1      31.385 -12.572 -22.253  0.00  0.00    +0.017 C 
ATOM     21  C   UNL     1      32.917 -13.876 -20.915  0.00  0.00    +0.017 C 
ATOM     22  C   UNL     1      31.754 -13.298 -23.384  0.00  0.00    +0.021 C 
ATOM     23  C   UNL     1      33.286 -14.602 -22.046  0.00  0.00    +0.021 C 
BRANCH  19  24
ATOM     24  S   UNL     1      33.169 -15.224 -24.697  0.00  0.00    +0.057 S 
ATOM     25  O   UNL     1      33.121 -14.335 -25.850  0.00  0.00    -0.153 OA
ATOM     26  O   UNL     1      34.391 -15.956 -24.398  0.00  0.00    -0.153 OA
BRANCH  24  27
ATOM     27  N   UNL     1      31.876 -16.338 -24.806  0.00  0.00    -0.203 NA
ATOM     28  H   UNL     1      31.053 -15.866 -25.179  0.00  0.00    +0.144 HD
ATOM     29  H   UNL     1      31.667 -16.707 -23.878  0.00  0.00    +0.144 HD
ENDBRANCH  24  27
ENDBRANCH  19  24
ENDBRANCH   1  18
TORSDOF 4
ENDMDL
MODEL 7
REMARK VINA RESULT:      -9.3      3.958      7.207
REMARK  Name = 5288527
REMARK  4 active torsions:
REMARK  status: ('A' for Active; 'I' for Inactive)
REMARK    1  A    between atoms: N_1  and  C_18
REMARK    2  A    between atoms: C_4  and  C_11
REMARK    3  A    between atoms: C_19  and  S_24
REMARK    4  A    between atoms: S_24  and  N_27
REMARK                            x       y       z     vdW  Elec       q    Type
REMARK                         _______ _______ _______ _____ _____    ______ ____
ROOT
ATOM      1  N   UNL     1      35.914 -21.592 -17.142  0.00  0.00    -0.247 N 
ATOM      2  N   UNL     1      33.852 -22.290 -16.270  0.00  0.00    -0.336 NA
ATOM      3  N   UNL     1      35.921 -22.916 -15.206  0.00  0.00    -0.170 NA
ATOM      4  C   UNL     1      33.199 -22.977 -15.311  0.00  0.00    +0.161 C 
ATOM      5  C   UNL     1      35.193 -22.301 -16.157  0.00  0.00    +0.149 C 
ATOM      6  C   UNL     1      33.822 -23.649 -14.283  0.00  0.00    +0.056 C 
ATOM      7  C   UNL     1      35.200 -23.584 -14.281  0.00  0.00    +0.114 C 
ATOM      8  H   UNL     1      36.891 -21.627 -17.021  0.00  0.00    +0.165 HD
ENDROOT
BRANCH   4  11
ATOM      9  N   UNL     1      30.892 -23.599 -14.587  0.00  0.00    -0.246 N 
ATOM     10  N   UNL     1      29.637 -22.583 -16.135  0.00  0.00    -0.227 NA
ATOM     11  C   UNL     1      31.761 -22.963 -15.436  0.00  0.00    +0.107 C 
ATOM     12  C   UNL     1      29.607 -23.337 -15.056  0.00  0.00    +0.139 C 
ATOM     13  C   UNL     1      30.967 -22.348 -16.374  0.00  0.00    +0.118 C 
ATOM     14  C   UNL     1      31.159 -24.372 -13.460  0.00  0.00    +0.071 C 
ATOM     15  C   UNL     1      28.523 -23.903 -14.322  0.00  0.00    +0.035 C 
ATOM     16  C   UNL     1      30.133 -24.901 -12.775  0.00  0.00    +0.017 C 
ATOM     17  C   UNL     1      28.774 -24.652 -13.231  0.00  0.00    +0.004 C 
ENDBRANCH   4  11
BRANCH   1  18
ATOM     18  C   UNL     1      35.511 -20.843 -18.264  0.00  0.00    +0.058 C 
ATOM     19  C   UNL     1      34.712 -19.357 -20.489  0.00  0.00    +0.122 C 
ATOM     20  C   UNL     1      34.252 -21.052 -18.830  0.00  0.00    +0.017 C 
ATOM     21  C   UNL     1      36.369 -19.888 -18.814  0.00  0.00    +0.017 C 
ATOM     22  C   UNL     1      33.853 -20.311 -19.941  0.00  0.00    +0.021 C 
ATOM     23  C   UNL     1      35.970 -19.147 -19.925  0.00  0.00    +0.021 C 
BRANCH  19  24
ATOM     24  S   UNL     1      34.213 -18.429 -21.881  0.00  0.00    +0.057 S 
ATOM     25  O   UNL     1      35.285 -18.468 -22.866  0.00  0.00    -0.153 OA
ATOM     26  O   UNL     1      32.870 -18.844 -22.257  0.00  0.00    -0.153 OA
BRANCH  24  27
ATOM     27  N   UNL     1      34.135 -16.857 -21.214  0.00  0.00    -0.203 NA
ATOM     28  H   UNL     1      35.079 -16.487 -21.106  0.00  0.00    +0.144 HD
ATOM     29  H   UNL     1      33.678 -16.898 -20.302  0.00  0.00    +0.144 HD
ENDBRANCH  24  27
ENDBRANCH  19  24
ENDBRANCH   1  18
TORSDOF 4
ENDMDL
MODEL 8
REMARK VINA RESULT:      -9.1      2.600      4.185
REMARK  Name = 5288527
REMARK  4 active torsions:
REMARK  status: ('A' for Active; 'I' for Inactive)
REMARK    1  A    between atoms: N_1  and  C_18
REMARK    2  A    between atoms: C_4  and  C_11
REMARK    3  A    between atoms: C_19  and  S_24
REMARK    4  A    between atoms: S_24  and  N_27
REMARK                            x       y       z     vdW  Elec       q    Type
REMARK                         _______ _______ _______ _____ _____    ______ ____
ROOT
ATOM      1  N   UNL     1      33.453 -23.093 -15.022  0.00  0.00    -0.247 N 
ATOM      2  N   UNL     1      33.740 -21.861 -16.998  0.00  0.00    -0.336 NA
ATOM      3  N   UNL     1      35.629 -22.452 -15.623  0.00  0.00    -0.170 NA
ATOM      4  C   UNL     1      34.597 -21.245 -17.837  0.00  0.00    +0.161 C 
ATOM      5  C   UNL     1      34.316 -22.436 -15.925  0.00  0.00    +0.149 C 
ATOM      6  C   UNL     1      35.959 -21.188 -17.644  0.00  0.00    +0.056 C 
ATOM      7  C   UNL     1      36.425 -21.816 -16.507  0.00  0.00    +0.114 C 
ATOM      8  H   UNL     1      33.917 -23.499 -14.254  0.00  0.00    +0.165 HD
ENDROOT
BRANCH   4  11
ATOM      9  N   UNL     1      34.611 -19.804 -19.876  0.00  0.00    -0.246 N 
ATOM     10  N   UNL     1      32.491 -19.972 -20.570  0.00  0.00    -0.227 NA
ATOM     11  C   UNL     1      33.975 -20.630 -18.984  0.00  0.00    +0.107 C 
ATOM     12  C   UNL     1      33.664 -19.429 -20.825  0.00  0.00    +0.139 C 
ATOM     13  C   UNL     1      32.678 -20.716 -19.433  0.00  0.00    +0.118 C 
ATOM     14  C   UNL     1      35.936 -19.378 -19.899  0.00  0.00    +0.071 C 
ATOM     15  C   UNL     1      34.101 -18.560 -21.867  0.00  0.00    +0.035 C 
ATOM     16  C   UNL     1      36.340 -18.559 -20.883  0.00  0.00    +0.017 C 
ATOM     17  C   UNL     1      35.382 -18.143 -21.895  0.00  0.00    +0.004 C 
ENDBRANCH   4  11
BRANCH   1  18
ATOM     18  C   UNL     1      32.058 -23.283 -15.004  0.00  0.00    +0.058 C 
ATOM     19  C   UNL     1      29.292 -23.661 -14.968  0.00  0.00    +0.122 C 
ATOM     20  C   UNL     1      31.255 -22.670 -15.968  0.00  0.00    +0.017 C 
ATOM     21  C   UNL     1      31.474 -24.086 -14.023  0.00  0.00    +0.017 C 
ATOM     22  C   UNL     1      29.874 -22.858 -15.950  0.00  0.00    +0.021 C 
ATOM     23  C   UNL     1      30.092 -24.275 -14.004  0.00  0.00    +0.021 C 
BRANCH  19  24
ATOM     24  S   UNL     1      27.562 -23.896 -14.944  0.00  0.00    +0.057 S 
ATOM     25  O   UNL     1      26.942 -22.688 -14.418  0.00  0.00    -0.153 OA
ATOM     26  O   UNL     1      27.148 -24.417 -16.239  0.00  0.00    -0.153 OA
BRANCH  24  27
ATOM     27  N   UNL     1      27.418 -25.141 -13.781  0.00  0.00    -0.203 NA
ATOM     28  H   UNL     1      27.239 -24.730 -12.866  0.00  0.00    +0.144 HD
ATOM     29  H   UNL     1      28.285 -25.678 -13.750  0.00  0.00    +0.144 HD
ENDBRANCH  24  27
ENDBRANCH  19  24
ENDBRANCH   1  18
TORSDOF 4
ENDMDL
