MODEL 1
REMARK VINA RESULT:     -12.7      0.000      0.000
REMARK  Name = 10138993
REMARK  4 active torsions:
REMARK  status: ('A' for Active; 'I' for Inactive)
REMARK    1  A    between atoms: C_5  and  N_18
REMARK    2  A    between atoms: C_12  and  C_22
REMARK    3  A    between atoms: C_22  and  C_26
REMARK    4  A    between atoms: C_23  and  N_29
REMARK                            x       y       z     vdW  Elec       q    Type
REMARK                         _______ _______ _______ _____ _____    ______ ____
ROOT
ATOM      1  O   UNL     1      32.291 -20.741 -19.866  0.00  0.00    -0.274 OA
ATOM      2  N   UNL     1      31.134 -22.788 -16.382  0.00  0.00    -0.275 N 
ATOM      3  N   UNL     1      33.725 -21.316 -18.097  0.00  0.00    -0.268 N 
ATOM      4  N   UNL     1      31.575 -22.132 -17.468  0.00  0.00    -0.157 NA
ATOM      5  C   UNL     1      34.437 -23.245 -14.000  0.00  0.00    +0.069 C 
ATOM      6  C   UNL     1      34.465 -22.602 -15.244  0.00  0.00    +0.020 C 
ATOM      7  C   UNL     1      33.249 -23.776 -13.493  0.00  0.00    +0.018 C 
ATOM      8  C   UNL     1      33.270 -22.503 -15.976  0.00  0.00    +0.052 A 
ATOM      9  C   UNL     1      32.102 -23.043 -15.448  0.00  0.00    +0.077 A 
ATOM     10  C   UNL     1      32.051 -23.687 -14.210  0.00  0.00    +0.020 C 
ATOM     11  C   UNL     1      32.864 -21.969 -17.206  0.00  0.00    +0.155 A 
ATOM     12  C   UNL     1      33.394 -20.762 -19.331  0.00  0.00    +0.232 C 
ATOM     13  H   UNL     1      30.196 -23.064 -16.269  0.00  0.00    +0.189 HD
ATOM     14  H   UNL     1      34.666 -21.241 -17.822  0.00  0.00    +0.156 HD
ENDROOT
BRANCH   5  18
ATOM     15  S   UNL     1      36.921 -24.399 -13.823  0.00  0.00    +0.057 S 
ATOM     16  O   UNL     1      36.358 -25.621 -14.361  0.00  0.00    -0.154 OA
ATOM     17  O   UNL     1      37.888 -23.608 -14.555  0.00  0.00    -0.154 OA
ATOM     18  N   UNL     1      35.661 -23.357 -13.226  0.00  0.00    -0.194 N 
ATOM     19  C   UNL     1      37.572 -24.760 -12.199  0.00  0.00    +0.174 C 
ATOM     20  C   UNL     1      37.059 -23.643 -11.306  0.00  0.00    +0.051 C 
ATOM     21  C   UNL     1      35.616 -23.388 -11.736  0.00  0.00    +0.117 C 
ENDBRANCH   5  18
BRANCH  12  22
ATOM     22  C   UNL     1      34.621 -20.140 -19.994  0.00  0.00    +0.112 C 
BRANCH  22  26
ATOM     23  C   UNL     1      33.760 -16.606 -22.301  0.00  0.00    +0.048 C 
ATOM     24  C   UNL     1      33.539 -17.890 -22.835  0.00  0.00    +0.014 C 
ATOM     25  C   UNL     1      34.269 -16.509 -20.992  0.00  0.00    +0.014 C 
ATOM     26  C   UNL     1      34.322 -18.916 -20.792  0.00  0.00    -0.013 C 
ATOM     27  C   UNL     1      33.818 -19.035 -22.088  0.00  0.00    -0.003 C 
ATOM     28  C   UNL     1      34.548 -17.654 -20.245  0.00  0.00    -0.003 C 
BRANCH  23  29
ATOM     29  N   UNL     1      33.479 -15.457 -23.051  0.00  0.00    -0.307 N 
ATOM     30  C   UNL     1      33.027 -13.110 -24.670  0.00  0.00    +0.004 C 
ATOM     31  C   UNL     1      32.953 -13.053 -23.149  0.00  0.00    +0.021 C 
ATOM     32  C   UNL     1      32.643 -14.501 -25.163  0.00  0.00    +0.021 C 
ATOM     33  C   UNL     1      33.812 -14.138 -22.501  0.00  0.00    +0.091 C 
ATOM     34  C   UNL     1      33.508 -15.580 -24.516  0.00  0.00    +0.091 C 
ENDBRANCH  23  29
ENDBRANCH  22  26
ENDBRANCH  12  22
TORSDOF 4
ENDMDL
MODEL 2
REMARK VINA RESULT:     -10.4      7.697     15.001
REMARK  Name = 10138993
REMARK  4 active torsions:
REMARK  status: ('A' for Active; 'I' for Inactive)
REMARK    1  A    between atoms: C_5  and  N_18
REMARK    2  A    between atoms: C_12  and  C_22
REMARK    3  A    between atoms: C_22  and  C_26
REMARK    4  A    between atoms: C_23  and  N_29
REMARK                            x       y       z     vdW  Elec       q    Type
REMARK                         _______ _______ _______ _____ _____    ______ ____
ROOT
ATOM      1  O   UNL     1      31.990 -12.452 -21.335  0.00  0.00    -0.274 OA
ATOM      2  N   UNL     1      30.678  -8.462 -21.167  0.00  0.00    -0.275 N 
ATOM      3  N   UNL     1      32.510 -10.790 -22.912  0.00  0.00    -0.268 N 
ATOM      4  N   UNL     1      31.134  -9.719 -21.286  0.00  0.00    -0.157 NA
ATOM      5  C   UNL     1      32.182  -6.474 -24.420  0.00  0.00    +0.069 C 
ATOM      6  C   UNL     1      32.424  -7.829 -24.163  0.00  0.00    +0.020 C 
ATOM      7  C   UNL     1      31.392  -5.710 -23.558  0.00  0.00    +0.018 C 
ATOM      8  C   UNL     1      31.856  -8.407 -23.016  0.00  0.00    +0.052 A 
ATOM      9  C   UNL     1      31.076  -7.623 -22.174  0.00  0.00    +0.077 A 
ATOM     10  C   UNL     1      30.820  -6.270 -22.411  0.00  0.00    +0.020 C 
ATOM     11  C   UNL     1      31.842  -9.668 -22.405  0.00  0.00    +0.155 A 
ATOM     12  C   UNL     1      32.540 -12.069 -22.362  0.00  0.00    +0.232 C 
ATOM     13  H   UNL     1      30.108  -8.168 -20.421  0.00  0.00    +0.189 HD
ATOM     14  H   UNL     1      33.013 -10.661 -23.748  0.00  0.00    +0.156 HD
ENDROOT
BRANCH   5  18
ATOM     15  S   UNL     1      31.709  -5.507 -26.945  0.00  0.00    +0.057 S 
ATOM     16  O   UNL     1      30.770  -6.592 -27.152  0.00  0.00    -0.154 OA
ATOM     17  O   UNL     1      31.285  -4.125 -26.876  0.00  0.00    -0.154 OA
ATOM     18  N   UNL     1      32.758  -5.856 -25.601  0.00  0.00    -0.194 N 
ATOM     19  C   UNL     1      33.004  -5.660 -28.166  0.00  0.00    +0.174 C 
ATOM     20  C   UNL     1      34.302  -5.495 -27.393  0.00  0.00    +0.051 C 
ATOM     21  C   UNL     1      34.112  -6.254 -26.082  0.00  0.00    +0.117 C 
ENDBRANCH   5  18
BRANCH  12  22
ATOM     22  C   UNL     1      33.380 -13.010 -23.222  0.00  0.00    +0.112 C 
BRANCH  22  26
ATOM     23  C   UNL     1      34.199 -16.811 -21.369  0.00  0.00    +0.048 C 
ATOM     24  C   UNL     1      34.175 -16.680 -22.771  0.00  0.00    +0.014 C 
ATOM     25  C   UNL     1      33.947 -15.666 -20.590  0.00  0.00    +0.014 C 
ATOM     26  C   UNL     1      33.663 -14.326 -22.580  0.00  0.00    -0.013 C 
ATOM     27  C   UNL     1      33.910 -15.449 -23.371  0.00  0.00    -0.003 C 
ATOM     28  C   UNL     1      33.682 -14.435 -21.190  0.00  0.00    -0.003 C 
BRANCH  23  29
ATOM     29  N   UNL     1      34.466 -18.047 -20.766  0.00  0.00    -0.307 N 
ATOM     30  C   UNL     1      35.095 -20.631 -19.644  0.00  0.00    +0.004 C 
ATOM     31  C   UNL     1      33.660 -20.126 -19.720  0.00  0.00    +0.021 C 
ATOM     32  C   UNL     1      36.059 -19.457 -19.523  0.00  0.00    +0.021 C 
ATOM     33  C   UNL     1      33.473 -19.124 -20.859  0.00  0.00    +0.091 C 
ATOM     34  C   UNL     1      35.873 -18.462 -20.666  0.00  0.00    +0.091 C 
ENDBRANCH  23  29
ENDBRANCH  22  26
ENDBRANCH  12  22
TORSDOF 4
ENDMDL
MODEL 3
REMARK VINA RESULT:     -10.4      7.651     13.628
REMARK  Name = 10138993
REMARK  4 active torsions:
REMARK  status: ('A' for Active; 'I' for Inactive)
REMARK    1  A    between atoms: C_5  and  N_18
REMARK    2  A    between atoms: C_12  and  C_22
REMARK    3  A    between atoms: C_22  and  C_26
REMARK    4  A    between atoms: C_23  and  N_29
REMARK                            x       y       z     vdW  Elec       q    Type
REMARK                         _______ _______ _______ _____ _____    ______ ____
ROOT
ATOM      1  O   UNL     1      33.938 -12.847 -26.148  0.00  0.00    -0.274 OA
ATOM      2  N   UNL     1      34.882  -8.940 -24.917  0.00  0.00    -0.275 N 
ATOM      3  N   UNL     1      32.853 -11.672 -24.428  0.00  0.00    -0.268 N 
ATOM      4  N   UNL     1      34.525 -10.189 -25.257  0.00  0.00    -0.157 NA
ATOM      5  C   UNL     1      32.361  -7.909 -21.856  0.00  0.00    +0.069 C 
ATOM      6  C   UNL     1      32.322  -9.150 -22.504  0.00  0.00    +0.020 C 
ATOM      7  C   UNL     1      33.287  -6.933 -22.229  0.00  0.00    +0.018 C 
ATOM      8  C   UNL     1      33.235  -9.394 -23.542  0.00  0.00    +0.052 A 
ATOM      9  C   UNL     1      34.146  -8.405 -23.894  0.00  0.00    +0.077 A 
ATOM     10  C   UNL     1      34.203  -7.161 -23.261  0.00  0.00    +0.020 C 
ATOM     11  C   UNL     1      33.532 -10.447 -24.419  0.00  0.00    +0.155 A 
ATOM     12  C   UNL     1      33.092 -12.758 -25.265  0.00  0.00    +0.232 C 
ATOM     13  H   UNL     1      35.609  -8.450 -25.366  0.00  0.00    +0.189 HD
ATOM     14  H   UNL     1      32.128 -11.776 -23.770  0.00  0.00    +0.156 HD
ENDROOT
BRANCH   5  18
ATOM     15  S   UNL     1      30.829  -6.010 -20.597  0.00  0.00    +0.057 S 
ATOM     16  O   UNL     1      31.894  -5.051 -20.815  0.00  0.00    -0.154 OA
ATOM     17  O   UNL     1      29.543  -5.896 -21.253  0.00  0.00    -0.154 OA
ATOM     18  N   UNL     1      31.425  -7.635 -20.779  0.00  0.00    -0.194 N 
ATOM     19  C   UNL     1      30.575  -6.160 -18.835  0.00  0.00    +0.174 C 
ATOM     20  C   UNL     1      30.513  -7.654 -18.567  0.00  0.00    +0.051 C 
ATOM     21  C   UNL     1      31.589  -8.286 -19.448  0.00  0.00    +0.117 C 
ENDBRANCH   5  18
BRANCH  12  22
ATOM     22  C   UNL     1      32.133 -13.905 -24.952  0.00  0.00    +0.112 C 
BRANCH  22  26
ATOM     23  C   UNL     1      33.817 -16.945 -22.408  0.00  0.00    +0.048 C 
ATOM     24  C   UNL     1      33.822 -15.592 -22.019  0.00  0.00    +0.014 C 
ATOM     25  C   UNL     1      33.245 -17.277 -23.651  0.00  0.00    +0.014 C 
ATOM     26  C   UNL     1      32.716 -14.958 -24.072  0.00  0.00    -0.013 C 
ATOM     27  C   UNL     1      33.277 -14.607 -22.843  0.00  0.00    -0.003 C 
ATOM     28  C   UNL     1      32.700 -16.293 -24.475  0.00  0.00    -0.003 C 
BRANCH  23  29
ATOM     29  N   UNL     1      34.364 -17.934 -21.579  0.00  0.00    -0.307 N 
ATOM     30  C   UNL     1      35.568 -20.020 -19.990  0.00  0.00    +0.004 C 
ATOM     31  C   UNL     1      34.058 -19.827 -20.033  0.00  0.00    +0.021 C 
ATOM     32  C   UNL     1      36.276 -18.690 -20.222  0.00  0.00    +0.021 C 
ATOM     33  C   UNL     1      33.611 -19.171 -21.339  0.00  0.00    +0.091 C 
ATOM     34  C   UNL     1      35.829 -18.042 -21.530  0.00  0.00    +0.091 C 
ENDBRANCH  23  29
ENDBRANCH  22  26
ENDBRANCH  12  22
TORSDOF 4
ENDMDL
MODEL 4
REMARK VINA RESULT:     -10.2      2.962      4.816
REMARK  Name = 10138993
REMARK  4 active torsions:
REMARK  status: ('A' for Active; 'I' for Inactive)
REMARK    1  A    between atoms: C_5  and  N_18
REMARK    2  A    between atoms: C_12  and  C_22
REMARK    3  A    between atoms: C_22  and  C_26
REMARK    4  A    between atoms: C_23  and  N_29
REMARK                            x       y       z     vdW  Elec       q    Type
REMARK                         _______ _______ _______ _____ _____    ______ ____
ROOT
ATOM      1  O   UNL     1      36.539 -21.288 -17.569  0.00  0.00    -0.274 OA
ATOM      2  N   UNL     1      34.822 -22.367 -13.887  0.00  0.00    -0.275 N 
ATOM      3  N   UNL     1      34.334 -22.041 -17.275  0.00  0.00    -0.268 N 
ATOM      4  N   UNL     1      35.304 -22.039 -15.097  0.00  0.00    -0.157 NA
ATOM      5  C   UNL     1      30.948 -23.523 -14.563  0.00  0.00    +0.069 C 
ATOM      6  C   UNL     1      31.816 -23.099 -15.577  0.00  0.00    +0.020 C 
ATOM      7  C   UNL     1      31.371 -23.578 -13.233  0.00  0.00    +0.018 C 
ATOM      8  C   UNL     1      33.125 -22.725 -15.229  0.00  0.00    +0.052 A 
ATOM      9  C   UNL     1      33.519 -22.787 -13.897  0.00  0.00    +0.077 A 
ATOM     10  C   UNL     1      32.671 -23.208 -12.870  0.00  0.00    +0.020 C 
ATOM     11  C   UNL     1      34.267 -22.260 -15.893  0.00  0.00    +0.155 A 
ATOM     12  C   UNL     1      35.430 -21.583 -18.001  0.00  0.00    +0.232 C 
ATOM     13  H   UNL     1      35.358 -22.310 -13.064  0.00  0.00    +0.189 HD
ATOM     14  H   UNL     1      33.517 -22.231 -17.789  0.00  0.00    +0.156 HD
ENDROOT
BRANCH   5  18
ATOM     15  S   UNL     1      28.402 -22.664 -15.118  0.00  0.00    +0.057 S 
ATOM     16  O   UNL     1      28.567 -21.626 -14.119  0.00  0.00    -0.154 OA
ATOM     17  O   UNL     1      28.277 -22.362 -16.529  0.00  0.00    -0.154 OA
ATOM     18  N   UNL     1      29.591 -23.915 -14.901  0.00  0.00    -0.194 N 
ATOM     19  C   UNL     1      27.032 -23.696 -14.618  0.00  0.00    +0.174 C 
ATOM     20  C   UNL     1      27.530 -25.123 -14.778  0.00  0.00    +0.051 C 
ATOM     21  C   UNL     1      28.974 -25.124 -14.283  0.00  0.00    +0.117 C 
ENDBRANCH   5  18
BRANCH  12  22
ATOM     22  C   UNL     1      35.094 -21.481 -19.487  0.00  0.00    +0.112 C 
BRANCH  22  26
ATOM     23  C   UNL     1      34.230 -17.474 -20.811  0.00  0.00    +0.048 C 
ATOM     24  C   UNL     1      35.554 -17.884 -20.560  0.00  0.00    +0.014 C 
ATOM     25  C   UNL     1      33.197 -18.411 -20.618  0.00  0.00    +0.014 C 
ATOM     26  C   UNL     1      34.794 -20.094 -19.946  0.00  0.00    -0.013 C 
ATOM     27  C   UNL     1      35.834 -19.181 -20.131  0.00  0.00    -0.003 C 
ATOM     28  C   UNL     1      33.477 -19.708 -20.189  0.00  0.00    -0.003 C 
BRANCH  23  29
ATOM     29  N   UNL     1      33.949 -16.171 -21.243  0.00  0.00    -0.307 N 
ATOM     30  C   UNL     1      33.515 -13.471 -22.164  0.00  0.00    +0.004 C 
ATOM     31  C   UNL     1      33.017 -13.935 -20.801  0.00  0.00    +0.021 C 
ATOM     32  C   UNL     1      33.557 -14.644 -23.136  0.00  0.00    +0.021 C 
ATOM     33  C   UNL     1      33.858 -15.089 -20.256  0.00  0.00    +0.091 C 
ATOM     34  C   UNL     1      34.402 -15.792 -22.589  0.00  0.00    +0.091 C 
ENDBRANCH  23  29
ENDBRANCH  22  26
ENDBRANCH  12  22
TORSDOF 4
ENDMDL
MODEL 5
REMARK VINA RESULT:     -10.1      2.601      3.632
REMARK  Name = 10138993
REMARK  4 active torsions:
REMARK  status: ('A' for Active; 'I' for Inactive)
REMARK    1  A    between atoms: C_5  and  N_18
REMARK    2  A    between atoms: C_12  and  C_22
REMARK    3  A    between atoms: C_22  and  C_26
REMARK    4  A    between atoms: C_23  and  N_29
REMARK                            x       y       z     vdW  Elec       q    Type
REMARK                         _______ _______ _______ _____ _____    ______ ____
ROOT
ATOM      1  O   UNL     1      36.291 -20.062 -19.560  0.00  0.00    -0.274 OA
ATOM      2  N   UNL     1      36.785 -21.412 -15.610  0.00  0.00    -0.275 N 
ATOM      3  N   UNL     1      34.659 -21.189 -18.303  0.00  0.00    -0.268 N 
ATOM      4  N   UNL     1      36.556 -21.009 -16.870  0.00  0.00    -0.157 NA
ATOM      5  C   UNL     1      33.309 -23.232 -14.427  0.00  0.00    +0.069 C 
ATOM      6  C   UNL     1      33.492 -22.666 -15.695  0.00  0.00    +0.020 C 
ATOM      7  C   UNL     1      34.331 -23.206 -13.475  0.00  0.00    +0.018 C 
ATOM      8  C   UNL     1      34.727 -22.067 -15.992  0.00  0.00    +0.052 A 
ATOM      9  C   UNL     1      35.727 -22.054 -15.025  0.00  0.00    +0.077 A 
ATOM     10  C   UNL     1      35.567 -22.613 -13.755  0.00  0.00    +0.020 C 
ATOM     11  C   UNL     1      35.312 -21.411 -17.084  0.00  0.00    +0.155 A 
ATOM     12  C   UNL     1      35.174 -20.549 -19.426  0.00  0.00    +0.232 C 
ATOM     13  H   UNL     1      37.639 -21.257 -15.146  0.00  0.00    +0.189 HD
ATOM     14  H   UNL     1      33.735 -21.522 -18.373  0.00  0.00    +0.156 HD
ENDROOT
BRANCH   5  18
ATOM     15  S   UNL     1      30.586 -22.919 -14.284  0.00  0.00    +0.057 S 
ATOM     16  O   UNL     1      30.798 -21.560 -13.826  0.00  0.00    -0.154 OA
ATOM     17  O   UNL     1      29.985 -23.214 -15.567  0.00  0.00    -0.154 OA
ATOM     18  N   UNL     1      32.040 -23.857 -14.100  0.00  0.00    -0.194 N 
ATOM     19  C   UNL     1      29.699 -23.798 -13.007  0.00  0.00    +0.174 C 
ATOM     20  C   UNL     1      30.440 -25.115 -12.842  0.00  0.00    +0.051 C 
ATOM     21  C   UNL     1      31.926 -24.777 -12.932  0.00  0.00    +0.117 C 
ENDBRANCH   5  18
BRANCH  12  22
ATOM     22  C   UNL     1      34.142 -20.513 -20.552  0.00  0.00    +0.112 C 
BRANCH  22  26
ATOM     23  C   UNL     1      33.654 -16.632 -22.355  0.00  0.00    +0.048 C 
ATOM     24  C   UNL     1      33.390 -17.808 -23.085  0.00  0.00    +0.014 C 
ATOM     25  C   UNL     1      34.081 -16.761 -21.020  0.00  0.00    +0.014 C 
ATOM     26  C   UNL     1      33.973 -19.169 -21.176  0.00  0.00    -0.013 C 
ATOM     27  C   UNL     1      33.549 -19.065 -22.501  0.00  0.00    -0.003 C 
ATOM     28  C   UNL     1      34.239 -18.018 -20.436  0.00  0.00    -0.003 C 
BRANCH  23  29
ATOM     29  N   UNL     1      33.494 -15.370 -22.942  0.00  0.00    -0.307 N 
ATOM     30  C   UNL     1      33.290 -12.794 -24.226  0.00  0.00    +0.004 C 
ATOM     31  C   UNL     1      33.211 -12.935 -22.711  0.00  0.00    +0.021 C 
ATOM     32  C   UNL     1      32.773 -14.059 -24.900  0.00  0.00    +0.021 C 
ATOM     33  C   UNL     1      33.953 -14.177 -22.221  0.00  0.00    +0.091 C 
ATOM     34  C   UNL     1      33.521 -15.297 -24.410  0.00  0.00    +0.091 C 
ENDBRANCH  23  29
ENDBRANCH  22  26
ENDBRANCH  12  22
TORSDOF 4
ENDMDL
MODEL 6
REMARK VINA RESULT:      -9.8      1.298      1.721
REMARK  Name = 10138993
REMARK  4 active torsions:
REMARK  status: ('A' for Active; 'I' for Inactive)
REMARK    1  A    between atoms: C_5  and  N_18
REMARK    2  A    between atoms: C_12  and  C_22
REMARK    3  A    between atoms: C_22  and  C_26
REMARK    4  A    between atoms: C_23  and  N_29
REMARK                            x       y       z     vdW  Elec       q    Type
REMARK                         _______ _______ _______ _____ _____    ______ ____
ROOT
ATOM      1  O   UNL     1      32.557 -20.106 -20.375  0.00  0.00    -0.274 OA
ATOM      2  N   UNL     1      31.215 -22.699 -17.350  0.00  0.00    -0.275 N 
ATOM      3  N   UNL     1      33.817 -20.771 -18.507  0.00  0.00    -0.268 N 
ATOM      4  N   UNL     1      31.711 -21.865 -18.279  0.00  0.00    -0.157 NA
ATOM      5  C   UNL     1      34.229 -23.149 -14.610  0.00  0.00    +0.069 C 
ATOM      6  C   UNL     1      34.338 -22.348 -15.753  0.00  0.00    +0.020 C 
ATOM      7  C   UNL     1      33.054 -23.854 -14.337  0.00  0.00    +0.018 C 
ATOM      8  C   UNL     1      33.239 -22.267 -16.625  0.00  0.00    +0.052 A 
ATOM      9  C   UNL     1      32.083 -22.981 -16.330  0.00  0.00    +0.077 A 
ATOM     10  C   UNL     1      31.952 -23.786 -15.195  0.00  0.00    +0.020 C 
ATOM     11  C   UNL     1      32.931 -21.616 -17.826  0.00  0.00    +0.155 A 
ATOM     12  C   UNL     1      33.581 -20.093 -19.700  0.00  0.00    +0.232 C 
ATOM     13  H   UNL     1      30.307 -23.076 -17.400  0.00  0.00    +0.189 HD
ATOM     14  H   UNL     1      34.703 -20.644 -18.099  0.00  0.00    +0.156 HD
ENDROOT
BRANCH   5  18
ATOM     15  S   UNL     1      35.116 -24.076 -12.183  0.00  0.00    +0.057 S 
ATOM     16  O   UNL     1      33.823 -23.744 -11.618  0.00  0.00    -0.154 OA
ATOM     17  O   UNL     1      35.573 -25.444 -12.312  0.00  0.00    -0.154 OA
ATOM     18  N   UNL     1      35.353 -23.246 -13.695  0.00  0.00    -0.194 N 
ATOM     19  C   UNL     1      36.356 -23.125 -11.317  0.00  0.00    +0.174 C 
ATOM     20  C   UNL     1      37.237 -22.534 -12.404  0.00  0.00    +0.051 C 
ATOM     21  C   UNL     1      36.293 -22.102 -13.524  0.00  0.00    +0.117 C 
ENDBRANCH   5  18
BRANCH  12  22
ATOM     22  C   UNL     1      34.802 -19.274 -20.110  0.00  0.00    +0.112 C 
BRANCH  22  26
ATOM     23  C   UNL     1      33.862 -15.774 -22.437  0.00  0.00    +0.048 C 
ATOM     24  C   UNL     1      34.107 -17.013 -23.060  0.00  0.00    +0.014 C 
ATOM     25  C   UNL     1      33.932 -15.711 -21.032  0.00  0.00    +0.014 C 
ATOM     26  C   UNL     1      34.476 -18.062 -20.915  0.00  0.00    -0.013 C 
ATOM     27  C   UNL     1      34.412 -18.146 -22.307  0.00  0.00    -0.003 C 
ATOM     28  C   UNL     1      34.237 -16.845 -20.279  0.00  0.00    -0.003 C 
BRANCH  23  29
ATOM     29  N   UNL     1      33.555 -14.635 -23.194  0.00  0.00    -0.307 N 
ATOM     30  C   UNL     1      32.799 -12.275 -24.673  0.00  0.00    +0.004 C 
ATOM     31  C   UNL     1      33.171 -13.572 -25.382  0.00  0.00    +0.021 C 
ATOM     32  C   UNL     1      33.531 -12.176 -23.340  0.00  0.00    +0.021 C 
ATOM     33  C   UNL     1      32.906 -14.792 -24.501  0.00  0.00    +0.091 C 
ATOM     34  C   UNL     1      33.259 -13.395 -22.462  0.00  0.00    +0.091 C 
ENDBRANCH  23  29
ENDBRANCH  22  26
ENDBRANCH  12  22
TORSDOF 4
ENDMDL
