MODEL 1
REMARK VINA RESULT:     -11.8      0.000      0.000
REMARK  Name = 5288607
REMARK  4 active torsions:
REMARK  status: ('A' for Active; 'I' for Inactive)
REMARK    1  A    between atoms: N_2  and  C_19
REMARK    2  A    between atoms: C_3  and  C_6
REMARK    3  A    between atoms: C_5  and  C_16
REMARK    4  A    between atoms: C_19  and  C_21
REMARK                            x       y       z     vdW  Elec       q    Type
REMARK                         _______ _______ _______ _____ _____    ______ ____
ROOT
ATOM      1  O   UNL     1      31.964 -16.237 -25.028  0.00  0.00    -0.270 OA
ATOM      2  N   UNL     1      33.101 -14.293 -24.451  0.00  0.00    -0.270 N 
ATOM      3  C   UNL     1      32.704 -15.619 -24.261  0.00  0.00    +0.249 C 
ATOM      4  C   UNL     1      32.626 -13.566 -25.622  0.00  0.00    +0.116 C 
ENDROOT
BRANCH   3   6
ATOM      5  C   UNL     1      33.859 -17.468 -23.100  0.00  0.00    +0.006 C 
ATOM      6  C   UNL     1      33.208 -16.283 -23.022  0.00  0.00    +0.058 C 
BRANCH   5  16
ATOM      7  O   UNL     1      35.737 -21.838 -17.041  0.00  0.00    -0.275 OA
ATOM      8  N   UNL     1      35.936 -20.306 -18.740  0.00  0.00    -0.270 N 
ATOM      9  N   UNL     1      36.222 -18.781 -20.525  0.00  0.00    -0.229 NA
ATOM     10  C   UNL     1      33.173 -20.626 -19.286  0.00  0.00    +0.039 C 
ATOM     11  C   UNL     1      34.053 -19.782 -20.157  0.00  0.00    +0.010 C 
ATOM     12  C   UNL     1      33.966 -21.761 -18.656  0.00  0.00    +0.090 C 
ATOM     13  C   UNL     1      35.400 -19.611 -19.841  0.00  0.00    +0.130 C 
ATOM     14  C   UNL     1      33.537 -19.064 -21.238  0.00  0.00    +0.000 C 
ATOM     15  C   UNL     1      35.271 -21.295 -18.043  0.00  0.00    +0.227 C 
ATOM     16  C   UNL     1      34.367 -18.223 -21.968  0.00  0.00    +0.019 C 
ATOM     17  C   UNL     1      35.689 -18.114 -21.573  0.00  0.00    +0.100 C 
ATOM     18  H   UNL     1      36.847 -20.071 -18.448  0.00  0.00    +0.156 HD
ENDBRANCH   5  16
ENDBRANCH   3   6
BRANCH   2  19
ATOM     19  C   UNL     1      33.949 -13.530 -23.538  0.00  0.00    +0.122 C 
BRANCH  19  21
ATOM     20  N   UNL     1      32.350 -10.346 -22.739  0.00  0.00    -0.284 N 
ATOM     21  C   UNL     1      33.184 -12.374 -22.991  0.00  0.00    +0.014 C 
ATOM     22  C   UNL     1      32.366 -12.387 -21.837  0.00  0.00    +0.013 C 
ATOM     23  C   UNL     1      31.850 -11.096 -21.698  0.00  0.00    +0.051 C 
ATOM     24  C   UNL     1      33.162 -11.115 -23.528  0.00  0.00    +0.063 C 
ATOM     25  C   UNL     1      32.005 -13.366 -20.890  0.00  0.00    +0.001 C 
ATOM     26  C   UNL     1      30.989 -10.735 -20.656  0.00  0.00    +0.015 C 
ATOM     27  C   UNL     1      32.068  -8.946 -22.976  0.00  0.00    +0.117 C 
ATOM     28  C   UNL     1      31.146 -13.020 -19.842  0.00  0.00    +0.000 C 
ATOM     29  C   UNL     1      30.647 -11.724 -19.728  0.00  0.00    +0.001 C 
ENDBRANCH  19  21
ENDBRANCH   2  19
TORSDOF 4
ENDMDL
MODEL 2
REMARK VINA RESULT:     -11.5      0.646      2.096
REMARK  Name = 5288607
REMARK  4 active torsions:
REMARK  status: ('A' for Active; 'I' for Inactive)
REMARK    1  A    between atoms: N_2  and  C_19
REMARK    2  A    between atoms: C_3  and  C_6
REMARK    3  A    between atoms: C_5  and  C_16
REMARK    4  A    between atoms: C_19  and  C_21
REMARK                            x       y       z     vdW  Elec       q    Type
REMARK                         _______ _______ _______ _____ _____    ______ ____
ROOT
ATOM      1  O   UNL     1      31.933 -16.370 -25.141  0.00  0.00    -0.270 OA
ATOM      2  N   UNL     1      33.073 -14.463 -24.460  0.00  0.00    -0.270 N 
ATOM      3  C   UNL     1      32.640 -15.784 -24.320  0.00  0.00    +0.249 C 
ATOM      4  C   UNL     1      32.680 -13.703 -25.640  0.00  0.00    +0.116 C 
ENDROOT
BRANCH   3   6
ATOM      5  C   UNL     1      33.999 -17.456 -23.114  0.00  0.00    +0.006 C 
ATOM      6  C   UNL     1      33.059 -16.483 -23.069  0.00  0.00    +0.058 C 
BRANCH   5  16
ATOM      7  O   UNL     1      35.647 -21.879 -17.027  0.00  0.00    -0.275 OA
ATOM      8  N   UNL     1      35.920 -20.355 -18.722  0.00  0.00    -0.270 N 
ATOM      9  N   UNL     1      36.280 -18.840 -20.502  0.00  0.00    -0.229 NA
ATOM     10  C   UNL     1      33.157 -20.591 -19.311  0.00  0.00    +0.039 C 
ATOM     11  C   UNL     1      34.076 -19.774 -20.169  0.00  0.00    +0.010 C 
ATOM     12  C   UNL     1      33.905 -21.749 -18.669  0.00  0.00    +0.090 C 
ATOM     13  C   UNL     1      35.423 -19.644 -19.831  0.00  0.00    +0.130 C 
ATOM     14  C   UNL     1      33.600 -19.041 -21.257  0.00  0.00    +0.000 C 
ATOM     15  C   UNL     1      35.214 -21.322 -18.036  0.00  0.00    +0.227 C 
ATOM     16  C   UNL     1      34.466 -18.226 -21.974  0.00  0.00    +0.019 C 
ATOM     17  C   UNL     1      35.784 -18.158 -21.558  0.00  0.00    +0.100 C 
ATOM     18  H   UNL     1      36.833 -20.148 -18.416  0.00  0.00    +0.156 HD
ENDBRANCH   5  16
ENDBRANCH   3   6
BRANCH   2  19
ATOM     19  C   UNL     1      33.883 -13.736 -23.485  0.00  0.00    +0.122 C 
BRANCH  19  21
ATOM     20  N   UNL     1      31.607 -11.665 -21.519  0.00  0.00    -0.284 N 
ATOM     21  C   UNL     1      33.058 -12.676 -22.839  0.00  0.00    +0.014 C 
ATOM     22  C   UNL     1      33.074 -11.297 -23.159  0.00  0.00    +0.013 C 
ATOM     23  C   UNL     1      32.151 -10.680 -22.313  0.00  0.00    +0.051 C 
ATOM     24  C   UNL     1      32.153 -12.880 -21.834  0.00  0.00    +0.063 C 
ATOM     25  C   UNL     1      33.783 -10.504 -24.083  0.00  0.00    +0.001 C 
ATOM     26  C   UNL     1      31.899  -9.304 -22.344  0.00  0.00    +0.015 C 
ATOM     27  C   UNL     1      30.602 -11.461 -20.497  0.00  0.00    +0.117 C 
ATOM     28  C   UNL     1      33.541  -9.127 -24.127  0.00  0.00    +0.000 C 
ATOM     29  C   UNL     1      32.613  -8.538 -23.271  0.00  0.00    +0.001 C 
ENDBRANCH  19  21
ENDBRANCH   2  19
TORSDOF 4
ENDMDL
MODEL 3
REMARK VINA RESULT:     -11.3      1.288      1.779
REMARK  Name = 5288607
REMARK  4 active torsions:
REMARK  status: ('A' for Active; 'I' for Inactive)
REMARK    1  A    between atoms: N_2  and  C_19
REMARK    2  A    between atoms: C_3  and  C_6
REMARK    3  A    between atoms: C_5  and  C_16
REMARK    4  A    between atoms: C_19  and  C_21
REMARK                            x       y       z     vdW  Elec       q    Type
REMARK                         _______ _______ _______ _____ _____    ______ ____
ROOT
ATOM      1  O   UNL     1      32.747 -17.812 -24.378  0.00  0.00    -0.270 OA
ATOM      2  N   UNL     1      33.513 -15.765 -23.588  0.00  0.00    -0.270 N 
ATOM      3  C   UNL     1      33.323 -17.148 -23.516  0.00  0.00    +0.249 C 
ATOM      4  C   UNL     1      33.007 -15.033 -24.742  0.00  0.00    +0.116 C 
ENDROOT
BRANCH   3   6
ATOM      5  C   UNL     1      33.271 -18.963 -21.842  0.00  0.00    +0.006 C 
ATOM      6  C   UNL     1      33.842 -17.819 -22.287  0.00  0.00    +0.058 C 
BRANCH   5  16
ATOM      7  O   UNL     1      34.508 -23.065 -15.441  0.00  0.00    -0.275 OA
ATOM      8  N   UNL     1      34.921 -21.704 -17.243  0.00  0.00    -0.270 N 
ATOM      9  N   UNL     1      35.419 -20.368 -19.131  0.00  0.00    -0.229 NA
ATOM     10  C   UNL     1      32.145 -21.709 -17.818  0.00  0.00    +0.039 C 
ATOM     11  C   UNL     1      33.135 -21.052 -18.733  0.00  0.00    +0.010 C 
ATOM     12  C   UNL     1      32.778 -22.885 -17.091  0.00  0.00    +0.090 C 
ATOM     13  C   UNL     1      34.490 -21.032 -18.403  0.00  0.00    +0.130 C 
ATOM     14  C   UNL     1      32.727 -20.359 -19.873  0.00  0.00    +0.000 C 
ATOM     15  C   UNL     1      34.126 -22.544 -16.489  0.00  0.00    +0.227 C 
ATOM     16  C   UNL     1      33.666 -19.688 -20.647  0.00  0.00    +0.019 C 
ATOM     17  C   UNL     1      34.987 -19.720 -20.235  0.00  0.00    +0.100 C 
ATOM     18  H   UNL     1      35.851 -21.567 -16.952  0.00  0.00    +0.156 HD
ENDBRANCH   5  16
ENDBRANCH   3   6
BRANCH   2  19
ATOM     19  C   UNL     1      34.163 -14.952 -22.562  0.00  0.00    +0.122 C 
BRANCH  19  21
ATOM     20  N   UNL     1      32.845 -11.565 -22.907  0.00  0.00    -0.284 N 
ATOM     21  C   UNL     1      33.481 -13.631 -22.463  0.00  0.00    +0.014 C 
ATOM     22  C   UNL     1      32.577 -13.233 -21.450  0.00  0.00    +0.013 C 
ATOM     23  C   UNL     1      32.189 -11.926 -21.751  0.00  0.00    +0.051 C 
ATOM     24  C   UNL     1      33.632 -12.595 -23.345  0.00  0.00    +0.063 C 
ATOM     25  C   UNL     1      32.044 -13.851 -20.302  0.00  0.00    +0.001 C 
ATOM     26  C   UNL     1      31.290 -11.203 -20.959  0.00  0.00    +0.015 C 
ATOM     27  C   UNL     1      32.728 -10.285 -23.574  0.00  0.00    +0.117 C 
ATOM     28  C   UNL     1      31.145 -13.140 -19.499  0.00  0.00    +0.000 C 
ATOM     29  C   UNL     1      30.775 -11.837 -19.824  0.00  0.00    +0.001 C 
ENDBRANCH  19  21
ENDBRANCH   2  19
TORSDOF 4
ENDMDL
MODEL 4
REMARK VINA RESULT:     -11.0      5.515     12.052
REMARK  Name = 5288607
REMARK  4 active torsions:
REMARK  status: ('A' for Active; 'I' for Inactive)
REMARK    1  A    between atoms: N_2  and  C_19
REMARK    2  A    between atoms: C_3  and  C_6
REMARK    3  A    between atoms: C_5  and  C_16
REMARK    4  A    between atoms: C_19  and  C_21
REMARK                            x       y       z     vdW  Elec       q    Type
REMARK                         _______ _______ _______ _____ _____    ______ ____
ROOT
ATOM      1  O   UNL     1      30.009 -24.071 -15.434  0.00  0.00    -0.270 OA
ATOM      2  N   UNL     1      31.408 -23.717 -13.612  0.00  0.00    -0.270 N 
ATOM      3  C   UNL     1      30.962 -23.488 -14.916  0.00  0.00    +0.249 C 
ATOM      4  C   UNL     1      30.723 -24.703 -12.786  0.00  0.00    +0.116 C 
ENDROOT
BRANCH   3   6
ATOM      5  C   UNL     1      32.514 -22.887 -16.741  0.00  0.00    +0.006 C 
ATOM      6  C   UNL     1      31.737 -22.486 -15.708  0.00  0.00    +0.058 C 
BRANCH   5  16
ATOM      7  O   UNL     1      36.109 -18.034 -21.523  0.00  0.00    -0.275 OA
ATOM      8  N   UNL     1      35.793 -19.573 -19.848  0.00  0.00    -0.270 N 
ATOM      9  N   UNL     1      35.512 -21.095 -18.058  0.00  0.00    -0.229 NA
ATOM     10  C   UNL     1      33.063 -19.749 -20.594  0.00  0.00    +0.039 C 
ATOM     11  C   UNL     1      33.596 -20.464 -19.389  0.00  0.00    +0.010 C 
ATOM     12  C   UNL     1      33.848 -18.473 -20.856  0.00  0.00    +0.090 C 
ATOM     13  C   UNL     1      34.951 -20.391 -19.070  0.00  0.00    +0.130 C 
ATOM     14  C   UNL     1      32.785 -21.300 -18.619  0.00  0.00    +0.000 C 
ATOM     15  C   UNL     1      35.347 -18.687 -20.809  0.00  0.00    +0.227 C 
ATOM     16  C   UNL     1      33.335 -22.015 -17.562  0.00  0.00    +0.019 C 
ATOM     17  C   UNL     1      34.692 -21.881 -17.328  0.00  0.00    +0.100 C 
ATOM     18  H   UNL     1      36.763 -19.638 -19.698  0.00  0.00    +0.156 HD
ENDBRANCH   5  16
ENDBRANCH   3   6
BRANCH   2  19
ATOM     19  C   UNL     1      32.556 -23.063 -12.989  0.00  0.00    +0.122 C 
BRANCH  19  21
ATOM     20  N   UNL     1      35.163 -25.446 -13.914  0.00  0.00    -0.284 N 
ATOM     21  C   UNL     1      33.769 -23.913 -13.155  0.00  0.00    +0.014 C 
ATOM     22  C   UNL     1      34.952 -23.836 -12.384  0.00  0.00    +0.013 C 
ATOM     23  C   UNL     1      35.818 -24.813 -12.882  0.00  0.00    +0.051 C 
ATOM     24  C   UNL     1      33.917 -24.905 -14.086  0.00  0.00    +0.063 C 
ATOM     25  C   UNL     1      35.383 -23.033 -11.309  0.00  0.00    +0.001 C 
ATOM     26  C   UNL     1      37.097 -25.027 -12.356  0.00  0.00    +0.015 C 
ATOM     27  C   UNL     1      35.701 -26.528 -14.712  0.00  0.00    +0.117 C 
ATOM     28  C   UNL     1      36.659 -23.237 -10.773  0.00  0.00    +0.000 C 
ATOM     29  C   UNL     1      37.501 -24.219 -11.290  0.00  0.00    +0.001 C 
ENDBRANCH  19  21
ENDBRANCH   2  19
TORSDOF 4
ENDMDL
MODEL 5
REMARK VINA RESULT:     -10.1      4.153      7.104
REMARK  Name = 5288607
REMARK  4 active torsions:
REMARK  status: ('A' for Active; 'I' for Inactive)
REMARK    1  A    between atoms: N_2  and  C_19
REMARK    2  A    between atoms: C_3  and  C_6
REMARK    3  A    between atoms: C_5  and  C_16
REMARK    4  A    between atoms: C_19  and  C_21
REMARK                            x       y       z     vdW  Elec       q    Type
REMARK                         _______ _______ _______ _____ _____    ______ ____
ROOT
ATOM      1  O   UNL     1      34.179  -6.270 -23.955  0.00  0.00    -0.270 OA
ATOM      2  N   UNL     1      31.952  -6.394 -23.302  0.00  0.00    -0.270 N 
ATOM      3  C   UNL     1      33.212  -6.932 -23.577  0.00  0.00    +0.249 C 
ATOM      4  C   UNL     1      31.735  -4.962 -23.464  0.00  0.00    +0.116 C 
ENDROOT
BRANCH   3   6
ATOM      5  C   UNL     1      32.955  -9.241 -24.414  0.00  0.00    +0.006 C 
ATOM      6  C   UNL     1      33.343  -8.411 -23.417  0.00  0.00    +0.058 C 
BRANCH   5  16
ATOM      7  O   UNL     1      33.399 -16.847 -23.278  0.00  0.00    -0.275 OA
ATOM      8  N   UNL     1      33.134 -14.841 -24.362  0.00  0.00    -0.270 N 
ATOM      9  N   UNL     1      32.770 -12.805 -25.511  0.00  0.00    -0.229 NA
ATOM     10  C   UNL     1      33.828 -13.508 -21.958  0.00  0.00    +0.039 C 
ATOM     11  C   UNL     1      33.377 -12.753 -23.172  0.00  0.00    +0.010 C 
ATOM     12  C   UNL     1      33.190 -14.888 -21.912  0.00  0.00    +0.090 C 
ATOM     13  C   UNL     1      33.081 -13.433 -24.352  0.00  0.00    +0.130 C 
ATOM     14  C   UNL     1      33.342 -11.358 -23.193  0.00  0.00    +0.000 C 
ATOM     15  C   UNL     1      33.286 -15.622 -23.234  0.00  0.00    +0.227 C 
ATOM     16  C   UNL     1      33.004 -10.692 -24.364  0.00  0.00    +0.019 C 
ATOM     17  C   UNL     1      32.733 -11.454 -25.487  0.00  0.00    +0.100 C 
ATOM     18  H   UNL     1      33.057 -15.297 -25.231  0.00  0.00    +0.156 HD
ENDBRANCH   5  16
ENDBRANCH   3   6
BRANCH   2  19
ATOM     19  C   UNL     1      30.782  -7.164 -22.886  0.00  0.00    +0.122 C 
BRANCH  19  21
ATOM     20  N   UNL     1      30.789  -6.868 -19.247  0.00  0.00    -0.284 N 
ATOM     21  C   UNL     1      30.791  -7.329 -21.405  0.00  0.00    +0.014 C 
ATOM     22  C   UNL     1      30.828  -8.557 -20.703  0.00  0.00    +0.013 C 
ATOM     23  C   UNL     1      30.826  -8.240 -19.343  0.00  0.00    +0.051 C 
ATOM     24  C   UNL     1      30.769  -6.307 -20.495  0.00  0.00    +0.063 C 
ATOM     25  C   UNL     1      30.862  -9.913 -21.083  0.00  0.00    +0.001 C 
ATOM     26  C   UNL     1      30.855  -9.216 -18.340  0.00  0.00    +0.015 C 
ATOM     27  C   UNL     1      30.773  -6.112 -18.011  0.00  0.00    +0.117 C 
ATOM     28  C   UNL     1      30.893 -10.900 -20.092  0.00  0.00    +0.000 C 
ATOM     29  C   UNL     1      30.889 -10.555 -18.743  0.00  0.00    +0.001 C 
ENDBRANCH  19  21
ENDBRANCH   2  19
TORSDOF 4
ENDMDL
MODEL 6
REMARK VINA RESULT:      -9.9      3.430      6.164
REMARK  Name = 5288607
REMARK  4 active torsions:
REMARK  status: ('A' for Active; 'I' for Inactive)
REMARK    1  A    between atoms: N_2  and  C_19
REMARK    2  A    between atoms: C_3  and  C_6
REMARK    3  A    between atoms: C_5  and  C_16
REMARK    4  A    between atoms: C_19  and  C_21
REMARK                            x       y       z     vdW  Elec       q    Type
REMARK                         _______ _______ _______ _____ _____    ______ ____
ROOT
ATOM      1  O   UNL     1      33.820  -7.414 -24.908  0.00  0.00    -0.270 OA
ATOM      2  N   UNL     1      31.665  -7.441 -24.036  0.00  0.00    -0.270 N 
ATOM      3  C   UNL     1      32.949  -7.959 -24.228  0.00  0.00    +0.249 C 
ATOM      4  C   UNL     1      31.302  -6.178 -24.666  0.00  0.00    +0.116 C 
ENDROOT
BRANCH   3   6
ATOM      5  C   UNL     1      32.932 -10.429 -24.213  0.00  0.00    +0.006 C 
ATOM      6  C   UNL     1      33.231  -9.272 -23.575  0.00  0.00    +0.058 C 
BRANCH   5  16
ATOM      7  O   UNL     1      33.823 -17.800 -22.164  0.00  0.00    -0.275 OA
ATOM      8  N   UNL     1      33.707 -15.514 -21.994  0.00  0.00    -0.270 N 
ATOM      9  N   UNL     1      33.682 -13.158 -21.778  0.00  0.00    -0.229 NA
ATOM     10  C   UNL     1      32.877 -15.404 -24.702  0.00  0.00    +0.039 C 
ATOM     11  C   UNL     1      33.153 -14.159 -23.914  0.00  0.00    +0.010 C 
ATOM     12  C   UNL     1      33.741 -16.556 -24.211  0.00  0.00    +0.090 C 
ATOM     13  C   UNL     1      33.521 -14.243 -22.572  0.00  0.00    +0.130 C 
ATOM     14  C   UNL     1      32.950 -12.890 -24.460  0.00  0.00    +0.000 C 
ATOM     15  C   UNL     1      33.727 -16.698 -22.703  0.00  0.00    +0.227 C 
ATOM     16  C   UNL     1      33.131 -11.761 -23.671  0.00  0.00    +0.019 C 
ATOM     17  C   UNL     1      33.490 -11.947 -22.347  0.00  0.00    +0.100 C 
ATOM     18  H   UNL     1      33.831 -15.560 -21.018  0.00  0.00    +0.156 HD
ENDBRANCH   5  16
ENDBRANCH   3   6
BRANCH   2  19
ATOM     19  C   UNL     1      30.606  -8.085 -23.263  0.00  0.00    +0.122 C 
BRANCH  19  21
ATOM     20  N   UNL     1      31.209  -6.810 -19.896  0.00  0.00    -0.284 N 
ATOM     21  C   UNL     1      30.824  -7.838 -21.810  0.00  0.00    +0.014 C 
ATOM     22  C   UNL     1      30.822  -8.818 -20.788  0.00  0.00    +0.013 C 
ATOM     23  C   UNL     1      31.066  -8.145 -19.590  0.00  0.00    +0.051 C 
ATOM     24  C   UNL     1      31.064  -6.617 -21.243  0.00  0.00    +0.063 C 
ATOM     25  C   UNL     1      30.635 -10.214 -20.756  0.00  0.00    +0.001 C 
ATOM     26  C   UNL     1      31.134  -8.801 -18.355  0.00  0.00    +0.015 C 
ATOM     27  C   UNL     1      31.474  -5.753 -18.942  0.00  0.00    +0.117 C 
ATOM     28  C   UNL     1      30.700 -10.884 -19.530  0.00  0.00    +0.000 C 
ATOM     29  C   UNL     1      30.946 -10.187 -18.349  0.00  0.00    +0.001 C 
ENDBRANCH  19  21
ENDBRANCH   2  19
TORSDOF 4
ENDMDL
MODEL 7
REMARK VINA RESULT:      -9.8      4.093     10.542
REMARK  Name = 5288607
REMARK  4 active torsions:
REMARK  status: ('A' for Active; 'I' for Inactive)
REMARK    1  A    between atoms: N_2  and  C_19
REMARK    2  A    between atoms: C_3  and  C_6
REMARK    3  A    between atoms: C_5  and  C_16
REMARK    4  A    between atoms: C_19  and  C_21
REMARK                            x       y       z     vdW  Elec       q    Type
REMARK                         _______ _______ _______ _____ _____    ______ ____
ROOT
ATOM      1  O   UNL     1      29.897 -11.531 -19.890  0.00  0.00    -0.270 OA
ATOM      2  N   UNL     1      31.889 -12.631 -20.362  0.00  0.00    -0.270 N 
ATOM      3  C   UNL     1      30.999 -11.556 -20.438  0.00  0.00    +0.249 C 
ATOM      4  C   UNL     1      31.518 -13.813 -19.593  0.00  0.00    +0.116 C 
ENDROOT
BRANCH   3   6
ATOM      5  C   UNL     1      30.748  -9.234 -21.242  0.00  0.00    +0.006 C 
ATOM      6  C   UNL     1      31.440 -10.397 -21.271  0.00  0.00    +0.058 C 
BRANCH   5  16
ATOM      7  O   UNL     1      33.254  -3.236 -25.373  0.00  0.00    -0.275 OA
ATOM      8  N   UNL     1      31.817  -4.633 -24.253  0.00  0.00    -0.270 N 
ATOM      9  N   UNL     1      30.281  -6.080 -23.184  0.00  0.00    -0.229 NA
ATOM     10  C   UNL     1      34.047  -6.162 -23.403  0.00  0.00    +0.039 C 
ATOM     11  C   UNL     1      32.642  -6.594 -23.111  0.00  0.00    +0.010 C 
ATOM     12  C   UNL     1      34.110  -5.371 -24.701  0.00  0.00    +0.090 C 
ATOM     13  C   UNL     1      31.566  -5.801 -23.507  0.00  0.00    +0.130 C 
ATOM     14  C   UNL     1      32.371  -7.733 -22.351  0.00  0.00    +0.000 C 
ATOM     15  C   UNL     1      33.046  -4.296 -24.784  0.00  0.00    +0.227 C 
ATOM     16  C   UNL     1      31.059  -8.053 -22.026  0.00  0.00    +0.019 C 
ATOM     17  C   UNL     1      30.059  -7.199 -22.459  0.00  0.00    +0.100 C 
ATOM     18  H   UNL     1      31.065  -4.015 -24.406  0.00  0.00    +0.156 HD
ENDBRANCH   5  16
ENDBRANCH   3   6
BRANCH   2  19
ATOM     19  C   UNL     1      33.186 -12.698 -21.032  0.00  0.00    +0.122 C 
BRANCH  19  21
ATOM     20  N   UNL     1      32.655 -14.330 -24.254  0.00  0.00    -0.284 N 
ATOM     21  C   UNL     1      33.091 -13.590 -22.221  0.00  0.00    +0.014 C 
ATOM     22  C   UNL     1      33.527 -14.935 -22.292  0.00  0.00    +0.013 C 
ATOM     23  C   UNL     1      33.243 -15.380 -23.585  0.00  0.00    +0.051 C 
ATOM     24  C   UNL     1      32.559 -13.240 -23.432  0.00  0.00    +0.063 C 
ATOM     25  C   UNL     1      34.140 -15.825 -21.388  0.00  0.00    +0.001 C 
ATOM     26  C   UNL     1      33.541 -16.676 -24.020  0.00  0.00    +0.015 C 
ATOM     27  C   UNL     1      32.201 -14.360 -25.629  0.00  0.00    +0.117 C 
ATOM     28  C   UNL     1      34.444 -17.124 -21.809  0.00  0.00    +0.000 C 
ATOM     29  C   UNL     1      34.149 -17.541 -23.105  0.00  0.00    +0.001 C 
ENDBRANCH  19  21
ENDBRANCH   2  19
TORSDOF 4
ENDMDL
MODEL 8
REMARK VINA RESULT:      -9.7      5.723     11.522
REMARK  Name = 5288607
REMARK  4 active torsions:
REMARK  status: ('A' for Active; 'I' for Inactive)
REMARK    1  A    between atoms: N_2  and  C_19
REMARK    2  A    between atoms: C_3  and  C_6
REMARK    3  A    between atoms: C_5  and  C_16
REMARK    4  A    between atoms: C_19  and  C_21
REMARK                            x       y       z     vdW  Elec       q    Type
REMARK                         _______ _______ _______ _____ _____    ______ ____
ROOT
ATOM      1  O   UNL     1      29.886 -24.477 -15.370  0.00  0.00    -0.270 OA
ATOM      2  N   UNL     1      31.371 -23.613 -13.805  0.00  0.00    -0.270 N 
ATOM      3  C   UNL     1      30.715 -23.629 -15.038  0.00  0.00    +0.249 C 
ATOM      4  C   UNL     1      31.078 -24.653 -12.826  0.00  0.00    +0.116 C 
ENDROOT
BRANCH   3   6
ATOM      5  C   UNL     1      31.988 -22.795 -16.984  0.00  0.00    +0.006 C 
ATOM      6  C   UNL     1      31.094 -22.548 -15.997  0.00  0.00    +0.058 C 
BRANCH   5  16
ATOM      7  O   UNL     1      35.303 -17.861 -21.882  0.00  0.00    -0.275 OA
ATOM      8  N   UNL     1      33.664 -19.000 -20.748  0.00  0.00    -0.270 N 
ATOM      9  N   UNL     1      31.935 -20.203 -19.670  0.00  0.00    -0.229 NA
ATOM     10  C   UNL     1      35.675 -20.215 -19.162  0.00  0.00    +0.039 C 
ATOM     11  C   UNL     1      34.233 -20.610 -19.041  0.00  0.00    +0.010 C 
ATOM     12  C   UNL     1      35.990 -19.750 -20.576  0.00  0.00    +0.090 C 
ATOM     13  C   UNL     1      33.262 -19.967 -19.807  0.00  0.00    +0.130 C 
ATOM     14  C   UNL     1      33.810 -21.547 -18.097  0.00  0.00    +0.000 C 
ATOM     15  C   UNL     1      34.975 -18.759 -21.107  0.00  0.00    +0.227 C 
ATOM     16  C   UNL     1      32.456 -21.822 -17.954  0.00  0.00    +0.019 C 
ATOM     17  C   UNL     1      31.567 -21.127 -18.755  0.00  0.00    +0.100 C 
ATOM     18  H   UNL     1      32.963 -18.460 -21.180  0.00  0.00    +0.156 HD
ENDBRANCH   5  16
ENDBRANCH   3   6
BRANCH   2  19
ATOM     19  C   UNL     1      32.382 -22.638 -13.403  0.00  0.00    +0.122 C 
BRANCH  19  21
ATOM     20  N   UNL     1      35.328 -24.655 -12.642  0.00  0.00    -0.284 N 
ATOM     21  C   UNL     1      33.710 -23.306 -13.298  0.00  0.00    +0.014 C 
ATOM     22  C   UNL     1      34.859 -23.004 -14.066  0.00  0.00    +0.013 C 
ATOM     23  C   UNL     1      35.867 -23.868 -13.635  0.00  0.00    +0.051 C 
ATOM     24  C   UNL     1      34.018 -24.319 -12.431  0.00  0.00    +0.063 C 
ATOM     25  C   UNL     1      35.149 -22.081 -15.091  0.00  0.00    +0.001 C 
ATOM     26  C   UNL     1      37.156 -23.857 -14.180  0.00  0.00    +0.015 C 
ATOM     27  C   UNL     1      36.033 -25.692 -11.918  0.00  0.00    +0.117 C 
ATOM     28  C   UNL     1      36.434 -22.057 -15.644  0.00  0.00    +0.000 C 
ATOM     29  C   UNL     1      37.420 -22.932 -15.195  0.00  0.00    +0.001 C 
ENDBRANCH  19  21
ENDBRANCH   2  19
TORSDOF 4
ENDMDL
MODEL 9
REMARK VINA RESULT:      -9.6      4.263      7.461
REMARK  Name = 5288607
REMARK  4 active torsions:
REMARK  status: ('A' for Active; 'I' for Inactive)
REMARK    1  A    between atoms: N_2  and  C_19
REMARK    2  A    between atoms: C_3  and  C_6
REMARK    3  A    between atoms: C_5  and  C_16
REMARK    4  A    between atoms: C_19  and  C_21
REMARK                            x       y       z     vdW  Elec       q    Type
REMARK                         _______ _______ _______ _____ _____    ______ ____
ROOT
ATOM      1  O   UNL     1      29.479  -9.577 -18.448  0.00  0.00    -0.270 OA
ATOM      2  N   UNL     1      31.065  -7.973 -19.009  0.00  0.00    -0.270 N 
ATOM      3  C   UNL     1      30.468  -9.234 -19.097  0.00  0.00    +0.249 C 
ATOM      4  C   UNL     1      30.506  -6.979 -18.102  0.00  0.00    +0.116 C 
ENDROOT
BRANCH   3   6
ATOM      5  C   UNL     1      31.209 -11.514 -19.690  0.00  0.00    +0.006 C 
ATOM      6  C   UNL     1      31.120 -10.205 -20.025  0.00  0.00    +0.058 C 
BRANCH   5  16
ATOM      7  O   UNL     1      34.213 -16.576 -24.658  0.00  0.00    -0.275 OA
ATOM      8  N   UNL     1      33.698 -15.554 -22.668  0.00  0.00    -0.270 N 
ATOM      9  N   UNL     1      33.267 -14.494 -20.597  0.00  0.00    -0.229 NA
ATOM     10  C   UNL     1      32.009 -13.768 -24.080  0.00  0.00    +0.039 C 
ATOM     11  C   UNL     1      32.272 -13.606 -22.613  0.00  0.00    +0.010 C 
ATOM     12  C   UNL     1      33.203 -14.405 -24.775  0.00  0.00    +0.090 C 
ATOM     13  C   UNL     1      33.075 -14.524 -21.937  0.00  0.00    +0.130 C 
ATOM     14  C   UNL     1      31.645 -12.608 -21.865  0.00  0.00    +0.000 C 
ATOM     15  C   UNL     1      33.721 -15.628 -24.046  0.00  0.00    +0.227 C 
ATOM     16  C   UNL     1      31.844 -12.544 -20.492  0.00  0.00    +0.019 C 
ATOM     17  C   UNL     1      32.654 -13.505 -19.911  0.00  0.00    +0.100 C 
ATOM     18  H   UNL     1      34.147 -16.269 -22.161  0.00  0.00    +0.156 HD
ENDBRANCH   5  16
ENDBRANCH   3   6
BRANCH   2  19
ATOM     19  C   UNL     1      32.258  -7.555 -19.742  0.00  0.00    +0.122 C 
BRANCH  19  21
ATOM     20  N   UNL     1      30.778  -4.986 -21.873  0.00  0.00    -0.284 N 
ATOM     21  C   UNL     1      31.885  -6.549 -20.776  0.00  0.00    +0.014 C 
ATOM     22  C   UNL     1      32.627  -6.233 -21.938  0.00  0.00    +0.013 C 
ATOM     23  C   UNL     1      31.909  -5.244 -22.614  0.00  0.00    +0.051 C 
ATOM     24  C   UNL     1      30.756  -5.776 -20.755  0.00  0.00    +0.063 C 
ATOM     25  C   UNL     1      33.842  -6.685 -22.489  0.00  0.00    +0.001 C 
ATOM     26  C   UNL     1      32.348  -4.683 -23.819  0.00  0.00    +0.015 C 
ATOM     27  C   UNL     1      29.753  -4.023 -22.213  0.00  0.00    +0.117 C 
ATOM     28  C   UNL     1      34.293  -6.135 -23.694  0.00  0.00    +0.000 C 
ATOM     29  C   UNL     1      33.556  -5.149 -24.347  0.00  0.00    +0.001 C 
ENDBRANCH  19  21
ENDBRANCH   2  19
TORSDOF 4
ENDMDL
