MODEL 1
REMARK VINA RESULT:     -12.4      0.000      0.000
REMARK  Name = 3488
REMARK  8 active torsions:
REMARK  status: ('A' for Active; 'I' for Inactive)
REMARK    1  A    between atoms: C_1  and  S_7
REMARK    2  A    between atoms: C_2  and  C_22
REMARK    3  A    between atoms: S_7  and  N_12
REMARK    4  A    between atoms: N_11  and  C_16
REMARK    5  A    between atoms: C_22  and  C_23
REMARK    6  A    between atoms: C_23  and  N_25
REMARK    7  A    between atoms: C_26  and  C_29
REMARK    8  A    between atoms: C_30  and  O_35
REMARK                            x       y       z     vdW  Elec       q    Type
REMARK                         _______ _______ _______ _____ _____    ______ ____
ROOT
ATOM      1  C   UNL     1      33.523 -21.517 -18.354  0.00  0.00    +0.125 C 
ATOM      2  C   UNL     1      34.849 -19.717 -19.987  0.00  0.00    -0.020 C 
ATOM      3  C   UNL     1      32.788 -20.699 -19.193  0.00  0.00    +0.020 C 
ATOM      4  C   UNL     1      34.905 -21.458 -18.311  0.00  0.00    +0.020 C 
ATOM      5  C   UNL     1      33.457 -19.791 -20.016  0.00  0.00    -0.003 C 
ATOM      6  C   UNL     1      35.574 -20.551 -19.134  0.00  0.00    -0.003 C 
ENDROOT
BRANCH   1   7
ATOM      7  S   UNL     1      32.676 -22.666 -17.311  0.00  0.00    +0.077 S 
ATOM      8  O   UNL     1      32.664 -23.955 -17.977  0.00  0.00    -0.150 OA
ATOM      9  O   UNL     1      31.435 -22.034 -16.911  0.00  0.00    -0.150 OA
BRANCH   7  12
ATOM     10  O   UNL     1      32.555 -24.247 -14.640  0.00  0.00    -0.251 OA
ATOM     11  N   UNL     1      34.555 -23.375 -13.876  0.00  0.00    -0.289 N 
ATOM     12  N   UNL     1      33.734 -22.733 -15.970  0.00  0.00    -0.169 N 
ATOM     13  C   UNL     1      33.533 -23.523 -14.794  0.00  0.00    +0.319 C 
ATOM     14  H   UNL     1      35.298 -22.767 -14.092  0.00  0.00    +0.151 HD
ATOM     15  H   UNL     1      34.550 -22.182 -16.011  0.00  0.00    +0.178 HD
BRANCH  11  16
ATOM     16  C   UNL     1      34.581 -24.074 -12.610  0.00  0.00    +0.073 C 
ATOM     17  C   UNL     1      34.914 -23.118 -11.460  0.00  0.00    +0.020 C 
ATOM     18  C   UNL     1      35.556 -25.255 -12.652  0.00  0.00    +0.020 C 
ATOM     19  C   UNL     1      36.376 -22.673 -11.476  0.00  0.00    +0.002 C 
ATOM     20  C   UNL     1      37.017 -24.806 -12.666  0.00  0.00    +0.002 C 
ATOM     21  C   UNL     1      37.328 -23.865 -11.506  0.00  0.00    +0.000 C 
ENDBRANCH  11  16
ENDBRANCH   7  12
ENDBRANCH   1   7
BRANCH   2  22
ATOM     22  C   UNL     1      35.564 -18.747 -20.865  0.00  0.00    +0.048 C 
BRANCH  22  23
ATOM     23  C   UNL     1      34.850 -18.485 -22.198  0.00  0.00    +0.094 C 
BRANCH  23  25
ATOM     24  O   UNL     1      33.306 -17.366 -24.343  0.00  0.00    -0.270 OA
ATOM     25  N   UNL     1      34.447 -17.112 -22.340  0.00  0.00    -0.300 N 
ATOM     26  C   UNL     1      33.697 -16.659 -23.418  0.00  0.00    +0.249 C 
ATOM     27  H   UNL     1      34.715 -16.466 -21.647  0.00  0.00    +0.150 HD
BRANCH  26  29
ATOM     28 CL   UNL     1      32.120 -12.557 -26.120  0.00  0.00    -0.082 Cl
ATOM     29  C   UNL     1      33.386 -15.206 -23.434  0.00  0.00    +0.088 C 
ATOM     30  C   UNL     1      33.531 -14.461 -22.281  0.00  0.00    +0.143 C 
ATOM     31  C   UNL     1      32.956 -14.647 -24.621  0.00  0.00    +0.019 C 
ATOM     32  C   UNL     1      33.234 -13.099 -22.316  0.00  0.00    +0.038 C 
ATOM     33  C   UNL     1      32.658 -13.284 -24.655  0.00  0.00    +0.058 C 
ATOM     34  C   UNL     1      32.798 -12.510 -23.503  0.00  0.00    +0.015 C 
BRANCH  30  35
ATOM     35  O   UNL     1      33.956 -15.017 -21.111  0.00  0.00    -0.471 OA
ATOM     36  C   UNL     1      33.368 -14.524 -19.910  0.00  0.00    +0.252 C 
ENDBRANCH  30  35
ENDBRANCH  26  29
ENDBRANCH  23  25
ENDBRANCH  22  23
ENDBRANCH   2  22
TORSDOF 8
ENDMDL
MODEL 2
REMARK VINA RESULT:     -11.8      1.092      2.039
REMARK  Name = 3488
REMARK  8 active torsions:
REMARK  status: ('A' for Active; 'I' for Inactive)
REMARK    1  A    between atoms: C_1  and  S_7
REMARK    2  A    between atoms: C_2  and  C_22
REMARK    3  A    between atoms: S_7  and  N_12
REMARK    4  A    between atoms: N_11  and  C_16
REMARK    5  A    between atoms: C_22  and  C_23
REMARK    6  A    between atoms: C_23  and  N_25
REMARK    7  A    between atoms: C_26  and  C_29
REMARK    8  A    between atoms: C_30  and  O_35
REMARK                            x       y       z     vdW  Elec       q    Type
REMARK                         _______ _______ _______ _____ _____    ______ ____
ROOT
ATOM      1  C   UNL     1      33.292 -21.277 -18.735  0.00  0.00    +0.125 C 
ATOM      2  C   UNL     1      34.301 -19.371 -20.471  0.00  0.00    -0.020 C 
ATOM      3  C   UNL     1      32.413 -20.497 -19.466  0.00  0.00    +0.020 C 
ATOM      4  C   UNL     1      34.663 -21.128 -18.850  0.00  0.00    +0.020 C 
ATOM      5  C   UNL     1      32.922 -19.536 -20.341  0.00  0.00    -0.003 C 
ATOM      6  C   UNL     1      35.172 -20.168 -19.726  0.00  0.00    -0.003 C 
ENDROOT
BRANCH   1   7
ATOM      7  S   UNL     1      32.647 -22.493 -17.625  0.00  0.00    +0.077 S 
ATOM      8  O   UNL     1      32.713 -23.784 -18.284  0.00  0.00    -0.150 OA
ATOM      9  O   UNL     1      31.384 -21.983 -17.131  0.00  0.00    -0.150 OA
BRANCH   7  12
ATOM     10  O   UNL     1      32.623 -23.591 -14.719  0.00  0.00    -0.251 OA
ATOM     11  N   UNL     1      34.747 -22.803 -14.260  0.00  0.00    -0.289 N 
ATOM     12  N   UNL     1      33.807 -22.439 -16.370  0.00  0.00    -0.169 N 
ATOM     13  C   UNL     1      33.641 -23.000 -15.065  0.00  0.00    +0.319 C 
ATOM     14  H   UNL     1      35.517 -22.314 -14.629  0.00  0.00    +0.151 HD
ATOM     15  H   UNL     1      34.659 -21.985 -16.563  0.00  0.00    +0.178 HD
BRANCH  11  16
ATOM     16  C   UNL     1      34.822 -23.282 -12.897  0.00  0.00    +0.073 C 
ATOM     17  C   UNL     1      36.153 -22.885 -12.247  0.00  0.00    +0.020 C 
ATOM     18  C   UNL     1      34.602 -24.796 -12.833  0.00  0.00    +0.020 C 
ATOM     19  C   UNL     1      37.335 -23.676 -12.806  0.00  0.00    +0.002 C 
ATOM     20  C   UNL     1      35.788 -25.584 -13.391  0.00  0.00    +0.002 C 
ATOM     21  C   UNL     1      37.097 -25.181 -12.721  0.00  0.00    +0.000 C 
ENDBRANCH  11  16
ENDBRANCH   7  12
ENDBRANCH   1   7
BRANCH   2  22
ATOM     22  C   UNL     1      34.845 -18.345 -21.406  0.00  0.00    +0.048 C 
BRANCH  22  23
ATOM     23  C   UNL     1      34.588 -16.903 -20.950  0.00  0.00    +0.094 C 
BRANCH  23  25
ATOM     24  O   UNL     1      33.107 -14.449 -20.801  0.00  0.00    -0.270 OA
ATOM     25  N   UNL     1      34.251 -16.036 -22.046  0.00  0.00    -0.300 N 
ATOM     26  C   UNL     1      33.527 -14.862 -21.879  0.00  0.00    +0.249 C 
ATOM     27  H   UNL     1      34.545 -16.284 -22.954  0.00  0.00    +0.150 HD
BRANCH  26  29
ATOM     28 CL   UNL     1      33.220 -10.258 -24.184  0.00  0.00    -0.082 Cl
ATOM     29  C   UNL     1      33.237 -14.091 -23.115  0.00  0.00    +0.088 C 
ATOM     30  C   UNL     1      32.865 -14.754 -24.266  0.00  0.00    +0.143 C 
ATOM     31  C   UNL     1      33.353 -12.715 -23.064  0.00  0.00    +0.019 C 
ATOM     32  C   UNL     1      32.597 -14.012 -25.417  0.00  0.00    +0.038 C 
ATOM     33  C   UNL     1      33.085 -11.974 -24.215  0.00  0.00    +0.058 C 
ATOM     34  C   UNL     1      32.706 -12.622 -25.391  0.00  0.00    +0.015 C 
BRANCH  30  35
ATOM     35  O   UNL     1      32.752 -16.112 -24.312  0.00  0.00    -0.471 OA
ATOM     36  C   UNL     1      31.663 -16.645 -25.062  0.00  0.00    +0.252 C 
ENDBRANCH  30  35
ENDBRANCH  26  29
ENDBRANCH  23  25
ENDBRANCH  22  23
ENDBRANCH   2  22
TORSDOF 8
ENDMDL
MODEL 3
REMARK VINA RESULT:     -11.0      6.480     10.330
REMARK  Name = 3488
REMARK  8 active torsions:
REMARK  status: ('A' for Active; 'I' for Inactive)
REMARK    1  A    between atoms: C_1  and  S_7
REMARK    2  A    between atoms: C_2  and  C_22
REMARK    3  A    between atoms: S_7  and  N_12
REMARK    4  A    between atoms: N_11  and  C_16
REMARK    5  A    between atoms: C_22  and  C_23
REMARK    6  A    between atoms: C_23  and  N_25
REMARK    7  A    between atoms: C_26  and  C_29
REMARK    8  A    between atoms: C_30  and  O_35
REMARK                            x       y       z     vdW  Elec       q    Type
REMARK                         _______ _______ _______ _____ _____    ______ ____
ROOT
ATOM      1  C   UNL     1      32.059 -12.385 -21.904  0.00  0.00    +0.125 C 
ATOM      2  C   UNL     1      30.883 -10.934 -19.860  0.00  0.00    -0.020 C 
ATOM      3  C   UNL     1      31.732 -13.026 -20.722  0.00  0.00    +0.020 C 
ATOM      4  C   UNL     1      31.812 -11.036 -22.089  0.00  0.00    +0.020 C 
ATOM      5  C   UNL     1      31.139 -12.295 -19.692  0.00  0.00    -0.003 C 
ATOM      6  C   UNL     1      31.219 -10.304 -21.060  0.00  0.00    -0.003 C 
ENDROOT
BRANCH   1   7
ATOM      7  S   UNL     1      32.810 -13.312 -23.209  0.00  0.00    +0.077 S 
ATOM      8  O   UNL     1      33.898 -12.522 -23.753  0.00  0.00    -0.150 OA
ATOM      9  O   UNL     1      31.737 -13.775 -24.066  0.00  0.00    -0.150 OA
BRANCH   7  12
ATOM     10  O   UNL     1      34.008 -16.023 -24.138  0.00  0.00    -0.251 OA
ATOM     11  N   UNL     1      34.423 -16.734 -21.977  0.00  0.00    -0.289 N 
ATOM     12  N   UNL     1      33.452 -14.638 -22.341  0.00  0.00    -0.169 N 
ATOM     13  C   UNL     1      33.972 -15.836 -22.925  0.00  0.00    +0.319 C 
ATOM     14  H   UNL     1      34.351 -16.491 -21.026  0.00  0.00    +0.151 HD
ATOM     15  H   UNL     1      33.466 -14.570 -21.359  0.00  0.00    +0.178 HD
BRANCH  11  16
ATOM     16  C   UNL     1      34.998 -18.017 -22.321  0.00  0.00    +0.073 C 
ATOM     17  C   UNL     1      33.963 -19.139 -22.179  0.00  0.00    +0.020 C 
ATOM     18  C   UNL     1      36.247 -18.303 -21.482  0.00  0.00    +0.020 C 
ATOM     19  C   UNL     1      33.633 -19.448 -20.719  0.00  0.00    +0.002 C 
ATOM     20  C   UNL     1      35.913 -18.614 -20.023  0.00  0.00    +0.002 C 
ATOM     21  C   UNL     1      34.892 -19.741 -19.907  0.00  0.00    +0.000 C 
ENDBRANCH  11  16
ENDBRANCH   7  12
ENDBRANCH   1   7
BRANCH   2  22
ATOM     22  C   UNL     1      30.250 -10.152 -18.759  0.00  0.00    +0.048 C 
BRANCH  22  23
ATOM     23  C   UNL     1      30.997  -8.855 -18.421  0.00  0.00    +0.094 C 
BRANCH  23  25
ATOM     24  O   UNL     1      32.121  -6.214 -18.434  0.00  0.00    -0.270 OA
ATOM     25  N   UNL     1      31.075  -7.961 -19.544  0.00  0.00    -0.300 N 
ATOM     26  C   UNL     1      31.639  -6.695 -19.457  0.00  0.00    +0.249 C 
ATOM     27  H   UNL     1      30.713  -8.258 -20.411  0.00  0.00    +0.150 HD
BRANCH  26  29
ATOM     28 CL   UNL     1      29.752  -2.607 -21.974  0.00  0.00    -0.082 Cl
ATOM     29  C   UNL     1      31.618  -5.882 -20.701  0.00  0.00    +0.088 C 
ATOM     30  C   UNL     1      32.406  -6.249 -21.772  0.00  0.00    +0.143 C 
ATOM     31  C   UNL     1      30.798  -4.772 -20.737  0.00  0.00    +0.019 C 
ATOM     32  C   UNL     1      32.373  -5.474 -22.931  0.00  0.00    +0.038 C 
ATOM     33  C   UNL     1      30.765  -3.997 -21.896  0.00  0.00    +0.058 C 
ATOM     34  C   UNL     1      31.552  -4.347 -22.993  0.00  0.00    +0.015 C 
BRANCH  30  35
ATOM     35  O   UNL     1      33.215  -7.345 -21.732  0.00  0.00    -0.471 OA
ATOM     36  C   UNL     1      33.865  -7.714 -22.946  0.00  0.00    +0.252 C 
ENDBRANCH  30  35
ENDBRANCH  26  29
ENDBRANCH  23  25
ENDBRANCH  22  23
ENDBRANCH   2  22
TORSDOF 8
ENDMDL
MODEL 4
REMARK VINA RESULT:     -10.9      2.895      4.632
REMARK  Name = 3488
REMARK  8 active torsions:
REMARK  status: ('A' for Active; 'I' for Inactive)
REMARK    1  A    between atoms: C_1  and  S_7
REMARK    2  A    between atoms: C_2  and  C_22
REMARK    3  A    between atoms: S_7  and  N_12
REMARK    4  A    between atoms: N_11  and  C_16
REMARK    5  A    between atoms: C_22  and  C_23
REMARK    6  A    between atoms: C_23  and  N_25
REMARK    7  A    between atoms: C_26  and  C_29
REMARK    8  A    between atoms: C_30  and  O_35
REMARK                            x       y       z     vdW  Elec       q    Type
REMARK                         _______ _______ _______ _____ _____    ______ ____
ROOT
ATOM      1  C   UNL     1      34.449 -22.155 -16.617  0.00  0.00    +0.125 C 
ATOM      2  C   UNL     1      34.582 -20.849 -19.055  0.00  0.00    -0.020 C 
ATOM      3  C   UNL     1      35.639 -21.561 -17.001  0.00  0.00    +0.020 C 
ATOM      4  C   UNL     1      33.324 -22.111 -17.422  0.00  0.00    +0.020 C 
ATOM      5  C   UNL     1      35.706 -20.903 -18.230  0.00  0.00    -0.003 C 
ATOM      6  C   UNL     1      33.390 -21.452 -18.650  0.00  0.00    -0.003 C 
ENDROOT
BRANCH   1   7
ATOM      7  S   UNL     1      34.364 -22.988 -15.061  0.00  0.00    +0.077 S 
ATOM      8  O   UNL     1      34.449 -21.992 -14.010  0.00  0.00    -0.150 OA
ATOM      9  O   UNL     1      35.316 -24.080 -15.117  0.00  0.00    -0.150 OA
BRANCH   7  12
ATOM     10  O   UNL     1      31.788 -22.280 -13.476  0.00  0.00    -0.251 OA
ATOM     11  N   UNL     1      30.517 -23.874 -14.566  0.00  0.00    -0.289 N 
ATOM     12  N   UNL     1      32.776 -23.620 -15.114  0.00  0.00    -0.169 N 
ATOM     13  C   UNL     1      31.682 -23.180 -14.304  0.00  0.00    +0.319 C 
ATOM     14  H   UNL     1      30.534 -24.581 -15.251  0.00  0.00    +0.151 HD
ATOM     15  H   UNL     1      32.601 -24.346 -15.756  0.00  0.00    +0.178 HD
BRANCH  11  16
ATOM     16  C   UNL     1      29.272 -23.608 -13.878  0.00  0.00    +0.073 C 
ATOM     17  C   UNL     1      28.252 -24.722 -14.137  0.00  0.00    +0.020 C 
ATOM     18  C   UNL     1      28.710 -22.238 -14.268  0.00  0.00    +0.020 C 
ATOM     19  C   UNL     1      27.706 -24.694 -15.564  0.00  0.00    +0.002 C 
ATOM     20  C   UNL     1      28.163 -22.214 -15.695  0.00  0.00    +0.002 C 
ATOM     21  C   UNL     1      27.141 -23.323 -15.925  0.00  0.00    +0.000 C 
ENDBRANCH  11  16
ENDBRANCH   7  12
ENDBRANCH   1   7
BRANCH   2  22
ATOM     22  C   UNL     1      34.653 -20.146 -20.369  0.00  0.00    +0.048 C 
BRANCH  22  23
ATOM     23  C   UNL     1      35.405 -18.810 -20.309  0.00  0.00    +0.094 C 
BRANCH  23  25
ATOM     24  O   UNL     1      34.129 -16.276 -19.873  0.00  0.00    -0.270 OA
ATOM     25  N   UNL     1      34.960 -17.888 -21.319  0.00  0.00    -0.300 N 
ATOM     26  C   UNL     1      34.349 -16.678 -21.013  0.00  0.00    +0.249 C 
ATOM     27  H   UNL     1      35.092 -18.124 -22.266  0.00  0.00    +0.150 HD
BRANCH  26  29
ATOM     28 CL   UNL     1      33.157 -12.003 -22.836  0.00  0.00    -0.082 Cl
ATOM     29  C   UNL     1      33.922 -15.850 -22.170  0.00  0.00    +0.088 C 
ATOM     30  C   UNL     1      33.698 -16.446 -23.394  0.00  0.00    +0.143 C 
ATOM     31  C   UNL     1      33.764 -14.493 -21.974  0.00  0.00    +0.019 C 
ATOM     32  C   UNL     1      33.297 -15.652 -24.469  0.00  0.00    +0.038 C 
ATOM     33  C   UNL     1      33.364 -13.699 -23.049  0.00  0.00    +0.058 C 
ATOM     34  C   UNL     1      33.130 -14.278 -24.296  0.00  0.00    +0.015 C 
BRANCH  30  35
ATOM     35  O   UNL     1      33.855 -17.787 -23.584  0.00  0.00    -0.471 OA
ATOM     36  C   UNL     1      32.724 -18.510 -24.064  0.00  0.00    +0.252 C 
ENDBRANCH  30  35
ENDBRANCH  26  29
ENDBRANCH  23  25
ENDBRANCH  22  23
ENDBRANCH   2  22
TORSDOF 8
ENDMDL
MODEL 5
REMARK VINA RESULT:     -10.8      3.193      5.116
REMARK  Name = 3488
REMARK  8 active torsions:
REMARK  status: ('A' for Active; 'I' for Inactive)
REMARK    1  A    between atoms: C_1  and  S_7
REMARK    2  A    between atoms: C_2  and  C_22
REMARK    3  A    between atoms: S_7  and  N_12
REMARK    4  A    between atoms: N_11  and  C_16
REMARK    5  A    between atoms: C_22  and  C_23
REMARK    6  A    between atoms: C_23  and  N_25
REMARK    7  A    between atoms: C_26  and  C_29
REMARK    8  A    between atoms: C_30  and  O_35
REMARK                            x       y       z     vdW  Elec       q    Type
REMARK                         _______ _______ _______ _____ _____    ______ ____
ROOT
ATOM      1  C   UNL     1      35.368 -23.052 -14.746  0.00  0.00    +0.125 C 
ATOM      2  C   UNL     1      35.640 -21.457 -16.992  0.00  0.00    -0.020 C 
ATOM      3  C   UNL     1      36.591 -22.461 -15.010  0.00  0.00    +0.020 C 
ATOM      4  C   UNL     1      34.277 -22.865 -15.576  0.00  0.00    +0.020 C 
ATOM      5  C   UNL     1      36.728 -21.657 -16.143  0.00  0.00    -0.003 C 
ATOM      6  C   UNL     1      34.413 -22.060 -16.708  0.00  0.00    -0.003 C 
ENDROOT
BRANCH   1   7
ATOM      7  S   UNL     1      35.194 -24.071 -13.311  0.00  0.00    +0.077 S 
ATOM      8  O   UNL     1      35.204 -23.210 -12.143  0.00  0.00    -0.150 OA
ATOM      9  O   UNL     1      36.158 -25.146 -13.441  0.00  0.00    -0.150 OA
BRANCH   7  12
ATOM     10  O   UNL     1      32.444 -23.272 -12.108  0.00  0.00    -0.251 OA
ATOM     11  N   UNL     1      31.305 -24.908 -13.280  0.00  0.00    -0.289 N 
ATOM     12  N   UNL     1      33.619 -24.694 -13.541  0.00  0.00    -0.169 N 
ATOM     13  C   UNL     1      32.435 -24.209 -12.901  0.00  0.00    +0.319 C 
ATOM     14  H   UNL     1      31.401 -25.646 -13.923  0.00  0.00    +0.151 HD
ATOM     15  H   UNL     1      33.519 -25.449 -14.166  0.00  0.00    +0.178 HD
BRANCH  11  16
ATOM     16  C   UNL     1      29.985 -24.601 -12.773  0.00  0.00    +0.073 C 
ATOM     17  C   UNL     1      28.902 -25.317 -13.588  0.00  0.00    +0.020 C 
ATOM     18  C   UNL     1      29.745 -23.089 -12.738  0.00  0.00    +0.020 C 
ATOM     19  C   UNL     1      28.729 -24.717 -14.983  0.00  0.00    +0.002 C 
ATOM     20  C   UNL     1      29.570 -22.492 -14.134  0.00  0.00    +0.002 C 
ATOM     21  C   UNL     1      28.479 -23.212 -14.922  0.00  0.00    +0.000 C 
ENDBRANCH  11  16
ENDBRANCH   7  12
ENDBRANCH   1   7
BRANCH   2  22
ATOM     22  C   UNL     1      35.785 -20.599 -18.203  0.00  0.00    +0.048 C 
BRANCH  22  23
ATOM     23  C   UNL     1      34.763 -20.912 -19.303  0.00  0.00    +0.094 C 
BRANCH  23  25
ATOM     24  O   UNL     1      36.435 -18.677 -19.975  0.00  0.00    -0.270 OA
ATOM     25  N   UNL     1      34.374 -19.738 -20.036  0.00  0.00    -0.300 N 
ATOM     26  C   UNL     1      35.255 -18.701 -20.316  0.00  0.00    +0.249 C 
ATOM     27  H   UNL     1      33.444 -19.665 -20.353  0.00  0.00    +0.150 HD
BRANCH  26  29
ATOM     28 CL   UNL     1      33.399 -13.891 -20.159  0.00  0.00    -0.082 Cl
ATOM     29  C   UNL     1      34.691 -17.545 -21.060  0.00  0.00    +0.088 C 
ATOM     30  C   UNL     1      34.517 -17.628 -22.426  0.00  0.00    +0.143 C 
ATOM     31  C   UNL     1      34.357 -16.413 -20.343  0.00  0.00    +0.019 C 
ATOM     32  C   UNL     1      33.986 -16.532 -23.106  0.00  0.00    +0.038 C 
ATOM     33  C   UNL     1      33.826 -15.317 -21.024  0.00  0.00    +0.058 C 
ATOM     34  C   UNL     1      33.640 -15.377 -22.405  0.00  0.00    +0.015 C 
BRANCH  30  35
ATOM     35  O   UNL     1      34.849 -18.747 -23.130  0.00  0.00    -0.471 OA
ATOM     36  C   UNL     1      33.775 -19.514 -23.669  0.00  0.00    +0.252 C 
ENDBRANCH  30  35
ENDBRANCH  26  29
ENDBRANCH  23  25
ENDBRANCH  22  23
ENDBRANCH   2  22
TORSDOF 8
ENDMDL
MODEL 6
REMARK VINA RESULT:     -10.8      1.701      2.258
REMARK  Name = 3488
REMARK  8 active torsions:
REMARK  status: ('A' for Active; 'I' for Inactive)
REMARK    1  A    between atoms: C_1  and  S_7
REMARK    2  A    between atoms: C_2  and  C_22
REMARK    3  A    between atoms: S_7  and  N_12
REMARK    4  A    between atoms: N_11  and  C_16
REMARK    5  A    between atoms: C_22  and  C_23
REMARK    6  A    between atoms: C_23  and  N_25
REMARK    7  A    between atoms: C_26  and  C_29
REMARK    8  A    between atoms: C_30  and  O_35
REMARK                            x       y       z     vdW  Elec       q    Type
REMARK                         _______ _______ _______ _____ _____    ______ ____
ROOT
ATOM      1  C   UNL     1      33.601 -21.081 -18.924  0.00  0.00    +0.125 C 
ATOM      2  C   UNL     1      34.852 -19.174 -20.493  0.00  0.00    -0.020 C 
ATOM      3  C   UNL     1      32.836 -20.288 -19.760  0.00  0.00    +0.020 C 
ATOM      4  C   UNL     1      34.976 -20.944 -18.853  0.00  0.00    +0.020 C 
ATOM      5  C   UNL     1      33.466 -19.326 -20.552  0.00  0.00    -0.003 C 
ATOM      6  C   UNL     1      35.607 -19.984 -19.644  0.00  0.00    -0.003 C 
ENDROOT
BRANCH   1   7
ATOM      7  S   UNL     1      32.803 -22.299 -17.921  0.00  0.00    +0.077 S 
ATOM      8  O   UNL     1      32.867 -23.570 -18.618  0.00  0.00    -0.150 OA
ATOM      9  O   UNL     1      31.525 -21.743 -17.523  0.00  0.00    -0.150 OA
BRANCH   7  12
ATOM     10  O   UNL     1      32.477 -23.515 -15.082  0.00  0.00    -0.251 OA
ATOM     11  N   UNL     1      34.578 -22.832 -14.400  0.00  0.00    -0.289 N 
ATOM     12  N   UNL     1      33.846 -22.344 -16.567  0.00  0.00    -0.169 N 
ATOM     13  C   UNL     1      33.543 -22.952 -15.308  0.00  0.00    +0.319 C 
ATOM     14  H   UNL     1      35.395 -22.360 -14.678  0.00  0.00    +0.151 HD
ATOM     15  H   UNL     1      34.728 -21.916 -16.663  0.00  0.00    +0.178 HD
BRANCH  11  16
ATOM     16  C   UNL     1      34.512 -23.371 -13.059  0.00  0.00    +0.073 C 
ATOM     17  C   UNL     1      35.702 -22.896 -12.217  0.00  0.00    +0.020 C 
ATOM     18  C   UNL     1      34.423 -24.899 -13.083  0.00  0.00    +0.020 C 
ATOM     19  C   UNL     1      37.015 -23.556 -12.638  0.00  0.00    +0.002 C 
ATOM     20  C   UNL     1      35.739 -25.556 -13.502  0.00  0.00    +0.002 C 
ATOM     21  C   UNL     1      36.905 -25.078 -12.643  0.00  0.00    +0.000 C 
ENDBRANCH  11  16
ENDBRANCH   7  12
ENDBRANCH   1   7
BRANCH   2  22
ATOM     22  C   UNL     1      35.525 -18.146 -21.338  0.00  0.00    +0.048 C 
BRANCH  22  23
ATOM     23  C   UNL     1      34.654 -17.634 -22.493  0.00  0.00    +0.094 C 
BRANCH  23  25
ATOM     24  O   UNL     1      34.053 -15.513 -24.331  0.00  0.00    -0.270 OA
ATOM     25  N   UNL     1      34.015 -16.385 -22.182  0.00  0.00    -0.300 N 
ATOM     26  C   UNL     1      33.763 -15.412 -23.141  0.00  0.00    +0.249 C 
ATOM     27  H   UNL     1      33.745 -16.210 -21.251  0.00  0.00    +0.150 HD
BRANCH  26  29
ATOM     28 CL   UNL     1      31.450 -12.914 -19.266  0.00  0.00    -0.082 Cl
ATOM     29  C   UNL     1      33.120 -14.164 -22.655  0.00  0.00    +0.088 C 
ATOM     30  C   UNL     1      33.007 -13.077 -23.497  0.00  0.00    +0.143 C 
ATOM     31  C   UNL     1      32.652 -14.139 -21.356  0.00  0.00    +0.019 C 
ATOM     32  C   UNL     1      32.400 -11.915 -23.021  0.00  0.00    +0.038 C 
ATOM     33  C   UNL     1      32.045 -12.977 -20.880  0.00  0.00    +0.058 C 
ATOM     34  C   UNL     1      31.918 -11.865 -21.713  0.00  0.00    +0.015 C 
BRANCH  30  35
ATOM     35  O   UNL     1      33.471 -13.106 -24.778  0.00  0.00    -0.471 OA
ATOM     36  C   UNL     1      32.522 -12.863 -25.815  0.00  0.00    +0.252 C 
ENDBRANCH  30  35
ENDBRANCH  26  29
ENDBRANCH  23  25
ENDBRANCH  22  23
ENDBRANCH   2  22
TORSDOF 8
ENDMDL
MODEL 7
REMARK VINA RESULT:     -10.7      3.963     11.497
REMARK  Name = 3488
REMARK  8 active torsions:
REMARK  status: ('A' for Active; 'I' for Inactive)
REMARK    1  A    between atoms: C_1  and  S_7
REMARK    2  A    between atoms: C_2  and  C_22
REMARK    3  A    between atoms: S_7  and  N_12
REMARK    4  A    between atoms: N_11  and  C_16
REMARK    5  A    between atoms: C_22  and  C_23
REMARK    6  A    between atoms: C_23  and  N_25
REMARK    7  A    between atoms: C_26  and  C_29
REMARK    8  A    between atoms: C_30  and  O_35
REMARK                            x       y       z     vdW  Elec       q    Type
REMARK                         _______ _______ _______ _____ _____    ______ ____
ROOT
ATOM      1  C   UNL     1      34.027 -19.971 -20.057  0.00  0.00    +0.125 C 
ATOM      2  C   UNL     1      33.176 -21.858 -18.219  0.00  0.00    -0.020 C 
ATOM      3  C   UNL     1      32.670 -20.149 -19.852  0.00  0.00    +0.020 C 
ATOM      4  C   UNL     1      34.969 -20.712 -19.366  0.00  0.00    +0.020 C 
ATOM      5  C   UNL     1      32.241 -21.101 -18.925  0.00  0.00    -0.003 C 
ATOM      6  C   UNL     1      34.541 -21.663 -18.439  0.00  0.00    -0.003 C 
ENDROOT
BRANCH   1   7
ATOM      7  S   UNL     1      34.571 -18.766 -21.231  0.00  0.00    +0.077 S 
ATOM      8  O   UNL     1      33.897 -19.026 -22.489  0.00  0.00    -0.150 OA
ATOM      9  O   UNL     1      36.018 -18.738 -21.164  0.00  0.00    -0.150 OA
BRANCH   7  12
ATOM     10  O   UNL     1      34.953 -15.769 -21.955  0.00  0.00    -0.251 OA
ATOM     11  N   UNL     1      33.578 -15.041 -20.246  0.00  0.00    -0.289 N 
ATOM     12  N   UNL     1      33.945 -17.332 -20.542  0.00  0.00    -0.169 N 
ATOM     13  C   UNL     1      34.223 -16.004 -20.998  0.00  0.00    +0.319 C 
ATOM     14  H   UNL     1      33.012 -15.331 -19.495  0.00  0.00    +0.151 HD
ATOM     15  H   UNL     1      33.344 -17.428 -19.767  0.00  0.00    +0.178 HD
BRANCH  11  16
ATOM     16  C   UNL     1      33.697 -13.624 -20.514  0.00  0.00    +0.073 C 
ATOM     17  C   UNL     1      32.736 -12.815 -19.636  0.00  0.00    +0.020 C 
ATOM     18  C   UNL     1      33.477 -13.325 -22.000  0.00  0.00    +0.020 C 
ATOM     19  C   UNL     1      31.277 -12.980 -20.060  0.00  0.00    +0.002 C 
ATOM     20  C   UNL     1      32.016 -13.489 -22.420  0.00  0.00    +0.002 C 
ATOM     21  C   UNL     1      31.081 -12.665 -21.540  0.00  0.00    +0.000 C 
ENDBRANCH  11  16
ENDBRANCH   7  12
ENDBRANCH   1   7
BRANCH   2  22
ATOM     22  C   UNL     1      32.718 -22.875 -17.229  0.00  0.00    +0.048 C 
BRANCH  22  23
ATOM     23  C   UNL     1      32.879 -22.426 -15.771  0.00  0.00    +0.094 C 
BRANCH  23  25
ATOM     24  O   UNL     1      35.544 -21.728 -14.968  0.00  0.00    -0.270 OA
ATOM     25  N   UNL     1      33.801 -23.255 -15.043  0.00  0.00    -0.300 N 
ATOM     26  C   UNL     1      35.078 -22.831 -14.696  0.00  0.00    +0.249 C 
ATOM     27  H   UNL     1      33.517 -24.161 -14.780  0.00  0.00    +0.150 HD
BRANCH  26  29
ATOM     28 CL   UNL     1      39.605 -25.275 -14.318  0.00  0.00    -0.082 Cl
ATOM     29  C   UNL     1      35.919 -23.816 -13.969  0.00  0.00    +0.088 C 
ATOM     30  C   UNL     1      35.411 -24.468 -12.864  0.00  0.00    +0.143 C 
ATOM     31  C   UNL     1      37.199 -24.045 -14.434  0.00  0.00    +0.019 C 
ATOM     32  C   UNL     1      36.216 -25.389 -12.194  0.00  0.00    +0.038 C 
ATOM     33  C   UNL     1      38.004 -24.966 -13.763  0.00  0.00    +0.058 C 
ATOM     34  C   UNL     1      37.513 -25.639 -12.644  0.00  0.00    +0.015 C 
BRANCH  30  35
ATOM     35  O   UNL     1      34.147 -24.239 -12.408  0.00  0.00    -0.471 OA
ATOM     36  C   UNL     1      34.023 -23.598 -11.140  0.00  0.00    +0.252 C 
ENDBRANCH  30  35
ENDBRANCH  26  29
ENDBRANCH  23  25
ENDBRANCH  22  23
ENDBRANCH   2  22
TORSDOF 8
ENDMDL
MODEL 8
REMARK VINA RESULT:     -10.5      4.165     11.534
REMARK  Name = 3488
REMARK  8 active torsions:
REMARK  status: ('A' for Active; 'I' for Inactive)
REMARK    1  A    between atoms: C_1  and  S_7
REMARK    2  A    between atoms: C_2  and  C_22
REMARK    3  A    between atoms: S_7  and  N_12
REMARK    4  A    between atoms: N_11  and  C_16
REMARK    5  A    between atoms: C_22  and  C_23
REMARK    6  A    between atoms: C_23  and  N_25
REMARK    7  A    between atoms: C_26  and  C_29
REMARK    8  A    between atoms: C_30  and  O_35
REMARK                            x       y       z     vdW  Elec       q    Type
REMARK                         _______ _______ _______ _____ _____    ______ ____
ROOT
ATOM      1  C   UNL     1      34.004 -19.974 -20.018  0.00  0.00    +0.125 C 
ATOM      2  C   UNL     1      33.034 -21.857 -18.236  0.00  0.00    -0.020 C 
ATOM      3  C   UNL     1      32.637 -20.104 -19.851  0.00  0.00    +0.020 C 
ATOM      4  C   UNL     1      34.899 -20.762 -19.315  0.00  0.00    +0.020 C 
ATOM      5  C   UNL     1      32.148 -21.054 -18.952  0.00  0.00    -0.003 C 
ATOM      6  C   UNL     1      34.410 -21.711 -18.416  0.00  0.00    -0.003 C 
ENDROOT
BRANCH   1   7
ATOM      7  S   UNL     1      34.624 -18.771 -21.156  0.00  0.00    +0.077 S 
ATOM      8  O   UNL     1      34.002 -19.008 -22.445  0.00  0.00    -0.150 OA
ATOM      9  O   UNL     1      36.067 -18.773 -21.024  0.00  0.00    -0.150 OA
BRANCH   7  12
ATOM     10  O   UNL     1      34.942 -15.788 -21.960  0.00  0.00    -0.251 OA
ATOM     11  N   UNL     1      33.604 -15.038 -20.230  0.00  0.00    -0.289 N 
ATOM     12  N   UNL     1      33.997 -17.330 -20.483  0.00  0.00    -0.169 N 
ATOM     13  C   UNL     1      34.242 -16.010 -20.977  0.00  0.00    +0.319 C 
ATOM     14  H   UNL     1      33.063 -15.318 -19.457  0.00  0.00    +0.151 HD
ATOM     15  H   UNL     1      33.419 -17.417 -19.690  0.00  0.00    +0.178 HD
BRANCH  11  16
ATOM     16  C   UNL     1      33.695 -13.627 -20.535  0.00  0.00    +0.073 C 
ATOM     17  C   UNL     1      32.684 -12.820 -19.713  0.00  0.00    +0.020 C 
ATOM     18  C   UNL     1      33.518 -13.375 -22.035  0.00  0.00    +0.020 C 
ATOM     19  C   UNL     1      31.245 -13.037 -20.180  0.00  0.00    +0.002 C 
ATOM     20  C   UNL     1      32.077 -13.590 -22.499  0.00  0.00    +0.002 C 
ATOM     21  C   UNL     1      31.091 -12.769 -21.675  0.00  0.00    +0.000 C 
ENDBRANCH  11  16
ENDBRANCH   7  12
ENDBRANCH   1   7
BRANCH   2  22
ATOM     22  C   UNL     1      32.512 -22.872 -17.276  0.00  0.00    +0.048 C 
BRANCH  22  23
ATOM     23  C   UNL     1      32.195 -22.299 -15.889  0.00  0.00    +0.094 C 
BRANCH  23  25
ATOM     24  O   UNL     1      32.160 -24.353 -13.885  0.00  0.00    -0.270 OA
ATOM     25  N   UNL     1      33.230 -22.581 -14.932  0.00  0.00    -0.300 N 
ATOM     26  C   UNL     1      33.126 -23.601 -13.994  0.00  0.00    +0.249 C 
ATOM     27  H   UNL     1      34.046 -22.029 -14.940  0.00  0.00    +0.150 HD
BRANCH  26  29
ATOM     28 CL   UNL     1      34.739 -24.246  -9.137  0.00  0.00    -0.082 Cl
ATOM     29  C   UNL     1      34.269 -23.747 -13.057  0.00  0.00    +0.088 C 
ATOM     30  C   UNL     1      35.561 -23.721 -13.541  0.00  0.00    +0.143 C 
ATOM     31  C   UNL     1      33.992 -23.907 -11.713  0.00  0.00    +0.019 C 
ATOM     32  C   UNL     1      36.621 -23.859 -12.646  0.00  0.00    +0.038 C 
ATOM     33  C   UNL     1      35.052 -24.046 -10.818  0.00  0.00    +0.058 C 
ATOM     34  C   UNL     1      36.367 -24.022 -11.284  0.00  0.00    +0.015 C 
BRANCH  30  35
ATOM     35  O   UNL     1      35.831 -23.563 -14.868  0.00  0.00    -0.471 OA
ATOM     36  C   UNL     1      36.640 -22.448 -15.236  0.00  0.00    +0.252 C 
ENDBRANCH  30  35
ENDBRANCH  26  29
ENDBRANCH  23  25
ENDBRANCH  22  23
ENDBRANCH   2  22
TORSDOF 8
ENDMDL
MODEL 9
REMARK VINA RESULT:     -10.5      6.222     10.285
REMARK  Name = 3488
REMARK  8 active torsions:
REMARK  status: ('A' for Active; 'I' for Inactive)
REMARK    1  A    between atoms: C_1  and  S_7
REMARK    2  A    between atoms: C_2  and  C_22
REMARK    3  A    between atoms: S_7  and  N_12
REMARK    4  A    between atoms: N_11  and  C_16
REMARK    5  A    between atoms: C_22  and  C_23
REMARK    6  A    between atoms: C_23  and  N_25
REMARK    7  A    between atoms: C_26  and  C_29
REMARK    8  A    between atoms: C_30  and  O_35
REMARK                            x       y       z     vdW  Elec       q    Type
REMARK                         _______ _______ _______ _____ _____    ______ ____
ROOT
ATOM      1  C   UNL     1      32.047 -12.497 -21.841  0.00  0.00    +0.125 C 
ATOM      2  C   UNL     1      30.883 -11.037 -19.797  0.00  0.00    -0.020 C 
ATOM      3  C   UNL     1      31.803 -13.113 -20.627  0.00  0.00    +0.020 C 
ATOM      4  C   UNL     1      31.723 -11.170 -22.060  0.00  0.00    +0.020 C 
ATOM      5  C   UNL     1      31.216 -12.377 -19.596  0.00  0.00    -0.003 C 
ATOM      6  C   UNL     1      31.136 -10.434 -21.030  0.00  0.00    -0.003 C 
ENDROOT
BRANCH   1   7
ATOM      7  S   UNL     1      32.790 -13.429 -23.147  0.00  0.00    +0.077 S 
ATOM      8  O   UNL     1      33.862 -12.634 -23.715  0.00  0.00    -0.150 OA
ATOM      9  O   UNL     1      31.710 -13.914 -23.984  0.00  0.00    -0.150 OA
BRANCH   7  12
ATOM     10  O   UNL     1      33.981 -16.149 -24.062  0.00  0.00    -0.251 OA
ATOM     11  N   UNL     1      34.449 -16.825 -21.901  0.00  0.00    -0.289 N 
ATOM     12  N   UNL     1      33.459 -14.739 -22.274  0.00  0.00    -0.169 N 
ATOM     13  C   UNL     1      33.972 -15.943 -22.852  0.00  0.00    +0.319 C 
ATOM     14  H   UNL     1      34.397 -16.568 -20.952  0.00  0.00    +0.151 HD
ATOM     15  H   UNL     1      33.494 -14.656 -21.294  0.00  0.00    +0.178 HD
BRANCH  11  16
ATOM     16  C   UNL     1      35.022 -18.109 -22.238  0.00  0.00    +0.073 C 
ATOM     17  C   UNL     1      34.000 -19.235 -22.049  0.00  0.00    +0.020 C 
ATOM     18  C   UNL     1      36.296 -18.374 -21.429  0.00  0.00    +0.020 C 
ATOM     19  C   UNL     1      33.712 -19.521 -20.575  0.00  0.00    +0.002 C 
ATOM     20  C   UNL     1      36.004 -18.662 -19.956  0.00  0.00    +0.002 C 
ATOM     21  C   UNL     1      34.994 -19.793 -19.793  0.00  0.00    +0.000 C 
ENDBRANCH  11  16
ENDBRANCH   7  12
ENDBRANCH   1   7
BRANCH   2  22
ATOM     22  C   UNL     1      30.257 -10.250 -18.696  0.00  0.00    +0.048 C 
BRANCH  22  23
ATOM     23  C   UNL     1      30.999  -8.946 -18.376  0.00  0.00    +0.094 C 
BRANCH  23  25
ATOM     24  O   UNL     1      31.557  -6.132 -18.464  0.00  0.00    -0.270 OA
ATOM     25  N   UNL     1      31.248  -8.157 -19.551  0.00  0.00    -0.300 N 
ATOM     26  C   UNL     1      31.510  -6.794 -19.498  0.00  0.00    +0.249 C 
ATOM     27  H   UNL     1      31.231  -8.600 -20.431  0.00  0.00    +0.150 HD
BRANCH  26  29
ATOM     28 CL   UNL     1      34.274  -6.429 -23.838  0.00  0.00    -0.082 Cl
ATOM     29  C   UNL     1      31.719  -6.116 -20.803  0.00  0.00    +0.088 C 
ATOM     30  C   UNL     1      30.877  -5.093 -21.188  0.00  0.00    +0.143 C 
ATOM     31  C   UNL     1      32.766  -6.543 -21.596  0.00  0.00    +0.019 C 
ATOM     32  C   UNL     1      31.089  -4.469 -22.417  0.00  0.00    +0.038 C 
ATOM     33  C   UNL     1      32.977  -5.920 -22.826  0.00  0.00    +0.058 C 
ATOM     34  C   UNL     1      32.140  -4.882 -23.236  0.00  0.00    +0.015 C 
BRANCH  30  35
ATOM     35  O   UNL     1      29.844  -4.674 -20.402  0.00  0.00    -0.471 OA
ATOM     36  C   UNL     1      29.171  -3.483 -20.800  0.00  0.00    +0.252 C 
ENDBRANCH  30  35
ENDBRANCH  26  29
ENDBRANCH  23  25
ENDBRANCH  22  23
ENDBRANCH   2  22
TORSDOF 8
ENDMDL
