MODEL 1
REMARK VINA RESULT:     -12.3      0.000      0.000
REMARK  Name = 59473233
REMARK  3 active torsions:
REMARK  status: ('A' for Active; 'I' for Inactive)
REMARK    1  A    between atoms: N_1  and  C_25
REMARK    2  A    between atoms: C_7  and  C_14
REMARK    3  A    between atoms: C_22  and  N_29
REMARK                            x       y       z     vdW  Elec       q    Type
REMARK                         _______ _______ _______ _____ _____    ______ ____
ROOT
ATOM      1  N   UNL     1      35.895 -22.720 -15.283  0.00  0.00    -0.286 N 
ATOM      2  N   UNL     1      34.482 -23.514 -11.956  0.00  0.00    -0.260 N 
ATOM      3  N   UNL     1      33.709 -23.165 -14.592  0.00  0.00    -0.387 NA
ATOM      4  N   UNL     1      36.623 -23.119 -12.438  0.00  0.00    -0.224 NA
ATOM      5  C   UNL     1      34.987 -23.029 -14.297  0.00  0.00    +0.216 C 
ATOM      6  C   UNL     1      35.406 -23.212 -12.922  0.00  0.00    +0.180 C 
ATOM      7  C   UNL     1      32.796 -23.480 -13.585  0.00  0.00    +0.131 C 
ATOM      8  C   UNL     1      33.150 -23.650 -12.291  0.00  0.00    +0.156 C 
ATOM      9  C   UNL     1      35.155 -23.622 -10.772  0.00  0.00    +0.088 C 
ATOM     10  C   UNL     1      36.472 -23.374 -11.095  0.00  0.00    +0.117 C 
ATOM     11  H   UNL     1      36.812 -23.058 -15.161  0.00  0.00    +0.155 HD
ENDROOT
BRANCH   7  14
ATOM     12  N   UNL     1      28.744 -22.353 -16.282  0.00  0.00    -0.236 N 
ATOM     13  N   UNL     1      27.471 -22.781 -16.299  0.00  0.00    -0.180 NA
ATOM     14  C   UNL     1      31.374 -23.606 -13.978  0.00  0.00    +0.028 C 
ATOM     15  C   UNL     1      29.529 -22.964 -15.341  0.00  0.00    +0.067 C 
ATOM     16  C   UNL     1      30.876 -22.805 -15.011  0.00  0.00    +0.018 C 
ATOM     17  C   UNL     1      28.691 -23.866 -14.696  0.00  0.00    +0.035 C 
ATOM     18  C   UNL     1      30.555 -24.519 -13.312  0.00  0.00    +0.002 C 
ATOM     19  C   UNL     1      29.206 -24.664 -13.659  0.00  0.00    +0.003 C 
ATOM     20  C   UNL     1      27.442 -23.701 -15.333  0.00  0.00    +0.119 C 
ATOM     21  H   UNL     1      29.083 -21.658 -16.892  0.00  0.00    +0.174 HD
ENDBRANCH   7  14
BRANCH   1  25
ATOM     22  C   UNL     1      35.167 -20.496 -18.749  0.00  0.00    +0.048 C 
ATOM     23  C   UNL     1      36.276 -20.205 -17.953  0.00  0.00    +0.016 C 
ATOM     24  C   UNL     1      34.303 -21.529 -18.388  0.00  0.00    +0.016 C 
ATOM     25  C   UNL     1      35.652 -21.978 -16.436  0.00  0.00    +0.050 C 
ATOM     26  C   UNL     1      36.518 -20.946 -16.796  0.00  0.00    +0.016 C 
ATOM     27  C   UNL     1      34.544 -22.270 -17.232  0.00  0.00    +0.016 C 
BRANCH  22  29
ATOM     28  O   UNL     1      34.405 -18.036 -22.072  0.00  0.00    -0.350 OA
ATOM     29  N   UNL     1      34.925 -19.752 -19.908  0.00  0.00    -0.303 N 
ATOM     30  C   UNL     1      35.893 -18.712 -20.280  0.00  0.00    +0.123 C 
ATOM     31  C   UNL     1      33.546 -19.507 -20.345  0.00  0.00    +0.123 C 
ATOM     32  C   UNL     1      35.754 -18.385 -21.762  0.00  0.00    +0.164 C 
ATOM     33  C   UNL     1      33.532 -19.137 -21.824  0.00  0.00    +0.164 C 
ENDBRANCH  22  29
ENDBRANCH   1  25
TORSDOF 3
ENDMDL
MODEL 2
REMARK VINA RESULT:     -11.2      1.008      1.603
REMARK  Name = 59473233
REMARK  3 active torsions:
REMARK  status: ('A' for Active; 'I' for Inactive)
REMARK    1  A    between atoms: N_1  and  C_25
REMARK    2  A    between atoms: C_7  and  C_14
REMARK    3  A    between atoms: C_22  and  N_29
REMARK                            x       y       z     vdW  Elec       q    Type
REMARK                         _______ _______ _______ _____ _____    ______ ____
ROOT
ATOM      1  N   UNL     1      36.055 -22.494 -15.631  0.00  0.00    -0.286 N 
ATOM      2  N   UNL     1      34.768 -23.309 -12.258  0.00  0.00    -0.260 N 
ATOM      3  N   UNL     1      33.901 -22.975 -14.866  0.00  0.00    -0.387 NA
ATOM      4  N   UNL     1      36.885 -22.879 -12.812  0.00  0.00    -0.224 NA
ATOM      5  C   UNL     1      35.186 -22.818 -14.615  0.00  0.00    +0.216 C 
ATOM      6  C   UNL     1      35.654 -22.992 -13.254  0.00  0.00    +0.180 C 
ATOM      7  C   UNL     1      33.028 -23.304 -13.829  0.00  0.00    +0.131 C 
ATOM      8  C   UNL     1      33.428 -23.467 -12.548  0.00  0.00    +0.156 C 
ATOM      9  C   UNL     1      35.482 -23.404 -11.097  0.00  0.00    +0.088 C 
ATOM     10  C   UNL     1      36.783 -23.135 -11.464  0.00  0.00    +0.117 C 
ATOM     11  H   UNL     1      36.981 -22.817 -15.539  0.00  0.00    +0.155 HD
ENDROOT
BRANCH   7  14
ATOM     12  N   UNL     1      28.476 -25.320 -13.415  0.00  0.00    -0.236 N 
ATOM     13  N   UNL     1      27.293 -25.117 -14.020  0.00  0.00    -0.180 NA
ATOM     14  C   UNL     1      31.596 -23.454 -14.174  0.00  0.00    +0.028 C 
ATOM     15  C   UNL     1      29.483 -24.510 -13.866  0.00  0.00    +0.067 C 
ATOM     16  C   UNL     1      30.827 -24.410 -13.502  0.00  0.00    +0.018 C 
ATOM     17  C   UNL     1      28.901 -23.713 -14.846  0.00  0.00    +0.035 C 
ATOM     18  C   UNL     1      31.038 -22.643 -15.163  0.00  0.00    +0.002 C 
ATOM     19  C   UNL     1      29.687 -22.758 -15.513  0.00  0.00    +0.003 C 
ATOM     20  C   UNL     1      27.556 -24.140 -14.890  0.00  0.00    +0.119 C 
ATOM     21  H   UNL     1      28.606 -25.994 -12.710  0.00  0.00    +0.174 HD
ENDBRANCH   7  14
BRANCH   1  25
ATOM     22  C   UNL     1      35.170 -20.279 -19.065  0.00  0.00    +0.048 C 
ATOM     23  C   UNL     1      34.331 -21.322 -18.672  0.00  0.00    +0.016 C 
ATOM     24  C   UNL     1      36.304 -19.976 -18.313  0.00  0.00    +0.016 C 
ATOM     25  C   UNL     1      35.761 -21.758 -16.775  0.00  0.00    +0.050 C 
ATOM     26  C   UNL     1      34.626 -22.062 -17.527  0.00  0.00    +0.016 C 
ATOM     27  C   UNL     1      36.601 -20.715 -17.168  0.00  0.00    +0.016 C 
BRANCH  22  29
ATOM     28  O   UNL     1      34.220 -17.834 -22.351  0.00  0.00    -0.350 OA
ATOM     29  N   UNL     1      34.873 -19.537 -20.214  0.00  0.00    -0.303 N 
ATOM     30  C   UNL     1      35.737 -18.396 -20.545  0.00  0.00    +0.123 C 
ATOM     31  C   UNL     1      33.484 -19.423 -20.672  0.00  0.00    +0.123 C 
ATOM     32  C   UNL     1      35.591 -18.052 -22.023  0.00  0.00    +0.164 C 
ATOM     33  C   UNL     1      33.458 -19.022 -22.143  0.00  0.00    +0.164 C 
ENDBRANCH  22  29
ENDBRANCH   1  25
TORSDOF 3
ENDMDL
MODEL 3
REMARK VINA RESULT:     -10.3     11.211     16.263
REMARK  Name = 59473233
REMARK  3 active torsions:
REMARK  status: ('A' for Active; 'I' for Inactive)
REMARK    1  A    between atoms: N_1  and  C_25
REMARK    2  A    between atoms: C_7  and  C_14
REMARK    3  A    between atoms: C_22  and  N_29
REMARK                            x       y       z     vdW  Elec       q    Type
REMARK                         _______ _______ _______ _____ _____    ______ ____
ROOT
ATOM      1  N   UNL     1      30.784  -9.493 -20.316  0.00  0.00    -0.286 N 
ATOM      2  N   UNL     1      31.473  -5.879 -19.911  0.00  0.00    -0.260 N 
ATOM      3  N   UNL     1      31.547  -7.879 -21.823  0.00  0.00    -0.387 NA
ATOM      4  N   UNL     1      30.733  -7.282 -18.343  0.00  0.00    -0.224 NA
ATOM      5  C   UNL     1      31.147  -8.198 -20.608  0.00  0.00    +0.216 C 
ATOM      6  C   UNL     1      31.101  -7.160 -19.597  0.00  0.00    +0.180 C 
ATOM      7  C   UNL     1      31.912  -6.563 -22.109  0.00  0.00    +0.131 C 
ATOM      8  C   UNL     1      31.888  -5.572 -21.190  0.00  0.00    +0.156 C 
ATOM      9  C   UNL     1      31.334  -5.129 -18.777  0.00  0.00    +0.088 C 
ATOM     10  C   UNL     1      30.877  -6.015 -17.825  0.00  0.00    +0.117 C 
ATOM     11  H   UNL     1      30.102  -9.612 -19.616  0.00  0.00    +0.155 HD
ENDROOT
BRANCH   7  14
ATOM     12  N   UNL     1      31.370  -6.277 -27.067  0.00  0.00    -0.236 N 
ATOM     13  N   UNL     1      32.162  -5.902 -28.085  0.00  0.00    -0.180 NA
ATOM     14  C   UNL     1      32.363  -6.273 -23.488  0.00  0.00    +0.028 C 
ATOM     15  C   UNL     1      31.959  -6.190 -25.835  0.00  0.00    +0.067 C 
ATOM     16  C   UNL     1      31.483  -6.480 -24.555  0.00  0.00    +0.018 C 
ATOM     17  C   UNL     1      33.244  -5.716 -26.076  0.00  0.00    +0.035 C 
ATOM     18  C   UNL     1      33.659  -5.799 -23.703  0.00  0.00    +0.002 C 
ATOM     19  C   UNL     1      34.118  -5.513 -24.994  0.00  0.00    +0.003 C 
ATOM     20  C   UNL     1      33.302  -5.561 -27.478  0.00  0.00    +0.119 C 
ATOM     21  H   UNL     1      30.445  -6.590 -27.197  0.00  0.00    +0.174 HD
ENDBRANCH   7  14
BRANCH   1  25
ATOM     22  C   UNL     1      32.282 -12.970 -22.091  0.00  0.00    +0.048 C 
ATOM     23  C   UNL     1      32.508 -11.729 -22.688  0.00  0.00    +0.016 C 
ATOM     24  C   UNL     1      31.557 -13.050 -20.902  0.00  0.00    +0.016 C 
ATOM     25  C   UNL     1      31.282 -10.650 -20.908  0.00  0.00    +0.050 C 
ATOM     26  C   UNL     1      32.007 -10.568 -22.096  0.00  0.00    +0.016 C 
ATOM     27  C   UNL     1      31.056 -11.891 -20.311  0.00  0.00    +0.016 C 
BRANCH  22  29
ATOM     28  O   UNL     1      34.025 -16.324 -23.931  0.00  0.00    -0.350 OA
ATOM     29  N   UNL     1      32.784 -14.132 -22.685  0.00  0.00    -0.303 N 
ATOM     30  C   UNL     1      33.934 -14.793 -22.052  0.00  0.00    +0.123 C 
ATOM     31  C   UNL     1      32.678 -14.317 -24.137  0.00  0.00    +0.123 C 
ATOM     32  C   UNL     1      34.006 -16.246 -22.506  0.00  0.00    +0.164 C 
ATOM     33  C   UNL     1      32.819 -15.796 -24.479  0.00  0.00    +0.164 C 
ENDBRANCH  22  29
ENDBRANCH   1  25
TORSDOF 3
ENDMDL
MODEL 4
REMARK VINA RESULT:      -9.6      2.500      7.083
REMARK  Name = 59473233
REMARK  3 active torsions:
REMARK  status: ('A' for Active; 'I' for Inactive)
REMARK    1  A    between atoms: N_1  and  C_25
REMARK    2  A    between atoms: C_7  and  C_14
REMARK    3  A    between atoms: C_22  and  N_29
REMARK                            x       y       z     vdW  Elec       q    Type
REMARK                         _______ _______ _______ _____ _____    ______ ____
ROOT
ATOM      1  N   UNL     1      33.025 -23.646 -12.476  0.00  0.00    -0.286 N 
ATOM      2  N   UNL     1      36.584 -24.343 -13.216  0.00  0.00    -0.260 N 
ATOM      3  N   UNL     1      34.465 -22.804 -14.112  0.00  0.00    -0.387 NA
ATOM      4  N   UNL     1      35.356 -25.248 -11.589  0.00  0.00    -0.224 NA
ATOM      5  C   UNL     1      34.262 -23.596 -13.078  0.00  0.00    +0.216 C 
ATOM      6  C   UNL     1      35.364 -24.405 -12.597  0.00  0.00    +0.180 C 
ATOM      7  C   UNL     1      35.722 -22.759 -14.714  0.00  0.00    +0.131 C 
ATOM      8  C   UNL     1      36.770 -23.505 -14.297  0.00  0.00    +0.156 C 
ATOM      9  C   UNL     1      37.416 -25.205 -12.559  0.00  0.00    +0.088 C 
ATOM     10  C   UNL     1      36.636 -25.751 -11.561  0.00  0.00    +0.117 C 
ATOM     11  H   UNL     1      33.011 -23.853 -11.514  0.00  0.00    +0.155 HD
ENDROOT
BRANCH   7  14
ATOM     12  N   UNL     1      34.647 -21.069 -19.291  0.00  0.00    -0.236 N 
ATOM     13  N   UNL     1      35.115 -20.077 -20.066  0.00  0.00    -0.180 NA
ATOM     14  C   UNL     1      35.882 -21.859 -15.878  0.00  0.00    +0.028 C 
ATOM     15  C   UNL     1      35.261 -21.165 -18.071  0.00  0.00    +0.067 C 
ATOM     16  C   UNL     1      35.069 -22.042 -17.001  0.00  0.00    +0.018 C 
ATOM     17  C   UNL     1      36.206 -20.146 -18.055  0.00  0.00    +0.035 C 
ATOM     18  C   UNL     1      36.840 -20.844 -15.837  0.00  0.00    +0.002 C 
ATOM     19  C   UNL     1      37.016 -19.975 -16.920  0.00  0.00    +0.003 C 
ATOM     20  C   UNL     1      36.063 -19.517 -19.312  0.00  0.00    +0.119 C 
ATOM     21  H   UNL     1      33.926 -21.676 -19.576  0.00  0.00    +0.174 HD
ENDBRANCH   7  14
BRANCH   1  25
ATOM     22  C   UNL     1      29.322 -23.009 -14.312  0.00  0.00    +0.048 C 
ATOM     23  C   UNL     1      29.415 -23.846 -13.199  0.00  0.00    +0.016 C 
ATOM     24  C   UNL     1      30.465 -22.385 -14.811  0.00  0.00    +0.016 C 
ATOM     25  C   UNL     1      31.793 -23.436 -13.088  0.00  0.00    +0.050 C 
ATOM     26  C   UNL     1      30.651 -24.060 -12.587  0.00  0.00    +0.016 C 
ATOM     27  C   UNL     1      31.700 -22.598 -14.201  0.00  0.00    +0.016 C 
BRANCH  22  29
ATOM     28  O   UNL     1      25.718 -22.163 -16.302  0.00  0.00    -0.350 OA
ATOM     29  N   UNL     1      28.084 -22.796 -14.925  0.00  0.00    -0.303 N 
ATOM     30  C   UNL     1      27.964 -23.074 -16.362  0.00  0.00    +0.123 C 
ATOM     31  C   UNL     1      27.183 -21.756 -14.413  0.00  0.00    +0.123 C 
ATOM     32  C   UNL     1      26.499 -23.280 -16.726  0.00  0.00    +0.164 C 
ATOM     33  C   UNL     1      25.759 -22.031 -14.883  0.00  0.00    +0.164 C 
ENDBRANCH  22  29
ENDBRANCH   1  25
TORSDOF 3
ENDMDL
