MODEL 1
REMARK VINA RESULT:     -12.4      0.000      0.000
REMARK  Name = 657077
REMARK  7 active torsions:
REMARK  status: ('A' for Active; 'I' for Inactive)
REMARK    1  A    between atoms: C_3  and  C_23
REMARK    2  A    between atoms: C_8  and  C_10
REMARK    3  A    between atoms: C_12  and  C_15
REMARK    4  A    between atoms: C_15  and  C_16
REMARK    5  A    between atoms: C_16  and  C_17
REMARK    6  A    between atoms: C_26  and  C_29
REMARK    7  A    between atoms: C_29  and  N_30
REMARK                            x       y       z     vdW  Elec       q    Type
REMARK                         _______ _______ _______ _____ _____    ______ ____
ROOT
ATOM      1  O   UNL     1      32.236 -15.656 -25.123  0.00  0.00    -0.270 OA
ATOM      2  N   UNL     1      33.726 -16.353 -23.462  0.00  0.00    -0.276 N 
ATOM      3  C   UNL     1      34.302 -18.500 -21.608  0.00  0.00    +0.026 C 
ATOM      4  C   UNL     1      34.200 -17.034 -21.144  0.00  0.00    +0.026 C 
ATOM      5  C   UNL     1      33.459 -18.726 -22.878  0.00  0.00    +0.026 C 
ATOM      6  C   UNL     1      34.554 -16.075 -22.281  0.00  0.00    +0.094 C 
ATOM      7  C   UNL     1      33.827 -17.722 -23.970  0.00  0.00    +0.094 C 
ATOM      8  C   UNL     1      32.910 -15.430 -24.119  0.00  0.00    +0.251 C 
ENDROOT
BRANCH   8  10
ATOM      9  N   UNL     1      32.306 -12.631 -21.707  0.00  0.00    -0.242 NA
ATOM     10  C   UNL     1      32.823 -14.071 -23.573  0.00  0.00    +0.072 C 
ATOM     11  C   UNL     1      33.155 -12.970 -24.349  0.00  0.00    +0.003 C 
ATOM     12  C   UNL     1      33.063 -11.694 -23.804  0.00  0.00    -0.003 C 
ATOM     13  C   UNL     1      32.409 -13.856 -22.272  0.00  0.00    +0.103 C 
ATOM     14  C   UNL     1      32.638 -11.580 -22.490  0.00  0.00    +0.095 C 
BRANCH  12  15
ATOM     15  C   UNL     1      33.411 -10.490 -24.605  0.00  0.00    +0.033 C 
BRANCH  15  16
ATOM     16  C   UNL     1      34.484  -9.589 -23.957  0.00  0.00    +0.031 C 
BRANCH  16  17
ATOM     17  C   UNL     1      34.051  -8.148 -23.833  0.00  0.00    -0.022 C 
ATOM     18  C   UNL     1      33.854  -7.604 -22.573  0.00  0.00    -0.004 C 
ATOM     19  C   UNL     1      33.858  -7.396 -24.980  0.00  0.00    -0.004 C 
ATOM     20  C   UNL     1      33.454  -6.273 -22.458  0.00  0.00    -0.000 C 
ATOM     21  C   UNL     1      33.459  -6.064 -24.865  0.00  0.00    -0.000 C 
ATOM     22  C   UNL     1      33.257  -5.503 -23.603  0.00  0.00    -0.000 C 
ENDBRANCH  16  17
ENDBRANCH  15  16
ENDBRANCH  12  15
ENDBRANCH   8  10
BRANCH   3  23
ATOM     23  C   UNL     1      33.938 -19.473 -20.503  0.00  0.00    -0.023 C 
ATOM     24  C   UNL     1      34.941 -20.047 -19.725  0.00  0.00    -0.011 C 
ATOM     25  C   UNL     1      32.601 -19.788 -20.267  0.00  0.00    -0.004 C 
ATOM     26  C   UNL     1      34.607 -20.940 -18.708  0.00  0.00    -0.045 C 
ATOM     27  C   UNL     1      32.267 -20.682 -19.250  0.00  0.00    -0.001 C 
ATOM     28  C   UNL     1      33.270 -21.258 -18.470  0.00  0.00    -0.006 C 
BRANCH  26  29
ATOM     29  C   UNL     1      35.679 -21.556 -17.872  0.00  0.00    -0.059 C 
BRANCH  29  30
ATOM     30  N   UNL     1      36.135 -20.663 -16.804  0.00  0.00    +0.383 N 
ATOM     31  H   UNL     1      37.149 -20.569 -16.851  0.00  0.00    -0.089 HD
ATOM     32  H   UNL     1      35.870 -21.052 -15.900  0.00  0.00    -0.089 HD
ATOM     33  H   UNL     1      35.703 -19.747 -16.921  0.00  0.00    -0.089 HD
ENDBRANCH  29  30
ENDBRANCH  26  29
ENDBRANCH   3  23
TORSDOF 7
ENDMDL
MODEL 2
REMARK VINA RESULT:     -12.1      2.059      2.975
REMARK  Name = 657077
REMARK  7 active torsions:
REMARK  status: ('A' for Active; 'I' for Inactive)
REMARK    1  A    between atoms: C_3  and  C_23
REMARK    2  A    between atoms: C_8  and  C_10
REMARK    3  A    between atoms: C_12  and  C_15
REMARK    4  A    between atoms: C_15  and  C_16
REMARK    5  A    between atoms: C_16  and  C_17
REMARK    6  A    between atoms: C_26  and  C_29
REMARK    7  A    between atoms: C_29  and  N_30
REMARK                            x       y       z     vdW  Elec       q    Type
REMARK                         _______ _______ _______ _____ _____    ______ ____
ROOT
ATOM      1  O   UNL     1      32.216 -15.687 -25.141  0.00  0.00    -0.270 OA
ATOM      2  N   UNL     1      33.717 -16.370 -23.484  0.00  0.00    -0.276 N 
ATOM      3  C   UNL     1      34.315 -18.511 -21.630  0.00  0.00    +0.026 C 
ATOM      4  C   UNL     1      34.203 -17.045 -21.167  0.00  0.00    +0.026 C 
ATOM      5  C   UNL     1      33.469 -18.745 -22.897  0.00  0.00    +0.026 C 
ATOM      6  C   UNL     1      34.546 -16.085 -22.307  0.00  0.00    +0.094 C 
ATOM      7  C   UNL     1      33.826 -17.739 -23.991  0.00  0.00    +0.094 C 
ATOM      8  C   UNL     1      32.891 -15.454 -24.139  0.00  0.00    +0.251 C 
ENDROOT
BRANCH   8  10
ATOM      9  N   UNL     1      33.137 -11.726 -23.899  0.00  0.00    -0.242 NA
ATOM     10  C   UNL     1      32.796 -14.095 -23.594  0.00  0.00    +0.072 C 
ATOM     11  C   UNL     1      32.300 -13.875 -22.318  0.00  0.00    +0.003 C 
ATOM     12  C   UNL     1      32.221 -12.575 -21.827  0.00  0.00    -0.003 C 
ATOM     13  C   UNL     1      33.198 -13.004 -24.340  0.00  0.00    +0.103 C 
ATOM     14  C   UNL     1      32.649 -11.545 -22.651  0.00  0.00    +0.095 C 
BRANCH  12  15
ATOM     15  C   UNL     1      31.694 -12.299 -20.465  0.00  0.00    +0.033 C 
BRANCH  15  16
ATOM     16  C   UNL     1      30.387 -11.479 -20.447  0.00  0.00    +0.031 C 
BRANCH  16  17
ATOM     17  C   UNL     1      30.605 -10.024 -20.106  0.00  0.00    -0.022 C 
ATOM     18  C   UNL     1      30.785  -9.106 -21.129  0.00  0.00    -0.004 C 
ATOM     19  C   UNL     1      30.621  -9.634 -18.777  0.00  0.00    -0.004 C 
ATOM     20  C   UNL     1      30.986  -7.763 -20.813  0.00  0.00    -0.000 C 
ATOM     21  C   UNL     1      30.821  -8.290 -18.461  0.00  0.00    -0.000 C 
ATOM     22  C   UNL     1      31.004  -7.354 -19.480  0.00  0.00    -0.000 C 
ENDBRANCH  16  17
ENDBRANCH  15  16
ENDBRANCH  12  15
ENDBRANCH   8  10
BRANCH   3  23
ATOM     23  C   UNL     1      33.962 -19.485 -20.523  0.00  0.00    -0.023 C 
ATOM     24  C   UNL     1      34.971 -20.043 -19.741  0.00  0.00    -0.011 C 
ATOM     25  C   UNL     1      32.628 -19.818 -20.289  0.00  0.00    -0.004 C 
ATOM     26  C   UNL     1      34.647 -20.938 -18.722  0.00  0.00    -0.045 C 
ATOM     27  C   UNL     1      32.304 -20.714 -19.269  0.00  0.00    -0.001 C 
ATOM     28  C   UNL     1      33.313 -21.273 -18.486  0.00  0.00    -0.006 C 
BRANCH  26  29
ATOM     29  C   UNL     1      35.725 -21.537 -17.882  0.00  0.00    -0.059 C 
BRANCH  29  30
ATOM     30  N   UNL     1      36.103 -20.672 -16.762  0.00  0.00    +0.383 N 
ATOM     31  H   UNL     1      35.334 -20.628 -16.093  0.00  0.00    -0.089 HD
ATOM     32  H   UNL     1      36.307 -19.736 -17.109  0.00  0.00    -0.089 HD
ATOM     33  H   UNL     1      36.930 -21.053 -16.303  0.00  0.00    -0.089 HD
ENDBRANCH  29  30
ENDBRANCH  26  29
ENDBRANCH   3  23
TORSDOF 7
ENDMDL
MODEL 3
REMARK VINA RESULT:     -11.4      1.509      2.087
REMARK  Name = 657077
REMARK  7 active torsions:
REMARK  status: ('A' for Active; 'I' for Inactive)
REMARK    1  A    between atoms: C_3  and  C_23
REMARK    2  A    between atoms: C_8  and  C_10
REMARK    3  A    between atoms: C_12  and  C_15
REMARK    4  A    between atoms: C_15  and  C_16
REMARK    5  A    between atoms: C_16  and  C_17
REMARK    6  A    between atoms: C_26  and  C_29
REMARK    7  A    between atoms: C_29  and  N_30
REMARK                            x       y       z     vdW  Elec       q    Type
REMARK                         _______ _______ _______ _____ _____    ______ ____
ROOT
ATOM      1  O   UNL     1      31.971 -15.623 -24.920  0.00  0.00    -0.270 OA
ATOM      2  N   UNL     1      33.701 -16.256 -23.479  0.00  0.00    -0.276 N 
ATOM      3  C   UNL     1      34.620 -18.383 -21.746  0.00  0.00    +0.026 C 
ATOM      4  C   UNL     1      34.510 -16.927 -21.254  0.00  0.00    +0.026 C 
ATOM      5  C   UNL     1      33.627 -18.642 -22.895  0.00  0.00    +0.026 C 
ATOM      6  C   UNL     1      34.664 -15.945 -22.416  0.00  0.00    +0.094 C 
ATOM      7  C   UNL     1      33.799 -17.614 -24.014  0.00  0.00    +0.094 C 
ATOM      8  C   UNL     1      32.761 -15.370 -24.011  0.00  0.00    +0.251 C 
ENDROOT
BRANCH   8  10
ATOM      9  N   UNL     1      32.098 -12.603 -21.578  0.00  0.00    -0.242 NA
ATOM     10  C   UNL     1      32.682 -14.020 -23.441  0.00  0.00    +0.072 C 
ATOM     11  C   UNL     1      33.094 -12.915 -24.171  0.00  0.00    +0.003 C 
ATOM     12  C   UNL     1      33.008 -11.647 -23.604  0.00  0.00    -0.003 C 
ATOM     13  C   UNL     1      32.197 -13.818 -22.163  0.00  0.00    +0.103 C 
ATOM     14  C   UNL     1      32.508 -11.547 -22.316  0.00  0.00    +0.095 C 
BRANCH  12  15
ATOM     15  C   UNL     1      33.440 -10.439 -24.356  0.00  0.00    +0.033 C 
BRANCH  15  16
ATOM     16  C   UNL     1      33.571  -9.170 -23.489  0.00  0.00    +0.031 C 
BRANCH  16  17
ATOM     17  C   UNL     1      32.353  -8.279 -23.555  0.00  0.00    -0.022 C 
ATOM     18  C   UNL     1      32.070  -7.601 -24.730  0.00  0.00    -0.004 C 
ATOM     19  C   UNL     1      31.542  -8.155 -22.438  0.00  0.00    -0.004 C 
ATOM     20  C   UNL     1      30.946  -6.778 -24.790  0.00  0.00    -0.000 C 
ATOM     21  C   UNL     1      30.417  -7.333 -22.499  0.00  0.00    -0.000 C 
ATOM     22  C   UNL     1      30.119  -6.644 -23.675  0.00  0.00    -0.000 C 
ENDBRANCH  16  17
ENDBRANCH  15  16
ENDBRANCH  12  15
ENDBRANCH   8  10
BRANCH   3  23
ATOM     23  C   UNL     1      34.453 -19.379 -20.614  0.00  0.00    -0.023 C 
ATOM     24  C   UNL     1      33.176 -19.742 -20.191  0.00  0.00    -0.011 C 
ATOM     25  C   UNL     1      35.578 -19.931 -20.003  0.00  0.00    -0.004 C 
ATOM     26  C   UNL     1      33.023 -20.659 -19.151  0.00  0.00    -0.045 C 
ATOM     27  C   UNL     1      35.424 -20.848 -18.962  0.00  0.00    -0.001 C 
ATOM     28  C   UNL     1      34.147 -21.212 -18.537  0.00  0.00    -0.006 C 
BRANCH  26  29
ATOM     29  C   UNL     1      31.657 -21.050 -18.696  0.00  0.00    -0.059 C 
BRANCH  29  30
ATOM     30  N   UNL     1      31.691 -22.060 -17.636  0.00  0.00    +0.383 N 
ATOM     31  H   UNL     1      32.637 -22.434 -17.554  0.00  0.00    -0.089 HD
ATOM     32  H   UNL     1      31.046 -22.815 -17.866  0.00  0.00    -0.089 HD
ATOM     33  H   UNL     1      31.416 -21.634 -16.752  0.00  0.00    -0.089 HD
ENDBRANCH  29  30
ENDBRANCH  26  29
ENDBRANCH   3  23
TORSDOF 7
ENDMDL
MODEL 4
REMARK VINA RESULT:     -11.3      4.572      7.458
REMARK  Name = 657077
REMARK  7 active torsions:
REMARK  status: ('A' for Active; 'I' for Inactive)
REMARK    1  A    between atoms: C_3  and  C_23
REMARK    2  A    between atoms: C_8  and  C_10
REMARK    3  A    between atoms: C_12  and  C_15
REMARK    4  A    between atoms: C_15  and  C_16
REMARK    5  A    between atoms: C_16  and  C_17
REMARK    6  A    between atoms: C_26  and  C_29
REMARK    7  A    between atoms: C_29  and  N_30
REMARK                            x       y       z     vdW  Elec       q    Type
REMARK                         _______ _______ _______ _____ _____    ______ ____
ROOT
ATOM      1  O   UNL     1      31.032  -7.186 -18.109  0.00  0.00    -0.270 OA
ATOM      2  N   UNL     1      30.485  -8.788 -19.721  0.00  0.00    -0.276 N 
ATOM      3  C   UNL     1      30.996 -11.511 -20.559  0.00  0.00    +0.026 C 
ATOM      4  C   UNL     1      31.128 -10.324 -21.534  0.00  0.00    +0.026 C 
ATOM      5  C   UNL     1      31.231 -11.048 -19.108  0.00  0.00    +0.026 C 
ATOM      6  C   UNL     1      30.219  -9.169 -21.114  0.00  0.00    +0.094 C 
ATOM      7  C   UNL     1      30.324  -9.871 -18.751  0.00  0.00    +0.094 C 
ATOM      8  C   UNL     1      30.835  -7.510 -19.279  0.00  0.00    +0.251 C 
ENDROOT
BRANCH   8  10
ATOM      9  N   UNL     1      30.259  -4.345 -21.193  0.00  0.00    -0.242 NA
ATOM     10  C   UNL     1      31.000  -6.452 -20.282  0.00  0.00    +0.072 C 
ATOM     11  C   UNL     1      32.003  -6.529 -21.238  0.00  0.00    +0.003 C 
ATOM     12  C   UNL     1      32.135  -5.511 -22.176  0.00  0.00    -0.003 C 
ATOM     13  C   UNL     1      30.162  -5.354 -20.298  0.00  0.00    +0.103 C 
ATOM     14  C   UNL     1      31.246  -4.450 -22.111  0.00  0.00    +0.095 C 
BRANCH  12  15
ATOM     15  C   UNL     1      33.198  -5.558 -23.215  0.00  0.00    +0.033 C 
BRANCH  15  16
ATOM     16  C   UNL     1      34.218  -6.700 -23.023  0.00  0.00    +0.031 C 
BRANCH  16  17
ATOM     17  C   UNL     1      33.766  -8.008 -23.629  0.00  0.00    -0.022 C 
ATOM     18  C   UNL     1      34.568  -9.130 -23.499  0.00  0.00    -0.004 C 
ATOM     19  C   UNL     1      32.557  -8.060 -24.304  0.00  0.00    -0.004 C 
ATOM     20  C   UNL     1      34.150 -10.337 -24.059  0.00  0.00    -0.000 C 
ATOM     21  C   UNL     1      32.139  -9.268 -24.864  0.00  0.00    -0.000 C 
ATOM     22  C   UNL     1      32.936 -10.407 -24.741  0.00  0.00    -0.000 C 
ENDBRANCH  16  17
ENDBRANCH  15  16
ENDBRANCH  12  15
ENDBRANCH   8  10
BRANCH   3  23
ATOM     23  C   UNL     1      31.902 -12.665 -20.943  0.00  0.00    -0.023 C 
ATOM     24  C   UNL     1      32.034 -13.029 -22.281  0.00  0.00    -0.011 C 
ATOM     25  C   UNL     1      32.601 -13.357 -19.955  0.00  0.00    -0.004 C 
ATOM     26  C   UNL     1      32.867 -14.089 -22.635  0.00  0.00    -0.045 C 
ATOM     27  C   UNL     1      33.435 -14.418 -20.309  0.00  0.00    -0.001 C 
ATOM     28  C   UNL     1      33.569 -14.784 -21.648  0.00  0.00    -0.006 C 
BRANCH  26  29
ATOM     29  C   UNL     1      33.012 -14.481 -24.067  0.00  0.00    -0.059 C 
BRANCH  29  30
ATOM     30  N   UNL     1      31.897 -14.007 -24.889  0.00  0.00    +0.383 N 
ATOM     31  H   UNL     1      31.019 -14.362 -24.509  0.00  0.00    -0.089 HD
ATOM     32  H   UNL     1      32.014 -14.340 -25.846  0.00  0.00    -0.089 HD
ATOM     33  H   UNL     1      31.881 -12.987 -24.884  0.00  0.00    -0.089 HD
ENDBRANCH  29  30
ENDBRANCH  26  29
ENDBRANCH   3  23
TORSDOF 7
ENDMDL
MODEL 5
REMARK VINA RESULT:     -10.6      4.230      7.006
REMARK  Name = 657077
REMARK  7 active torsions:
REMARK  status: ('A' for Active; 'I' for Inactive)
REMARK    1  A    between atoms: C_3  and  C_23
REMARK    2  A    between atoms: C_8  and  C_10
REMARK    3  A    between atoms: C_12  and  C_15
REMARK    4  A    between atoms: C_15  and  C_16
REMARK    5  A    between atoms: C_16  and  C_17
REMARK    6  A    between atoms: C_26  and  C_29
REMARK    7  A    between atoms: C_29  and  N_30
REMARK                            x       y       z     vdW  Elec       q    Type
REMARK                         _______ _______ _______ _____ _____    ______ ____
ROOT
ATOM      1  O   UNL     1      30.993  -7.597 -18.281  0.00  0.00    -0.270 OA
ATOM      2  N   UNL     1      30.611  -9.184 -19.955  0.00  0.00    -0.276 N 
ATOM      3  C   UNL     1      31.176 -11.911 -20.744  0.00  0.00    +0.026 C 
ATOM      4  C   UNL     1      31.435 -10.722 -21.691  0.00  0.00    +0.026 C 
ATOM      5  C   UNL     1      31.250 -11.458 -19.273  0.00  0.00    +0.026 C 
ATOM      6  C   UNL     1      30.501  -9.556 -21.371  0.00  0.00    +0.094 C 
ATOM      7  C   UNL     1      30.325 -10.269 -19.015  0.00  0.00    +0.094 C 
ATOM      8  C   UNL     1      30.927  -7.914 -19.468  0.00  0.00    +0.251 C 
ENDROOT
BRANCH   8  10
ATOM      9  N   UNL     1      30.628  -4.724 -21.405  0.00  0.00    -0.242 NA
ATOM     10  C   UNL     1      31.221  -6.854 -20.439  0.00  0.00    +0.072 C 
ATOM     11  C   UNL     1      32.315  -6.950 -21.286  0.00  0.00    +0.003 C 
ATOM     12  C   UNL     1      32.569  -5.930 -22.197  0.00  0.00    -0.003 C 
ATOM     13  C   UNL     1      30.414  -5.736 -20.533  0.00  0.00    +0.103 C 
ATOM     14  C   UNL     1      31.703  -4.848 -22.215  0.00  0.00    +0.095 C 
BRANCH  12  15
ATOM     15  C   UNL     1      33.733  -5.997 -23.120  0.00  0.00    +0.033 C 
BRANCH  15  16
ATOM     16  C   UNL     1      33.631  -7.108 -24.186  0.00  0.00    +0.031 C 
BRANCH  16  17
ATOM     17  C   UNL     1      32.689  -6.762 -25.315  0.00  0.00    -0.022 C 
ATOM     18  C   UNL     1      31.412  -7.299 -25.323  0.00  0.00    -0.004 C 
ATOM     19  C   UNL     1      33.120  -5.913 -26.321  0.00  0.00    -0.004 C 
ATOM     20  C   UNL     1      30.543  -6.980 -26.366  0.00  0.00    -0.000 C 
ATOM     21  C   UNL     1      32.250  -5.592 -27.364  0.00  0.00    -0.000 C 
ATOM     22  C   UNL     1      30.961  -6.126 -27.386  0.00  0.00    -0.000 C 
ENDBRANCH  16  17
ENDBRANCH  15  16
ENDBRANCH  12  15
ENDBRANCH   8  10
BRANCH   3  23
ATOM     23  C   UNL     1      32.103 -13.077 -21.029  0.00  0.00    -0.023 C 
ATOM     24  C   UNL     1      32.345 -13.467 -22.345  0.00  0.00    -0.011 C 
ATOM     25  C   UNL     1      32.712 -13.754 -19.973  0.00  0.00    -0.004 C 
ATOM     26  C   UNL     1      33.198 -14.538 -22.606  0.00  0.00    -0.045 C 
ATOM     27  C   UNL     1      33.566 -14.825 -20.236  0.00  0.00    -0.001 C 
ATOM     28  C   UNL     1      33.809 -15.217 -21.552  0.00  0.00    -0.006 C 
BRANCH  26  29
ATOM     29  C   UNL     1      33.460 -14.958 -24.014  0.00  0.00    -0.059 C 
BRANCH  29  30
ATOM     30  N   UNL     1      34.245 -16.192 -24.090  0.00  0.00    +0.383 N 
ATOM     31  H   UNL     1      33.884 -16.866 -23.414  0.00  0.00    -0.089 HD
ATOM     32  H   UNL     1      35.221 -15.988 -23.879  0.00  0.00    -0.089 HD
ATOM     33  H   UNL     1      34.174 -16.582 -25.030  0.00  0.00    -0.089 HD
ENDBRANCH  29  30
ENDBRANCH  26  29
ENDBRANCH   3  23
TORSDOF 7
ENDMDL
MODEL 6
REMARK VINA RESULT:     -10.6      4.557     12.667
REMARK  Name = 657077
REMARK  7 active torsions:
REMARK  status: ('A' for Active; 'I' for Inactive)
REMARK    1  A    between atoms: C_3  and  C_23
REMARK    2  A    between atoms: C_8  and  C_10
REMARK    3  A    between atoms: C_12  and  C_15
REMARK    4  A    between atoms: C_15  and  C_16
REMARK    5  A    between atoms: C_16  and  C_17
REMARK    6  A    between atoms: C_26  and  C_29
REMARK    7  A    between atoms: C_29  and  N_30
REMARK                            x       y       z     vdW  Elec       q    Type
REMARK                         _______ _______ _______ _____ _____    ______ ____
ROOT
ATOM      1  O   UNL     1      36.214 -21.309 -17.217  0.00  0.00    -0.270 OA
ATOM      2  N   UNL     1      35.015 -20.738 -19.142  0.00  0.00    -0.276 N 
ATOM      3  C   UNL     1      34.551 -18.607 -21.045  0.00  0.00    +0.026 C 
ATOM      4  C   UNL     1      33.389 -19.317 -20.322  0.00  0.00    +0.026 C 
ATOM      5  C   UNL     1      35.837 -18.677 -20.199  0.00  0.00    +0.026 C 
ATOM      6  C   UNL     1      33.778 -20.743 -19.932  0.00  0.00    +0.094 C 
ATOM      7  C   UNL     1      36.162 -20.118 -19.807  0.00  0.00    +0.094 C 
ATOM      8  C   UNL     1      35.170 -21.290 -17.868  0.00  0.00    +0.251 C 
ENDROOT
BRANCH   8  10
ATOM      9  N   UNL     1      31.657 -22.472 -17.346  0.00  0.00    -0.242 NA
ATOM     10  C   UNL     1      33.995 -21.891 -17.227  0.00  0.00    +0.072 C 
ATOM     11  C   UNL     1      34.079 -22.430 -15.951  0.00  0.00    +0.003 C 
ATOM     12  C   UNL     1      32.948 -22.993 -15.369  0.00  0.00    -0.003 C 
ATOM     13  C   UNL     1      32.778 -21.934 -17.878  0.00  0.00    +0.103 C 
ATOM     14  C   UNL     1      31.772 -22.990 -16.102  0.00  0.00    +0.095 C 
BRANCH  12  15
ATOM     15  C   UNL     1      33.000 -23.581 -14.004  0.00  0.00    +0.033 C 
BRANCH  15  16
ATOM     16  C   UNL     1      34.030 -24.720 -13.847  0.00  0.00    +0.031 C 
BRANCH  16  17
ATOM     17  C   UNL     1      35.148 -24.381 -12.890  0.00  0.00    -0.022 C 
ATOM     18  C   UNL     1      36.210 -25.259 -12.747  0.00  0.00    -0.004 C 
ATOM     19  C   UNL     1      35.090 -23.197 -12.173  0.00  0.00    -0.004 C 
ATOM     20  C   UNL     1      37.242 -24.946 -11.864  0.00  0.00    -0.000 C 
ATOM     21  C   UNL     1      36.124 -22.883 -11.289  0.00  0.00    -0.000 C 
ATOM     22  C   UNL     1      37.199 -23.758 -11.134  0.00  0.00    -0.000 C 
ENDBRANCH  16  17
ENDBRANCH  15  16
ENDBRANCH  12  15
ENDBRANCH   8  10
BRANCH   3  23
ATOM     23  C   UNL     1      34.198 -17.183 -21.427  0.00  0.00    -0.023 C 
ATOM     24  C   UNL     1      33.994 -16.853 -22.766  0.00  0.00    -0.011 C 
ATOM     25  C   UNL     1      34.076 -16.208 -20.439  0.00  0.00    -0.004 C 
ATOM     26  C   UNL     1      33.668 -15.544 -23.118  0.00  0.00    -0.045 C 
ATOM     27  C   UNL     1      33.750 -14.898 -20.791  0.00  0.00    -0.001 C 
ATOM     28  C   UNL     1      33.546 -14.566 -22.130  0.00  0.00    -0.006 C 
BRANCH  26  29
ATOM     29  C   UNL     1      33.448 -15.188 -24.550  0.00  0.00    -0.059 C 
BRANCH  29  30
ATOM     30  N   UNL     1      32.033 -14.978 -24.861  0.00  0.00    +0.383 N 
ATOM     31  H   UNL     1      31.461 -15.328 -24.092  0.00  0.00    -0.089 HD
ATOM     32  H   UNL     1      31.795 -15.478 -25.717  0.00  0.00    -0.089 HD
ATOM     33  H   UNL     1      31.857 -13.982 -24.988  0.00  0.00    -0.089 HD
ENDBRANCH  29  30
ENDBRANCH  26  29
ENDBRANCH   3  23
TORSDOF 7
ENDMDL
MODEL 7
REMARK VINA RESULT:     -10.6      4.369     12.241
REMARK  Name = 657077
REMARK  7 active torsions:
REMARK  status: ('A' for Active; 'I' for Inactive)
REMARK    1  A    between atoms: C_3  and  C_23
REMARK    2  A    between atoms: C_8  and  C_10
REMARK    3  A    between atoms: C_12  and  C_15
REMARK    4  A    between atoms: C_15  and  C_16
REMARK    5  A    between atoms: C_16  and  C_17
REMARK    6  A    between atoms: C_26  and  C_29
REMARK    7  A    between atoms: C_29  and  N_30
REMARK                            x       y       z     vdW  Elec       q    Type
REMARK                         _______ _______ _______ _____ _____    ______ ____
ROOT
ATOM      1  O   UNL     1      36.283 -20.843 -17.399  0.00  0.00    -0.270 OA
ATOM      2  N   UNL     1      35.198 -20.334 -19.407  0.00  0.00    -0.276 N 
ATOM      3  C   UNL     1      34.657 -18.193 -21.278  0.00  0.00    +0.026 C 
ATOM      4  C   UNL     1      33.527 -19.058 -20.686  0.00  0.00    +0.026 C 
ATOM      5  C   UNL     1      35.864 -18.151 -20.321  0.00  0.00    +0.026 C 
ATOM      6  C   UNL     1      34.043 -20.446 -20.306  0.00  0.00    +0.094 C 
ATOM      7  C   UNL     1      36.318 -19.562 -19.945  0.00  0.00    +0.094 C 
ATOM      8  C   UNL     1      35.304 -20.916 -18.142  0.00  0.00    +0.251 C 
ENDROOT
BRANCH   8  10
ATOM      9  N   UNL     1      31.944 -22.561 -18.002  0.00  0.00    -0.242 NA
ATOM     10  C   UNL     1      34.156 -21.671 -17.629  0.00  0.00    +0.072 C 
ATOM     11  C   UNL     1      34.168 -22.200 -16.346  0.00  0.00    +0.003 C 
ATOM     12  C   UNL     1      33.064 -22.912 -15.887  0.00  0.00    -0.003 C 
ATOM     13  C   UNL     1      33.036 -21.875 -18.412  0.00  0.00    +0.103 C 
ATOM     14  C   UNL     1      31.988 -23.063 -16.747  0.00  0.00    +0.095 C 
BRANCH  12  15
ATOM     15  C   UNL     1      33.041 -23.493 -14.519  0.00  0.00    +0.033 C 
BRANCH  15  16
ATOM     16  C   UNL     1      31.973 -22.878 -13.590  0.00  0.00    +0.031 C 
BRANCH  16  17
ATOM     17  C   UNL     1      30.582 -23.399 -13.859  0.00  0.00    -0.022 C 
ATOM     18  C   UNL     1      30.298 -24.735 -13.621  0.00  0.00    -0.004 C 
ATOM     19  C   UNL     1      29.614 -22.533 -14.340  0.00  0.00    -0.004 C 
ATOM     20  C   UNL     1      29.013 -25.216 -13.870  0.00  0.00    -0.000 C 
ATOM     21  C   UNL     1      28.328 -23.014 -14.588  0.00  0.00    -0.000 C 
ATOM     22  C   UNL     1      28.028 -24.356 -14.354  0.00  0.00    -0.000 C 
ENDBRANCH  16  17
ENDBRANCH  15  16
ENDBRANCH  12  15
ENDBRANCH   8  10
BRANCH   3  23
ATOM     23  C   UNL     1      34.175 -16.803 -21.647  0.00  0.00    -0.023 C 
ATOM     24  C   UNL     1      33.857 -16.507 -22.971  0.00  0.00    -0.011 C 
ATOM     25  C   UNL     1      34.050 -15.826 -20.661  0.00  0.00    -0.004 C 
ATOM     26  C   UNL     1      33.413 -15.230 -23.311  0.00  0.00    -0.045 C 
ATOM     27  C   UNL     1      33.606 -14.548 -21.001  0.00  0.00    -0.001 C 
ATOM     28  C   UNL     1      33.287 -14.250 -22.326  0.00  0.00    -0.006 C 
BRANCH  26  29
ATOM     29  C   UNL     1      33.070 -14.910 -24.728  0.00  0.00    -0.059 C 
BRANCH  29  30
ATOM     30  N   UNL     1      31.940 -13.985 -24.832  0.00  0.00    +0.383 N 
ATOM     31  H   UNL     1      31.092 -14.446 -24.504  0.00  0.00    -0.089 HD
ATOM     32  H   UNL     1      31.821 -13.703 -25.804  0.00  0.00    -0.089 HD
ATOM     33  H   UNL     1      32.122 -13.161 -24.258  0.00  0.00    -0.089 HD
ENDBRANCH  29  30
ENDBRANCH  26  29
ENDBRANCH   3  23
TORSDOF 7
ENDMDL
MODEL 8
REMARK VINA RESULT:     -10.6      4.525     12.570
REMARK  Name = 657077
REMARK  7 active torsions:
REMARK  status: ('A' for Active; 'I' for Inactive)
REMARK    1  A    between atoms: C_3  and  C_23
REMARK    2  A    between atoms: C_8  and  C_10
REMARK    3  A    between atoms: C_12  and  C_15
REMARK    4  A    between atoms: C_15  and  C_16
REMARK    5  A    between atoms: C_16  and  C_17
REMARK    6  A    between atoms: C_26  and  C_29
REMARK    7  A    between atoms: C_29  and  N_30
REMARK                            x       y       z     vdW  Elec       q    Type
REMARK                         _______ _______ _______ _____ _____    ______ ____
ROOT
ATOM      1  O   UNL     1      36.251 -21.051 -17.184  0.00  0.00    -0.270 OA
ATOM      2  N   UNL     1      35.151 -20.657 -19.210  0.00  0.00    -0.276 N 
ATOM      3  C   UNL     1      34.697 -18.663 -21.258  0.00  0.00    +0.026 C 
ATOM      4  C   UNL     1      33.531 -19.398 -20.569  0.00  0.00    +0.026 C 
ATOM      5  C   UNL     1      35.928 -18.612 -20.332  0.00  0.00    +0.026 C 
ATOM      6  C   UNL     1      33.970 -20.776 -20.073  0.00  0.00    +0.094 C 
ATOM      7  C   UNL     1      36.303 -20.009 -19.837  0.00  0.00    +0.094 C 
ATOM      8  C   UNL     1      35.252 -21.128 -17.899  0.00  0.00    +0.251 C 
ENDROOT
BRANCH   8  10
ATOM      9  N   UNL     1      31.726 -22.301 -17.447  0.00  0.00    -0.242 NA
ATOM     10  C   UNL     1      34.072 -21.760 -17.298  0.00  0.00    +0.072 C 
ATOM     11  C   UNL     1      34.155 -22.394 -16.067  0.00  0.00    +0.003 C 
ATOM     12  C   UNL     1      33.019 -22.984 -15.522  0.00  0.00    -0.003 C 
ATOM     13  C   UNL     1      32.851 -21.738 -17.944  0.00  0.00    +0.103 C 
ATOM     14  C   UNL     1      31.840 -22.911 -16.246  0.00  0.00    +0.095 C 
BRANCH  12  15
ATOM     15  C   UNL     1      33.069 -23.674 -14.205  0.00  0.00    +0.033 C 
BRANCH  15  16
ATOM     16  C   UNL     1      34.175 -24.745 -14.095  0.00  0.00    +0.031 C 
BRANCH  16  17
ATOM     17  C   UNL     1      35.193 -24.438 -13.022  0.00  0.00    -0.022 C 
ATOM     18  C   UNL     1      35.255 -23.160 -12.490  0.00  0.00    -0.004 C 
ATOM     19  C   UNL     1      36.045 -25.440 -12.589  0.00  0.00    -0.004 C 
ATOM     20  C   UNL     1      36.195 -22.876 -11.500  0.00  0.00    -0.000 C 
ATOM     21  C   UNL     1      36.985 -25.157 -11.597  0.00  0.00    -0.000 C 
ATOM     22  C   UNL     1      37.060 -23.874 -11.053  0.00  0.00    -0.000 C 
ENDBRANCH  16  17
ENDBRANCH  15  16
ENDBRANCH  12  15
ENDBRANCH   8  10
BRANCH   3  23
ATOM     23  C   UNL     1      34.293 -17.285 -21.744  0.00  0.00    -0.023 C 
ATOM     24  C   UNL     1      34.060 -16.265 -20.824  0.00  0.00    -0.011 C 
ATOM     25  C   UNL     1      34.158 -17.041 -23.110  0.00  0.00    -0.004 C 
ATOM     26  C   UNL     1      33.689 -14.997 -21.270  0.00  0.00    -0.045 C 
ATOM     27  C   UNL     1      33.787 -15.773 -23.557  0.00  0.00    -0.001 C 
ATOM     28  C   UNL     1      33.553 -14.751 -22.637  0.00  0.00    -0.006 C 
BRANCH  26  29
ATOM     29  C   UNL     1      33.439 -13.902 -20.288  0.00  0.00    -0.059 C 
BRANCH  29  30
ATOM     30  N   UNL     1      32.038 -13.477 -20.272  0.00  0.00    +0.383 N 
ATOM     31  H   UNL     1      31.434 -14.294 -20.372  0.00  0.00    -0.089 HD
ATOM     32  H   UNL     1      31.869 -12.833 -21.044  0.00  0.00    -0.089 HD
ATOM     33  H   UNL     1      31.834 -13.011 -19.388  0.00  0.00    -0.089 HD
ENDBRANCH  29  30
ENDBRANCH  26  29
ENDBRANCH   3  23
TORSDOF 7
ENDMDL
MODEL 9
REMARK VINA RESULT:     -10.6      4.412     12.158
REMARK  Name = 657077
REMARK  7 active torsions:
REMARK  status: ('A' for Active; 'I' for Inactive)
REMARK    1  A    between atoms: C_3  and  C_23
REMARK    2  A    between atoms: C_8  and  C_10
REMARK    3  A    between atoms: C_12  and  C_15
REMARK    4  A    between atoms: C_15  and  C_16
REMARK    5  A    between atoms: C_16  and  C_17
REMARK    6  A    between atoms: C_26  and  C_29
REMARK    7  A    between atoms: C_29  and  N_30
REMARK                            x       y       z     vdW  Elec       q    Type
REMARK                         _______ _______ _______ _____ _____    ______ ____
ROOT
ATOM      1  O   UNL     1      36.237 -20.799 -17.251  0.00  0.00    -0.270 OA
ATOM      2  N   UNL     1      35.260 -20.421 -19.341  0.00  0.00    -0.276 N 
ATOM      3  C   UNL     1      34.793 -18.396 -21.356  0.00  0.00    +0.026 C 
ATOM      4  C   UNL     1      33.645 -19.249 -20.781  0.00  0.00    +0.026 C 
ATOM      5  C   UNL     1      35.943 -18.279 -20.337  0.00  0.00    +0.026 C 
ATOM      6  C   UNL     1      34.160 -20.604 -20.296  0.00  0.00    +0.094 C 
ATOM      7  C   UNL     1      36.397 -19.658 -19.858  0.00  0.00    +0.094 C 
ATOM      8  C   UNL     1      35.304 -20.930 -18.041  0.00  0.00    +0.251 C 
ENDROOT
BRANCH   8  10
ATOM      9  N   UNL     1      31.924 -22.538 -17.964  0.00  0.00    -0.242 NA
ATOM     10  C   UNL     1      34.140 -21.679 -17.552  0.00  0.00    +0.072 C 
ATOM     11  C   UNL     1      34.129 -22.221 -16.275  0.00  0.00    +0.003 C 
ATOM     12  C   UNL     1      33.012 -22.925 -15.839  0.00  0.00    -0.003 C 
ATOM     13  C   UNL     1      33.028 -21.860 -18.352  0.00  0.00    +0.103 C 
ATOM     14  C   UNL     1      31.945 -23.055 -16.715  0.00  0.00    +0.095 C 
BRANCH  12  15
ATOM     15  C   UNL     1      32.963 -23.522 -14.478  0.00  0.00    +0.033 C 
BRANCH  15  16
ATOM     16  C   UNL     1      31.890 -22.905 -13.556  0.00  0.00    +0.031 C 
BRANCH  16  17
ATOM     17  C   UNL     1      30.497 -23.411 -13.848  0.00  0.00    -0.022 C 
ATOM     18  C   UNL     1      30.206 -24.752 -13.647  0.00  0.00    -0.004 C 
ATOM     19  C   UNL     1      29.537 -22.527 -14.310  0.00  0.00    -0.004 C 
ATOM     20  C   UNL     1      28.920 -25.219 -13.917  0.00  0.00    -0.000 C 
ATOM     21  C   UNL     1      28.250 -22.994 -14.578  0.00  0.00    -0.000 C 
ATOM     22  C   UNL     1      27.942 -24.341 -14.382  0.00  0.00    -0.000 C 
ENDBRANCH  16  17
ENDBRANCH  15  16
ENDBRANCH  12  15
ENDBRANCH   8  10
BRANCH   3  23
ATOM     23  C   UNL     1      34.311 -17.038 -21.828  0.00  0.00    -0.023 C 
ATOM     24  C   UNL     1      34.048 -16.033 -20.900  0.00  0.00    -0.011 C 
ATOM     25  C   UNL     1      34.135 -16.799 -23.190  0.00  0.00    -0.004 C 
ATOM     26  C   UNL     1      33.606 -14.784 -21.334  0.00  0.00    -0.045 C 
ATOM     27  C   UNL     1      33.692 -15.549 -23.624  0.00  0.00    -0.001 C 
ATOM     28  C   UNL     1      33.428 -14.542 -22.697  0.00  0.00    -0.006 C 
BRANCH  26  29
ATOM     29  C   UNL     1      33.324 -13.705 -20.343  0.00  0.00    -0.059 C 
BRANCH  29  30
ATOM     30  N   UNL     1      31.891 -13.439 -20.202  0.00  0.00    +0.383 N 
ATOM     31  H   UNL     1      31.367 -14.293 -20.390  0.00  0.00    -0.089 HD
ATOM     32  H   UNL     1      31.613 -12.716 -20.865  0.00  0.00    -0.089 HD
ATOM     33  H   UNL     1      31.696 -13.123 -19.252  0.00  0.00    -0.089 HD
ENDBRANCH  29  30
ENDBRANCH  26  29
ENDBRANCH   3  23
TORSDOF 7
ENDMDL
