MODEL 1
REMARK VINA RESULT:     -12.0      0.000      0.000
REMARK  Name = 158376
REMARK  11 active torsions:
REMARK  status: ('A' for Active; 'I' for Inactive)
REMARK    1  A    between atoms: C_1  and  N_22
REMARK    2  A    between atoms: C_2  and  C_9
REMARK    3  A    between atoms: N_8  and  CA_11
REMARK    4  A    between atoms: CA_11  and  C_13
REMARK    5  A    between atoms: CA_11  and  CB_16
REMARK    6  A    between atoms: C_13  and  O_14
REMARK    7  A    between atoms: CB_16  and  CG_17
REMARK    8  A    between atoms: CG_17  and  CD_19
REMARK    9  A    between atoms: CD_19  and  OE1_20
REMARK   10  A    between atoms: N_22  and  C_24
REMARK   11  A    between atoms: C_24  and  C_29
REMARK                            x       y       z     vdW  Elec       q    Type
REMARK                         _______ _______ _______ _____ _____    ______ ____
ROOT
ATOM      1  C   UNL     1      34.578 -19.299 -20.193  0.00  0.00    +0.048 C 
ATOM      2  C   UNL     1      33.468 -21.413 -18.749  0.00  0.00    +0.053 C 
ATOM      3  C   UNL     1      33.197 -19.504 -20.206  0.00  0.00    +0.015 C 
ATOM      4  C   UNL     1      35.403 -20.151 -19.459  0.00  0.00    +0.015 C 
ATOM      5  C   UNL     1      32.643 -20.560 -19.483  0.00  0.00    +0.006 C 
ATOM      6  C   UNL     1      34.847 -21.208 -18.737  0.00  0.00    +0.006 C 
ENDROOT
BRANCH   2   9
ATOM      7  O   UNL     1      32.879 -23.665 -18.468  0.00  0.00    -0.270 OA
ATOM      8  N   UNL     1      32.378 -22.220 -16.725  0.00  0.00    -0.293 N 
ATOM      9  C   ACE A   0      32.878 -22.538 -17.980  0.00  0.00    +0.246 C 
ATOM     10  H   UNL     1      32.422 -21.285 -16.420  0.00  0.00    +0.150 HD
BRANCH   8  11
ATOM     11  CA  UNL     1      31.797 -23.206 -15.849  0.00  0.00    +0.172 C 
BRANCH  11  13
ATOM     12  OXT UNL     1      29.710 -22.065 -16.374  0.00  0.00    -0.248 OA
ATOM     13  C   UNL     1      30.329 -22.866 -15.686  0.00  0.00    +0.332 C 
BRANCH  13  14
ATOM     14  O   UNL     1      29.748 -23.591 -14.694  0.00  0.00    -0.479 OA
ATOM     15  H   UNL     1      30.099 -24.426 -14.458  0.00  0.00    +0.295 HD
ENDBRANCH  13  14
ENDBRANCH  11  13
BRANCH  11  16
ATOM     16  CB  UNL     1      32.553 -23.339 -14.521  0.00  0.00    +0.043 C 
BRANCH  16  17
ATOM     17  CG  UNL     1      34.069 -23.538 -14.633  0.00  0.00    +0.112 C 
BRANCH  17  19
ATOM     18  OE2 UNL     1      34.863 -25.832 -14.844  0.00  0.00    -0.250 OA
ATOM     19  CD  UNL     1      34.546 -24.885 -14.137  0.00  0.00    +0.314 C 
BRANCH  19  20
ATOM     20  OE1 UNL     1      34.549 -24.945 -12.778  0.00  0.00    -0.480 OA
ATOM     21  HE1 UNL     1      34.662 -25.769 -12.347  0.00  0.00    +0.295 HD
ENDBRANCH  19  20
ENDBRANCH  17  19
ENDBRANCH  16  17
ENDBRANCH  11  16
ENDBRANCH   8  11
ENDBRANCH   2   9
BRANCH   1  22
ATOM     22  N   UNL     1      35.139 -18.231 -20.922  0.00  0.00    -0.302 N 
ATOM     23  C   UNL     1      36.470 -18.343 -21.483  0.00  0.00    +0.112 C 
BRANCH  22  24
ATOM     24  C   UNL     1      34.384 -17.010 -21.134  0.00  0.00    +0.118 C 
BRANCH  24  29
ATOM     25  O   UNL     1      33.332 -17.165 -24.674  0.00  0.00    -0.427 OA
ATOM     26  N   UNL     1      32.762 -14.951 -25.364  0.00  0.00    -0.294 NA
ATOM     27  N   UNL     1      33.024 -13.277 -23.614  0.00  0.00    -0.317 NA
ATOM     28  N   UNL     1      32.277 -12.696 -25.755  0.00  0.00    -0.283 N 
ATOM     29  C   UNL     1      33.918 -16.771 -22.536  0.00  0.00    +0.031 C 
ATOM     30  C   UNL     1      33.541 -15.540 -23.124  0.00  0.00    +0.180 C 
ATOM     31  C   UNL     1      33.186 -15.829 -24.439  0.00  0.00    +0.281 C 
ATOM     32  C   UNL     1      33.775 -17.724 -23.518  0.00  0.00    +0.176 C 
ATOM     33  C   UNL     1      33.445 -14.208 -22.727  0.00  0.00    +0.181 C 
ATOM     34  C   UNL     1      32.712 -13.701 -24.860  0.00  0.00    +0.200 C 
ATOM     35  H   UNL     1      32.034 -12.933 -26.679  0.00  0.00    +0.156 HD
ATOM     36  H   UNL     1      32.217 -11.761 -25.454  0.00  0.00    +0.156 HD
ATOM     37  N   UNL     1      33.782 -13.816 -21.418  0.00  0.00    -0.335 N 
ATOM     38  H   UNL     1      33.709 -12.871 -21.153  0.00  0.00    +0.144 HD
ATOM     39  H   UNL     1      34.090 -14.487 -20.767  0.00  0.00    +0.144 HD
ENDBRANCH  24  29
ENDBRANCH  22  24
ENDBRANCH   1  22
TORSDOF 11
ENDMDL
MODEL 2
REMARK VINA RESULT:     -11.3      3.888     11.235
REMARK  Name = 158376
REMARK  11 active torsions:
REMARK  status: ('A' for Active; 'I' for Inactive)
REMARK    1  A    between atoms: C_1  and  N_22
REMARK    2  A    between atoms: C_2  and  C_9
REMARK    3  A    between atoms: N_8  and  CA_11
REMARK    4  A    between atoms: CA_11  and  C_13
REMARK    5  A    between atoms: CA_11  and  CB_16
REMARK    6  A    between atoms: C_13  and  O_14
REMARK    7  A    between atoms: CB_16  and  CG_17
REMARK    8  A    between atoms: CG_17  and  CD_19
REMARK    9  A    between atoms: CD_19  and  OE1_20
REMARK   10  A    between atoms: N_22  and  C_24
REMARK   11  A    between atoms: C_24  and  C_29
REMARK                            x       y       z     vdW  Elec       q    Type
REMARK                         _______ _______ _______ _____ _____    ______ ____
ROOT
ATOM      1  C   UNL     1      33.205 -22.833 -15.470  0.00  0.00    +0.048 C 
ATOM      2  C   UNL     1      34.296 -21.655 -17.752  0.00  0.00    +0.053 C 
ATOM      3  C   UNL     1      34.519 -22.366 -15.452  0.00  0.00    +0.015 C 
ATOM      4  C   UNL     1      32.436 -22.711 -16.627  0.00  0.00    +0.015 C 
ATOM      5  C   UNL     1      35.064 -21.777 -16.593  0.00  0.00    +0.006 C 
ATOM      6  C   UNL     1      32.982 -22.122 -17.768  0.00  0.00    +0.006 C 
ENDROOT
BRANCH   2   9
ATOM      7  O   UNL     1      35.977 -21.400 -19.366  0.00  0.00    -0.270 OA
ATOM      8  N   UNL     1      34.096 -20.060 -19.583  0.00  0.00    -0.293 N 
ATOM      9  C   ACE A   0      34.877 -21.028 -18.966  0.00  0.00    +0.246 C 
ATOM     10  H   UNL     1      33.225 -19.829 -19.185  0.00  0.00    +0.150 HD
BRANCH   8  11
ATOM     11  CA  UNL     1      34.510 -19.379 -20.783  0.00  0.00    +0.172 C 
BRANCH  11  13
ATOM     12  OXT UNL     1      34.697 -16.996 -20.316  0.00  0.00    -0.248 OA
ATOM     13  C   UNL     1      35.215 -18.104 -20.367  0.00  0.00    +0.332 C 
BRANCH  13  14
ATOM     14  O   UNL     1      36.507 -18.331 -20.011  0.00  0.00    -0.479 OA
ATOM     15  H   UNL     1      36.734 -19.112 -19.546  0.00  0.00    +0.295 HD
ENDBRANCH  13  14
ENDBRANCH  11  13
BRANCH  11  16
ATOM     16  CB  UNL     1      33.355 -19.155 -21.767  0.00  0.00    +0.043 C 
BRANCH  16  17
ATOM     17  CG  UNL     1      33.754 -18.982 -23.237  0.00  0.00    +0.112 C 
BRANCH  17  19
ATOM     18  OE2 UNL     1      32.602 -17.255 -24.512  0.00  0.00    -0.250 OA
ATOM     19  CD  UNL     1      33.519 -17.587 -23.774  0.00  0.00    +0.314 C 
BRANCH  19  20
ATOM     20  OE1 UNL     1      34.487 -16.724 -23.366  0.00  0.00    -0.480 OA
ATOM     21  HE1 UNL     1      34.279 -16.041 -22.759  0.00  0.00    +0.295 HD
ENDBRANCH  19  20
ENDBRANCH  17  19
ENDBRANCH  16  17
ENDBRANCH  11  16
ENDBRANCH   8  11
ENDBRANCH   2   9
BRANCH   1  22
ATOM     22  N   UNL     1      32.652 -23.427 -14.317  0.00  0.00    -0.302 N 
ATOM     23  C   UNL     1      31.410 -22.932 -13.759  0.00  0.00    +0.112 C 
BRANCH  22  24
ATOM     24  C   UNL     1      33.313 -24.552 -13.682  0.00  0.00    +0.118 C 
BRANCH  24  29
ATOM     25  O   UNL     1      36.250 -23.286 -11.829  0.00  0.00    -0.427 OA
ATOM     26  N   UNL     1      38.134 -24.614 -12.451  0.00  0.00    -0.294 NA
ATOM     27  N   UNL     1      37.616 -26.361 -14.068  0.00  0.00    -0.317 NA
ATOM     28  N   UNL     1      39.787 -26.069 -13.242  0.00  0.00    -0.283 N 
ATOM     29  C   UNL     1      34.652 -24.261 -13.080  0.00  0.00    +0.031 C 
ATOM     30  C   UNL     1      35.875 -24.933 -13.323  0.00  0.00    +0.180 C 
ATOM     31  C   UNL     1      36.830 -24.301 -12.533  0.00  0.00    +0.281 C 
ATOM     32  C   UNL     1      34.934 -23.271 -12.167  0.00  0.00    +0.176 C 
ATOM     33  C   UNL     1      36.314 -25.998 -14.107  0.00  0.00    +0.181 C 
ATOM     34  C   UNL     1      38.434 -25.657 -13.253  0.00  0.00    +0.200 C 
ATOM     35  H   UNL     1      40.439 -25.601 -12.671  0.00  0.00    +0.156 HD
ATOM     36  H   UNL     1      40.075 -26.823 -13.804  0.00  0.00    +0.156 HD
ATOM     37  N   UNL     1      35.423 -26.699 -14.941  0.00  0.00    -0.335 N 
ATOM     38  H   UNL     1      35.749 -27.449 -15.488  0.00  0.00    +0.144 HD
ATOM     39  H   UNL     1      34.474 -26.440 -14.976  0.00  0.00    +0.144 HD
ENDBRANCH  24  29
ENDBRANCH  22  24
ENDBRANCH   1  22
TORSDOF 11
ENDMDL
MODEL 3
REMARK VINA RESULT:     -11.1      1.889      2.248
REMARK  Name = 158376
REMARK  11 active torsions:
REMARK  status: ('A' for Active; 'I' for Inactive)
REMARK    1  A    between atoms: C_1  and  N_22
REMARK    2  A    between atoms: C_2  and  C_9
REMARK    3  A    between atoms: N_8  and  CA_11
REMARK    4  A    between atoms: CA_11  and  C_13
REMARK    5  A    between atoms: CA_11  and  CB_16
REMARK    6  A    between atoms: C_13  and  O_14
REMARK    7  A    between atoms: CB_16  and  CG_17
REMARK    8  A    between atoms: CG_17  and  CD_19
REMARK    9  A    between atoms: CD_19  and  OE1_20
REMARK   10  A    between atoms: N_22  and  C_24
REMARK   11  A    between atoms: C_24  and  C_29
REMARK                            x       y       z     vdW  Elec       q    Type
REMARK                         _______ _______ _______ _____ _____    ______ ____
ROOT
ATOM      1  C   UNL     1      33.638 -19.849 -20.173  0.00  0.00    +0.048 C 
ATOM      2  C   UNL     1      32.633 -21.583 -18.231  0.00  0.00    +0.053 C 
ATOM      3  C   UNL     1      32.262 -19.927 -19.953  0.00  0.00    +0.015 C 
ATOM      4  C   UNL     1      34.510 -20.637 -19.423  0.00  0.00    +0.015 C 
ATOM      5  C   UNL     1      31.760 -20.793 -18.982  0.00  0.00    +0.006 C 
ATOM      6  C   UNL     1      34.007 -21.505 -18.452  0.00  0.00    +0.006 C 
ENDROOT
BRANCH   2   9
ATOM      7  O   UNL     1      32.747 -23.500 -16.887  0.00  0.00    -0.270 OA
ATOM      8  N   UNL     1      30.882 -22.145 -16.633  0.00  0.00    -0.293 N 
ATOM      9  C   ACE A   0      32.097 -22.505 -17.198  0.00  0.00    +0.246 C 
ATOM     10  H   UNL     1      30.436 -21.327 -16.950  0.00  0.00    +0.150 HD
BRANCH   8  11
ATOM     11  CA  UNL     1      30.246 -22.924 -15.600  0.00  0.00    +0.172 C 
BRANCH  11  13
ATOM     12  OXT UNL     1      28.173 -21.785 -16.180  0.00  0.00    -0.248 OA
ATOM     13  C   UNL     1      28.748 -22.789 -15.781  0.00  0.00    +0.332 C 
BRANCH  13  14
ATOM     14  O   UNL     1      28.095 -23.943 -15.481  0.00  0.00    -0.479 OA
ATOM     15  H   UNL     1      28.066 -24.640 -16.105  0.00  0.00    +0.295 HD
ENDBRANCH  13  14
ENDBRANCH  11  13
BRANCH  11  16
ATOM     16  CB  UNL     1      30.736 -22.557 -14.194  0.00  0.00    +0.043 C 
BRANCH  16  17
ATOM     17  CG  UNL     1      31.209 -23.728 -13.325  0.00  0.00    +0.112 C 
BRANCH  17  19
ATOM     18  OE2 UNL     1      29.625 -25.554 -13.631  0.00  0.00    -0.250 OA
ATOM     19  CD  UNL     1      30.101 -24.677 -12.924  0.00  0.00    +0.314 C 
BRANCH  19  20
ATOM     20  OE1 UNL     1      29.649 -24.417 -11.668  0.00  0.00    -0.480 OA
ATOM     21  HE1 UNL     1      28.729 -24.421 -11.491  0.00  0.00    +0.295 HD
ENDBRANCH  19  20
ENDBRANCH  17  19
ENDBRANCH  16  17
ENDBRANCH  11  16
ENDBRANCH   8  11
ENDBRANCH   2   9
BRANCH   1  22
ATOM     22  N   UNL     1      34.147 -18.972 -21.153  0.00  0.00    -0.302 N 
ATOM     23  C   UNL     1      34.479 -19.463 -22.476  0.00  0.00    +0.112 C 
BRANCH  22  24
ATOM     24  C   UNL     1      34.330 -17.565 -20.855  0.00  0.00    +0.118 C 
BRANCH  24  29
ATOM     25  O   UNL     1      34.051 -15.852 -24.119  0.00  0.00    -0.427 OA
ATOM     26  N   UNL     1      33.397 -13.594 -23.705  0.00  0.00    -0.294 NA
ATOM     27  N   UNL     1      33.108 -13.070 -21.344  0.00  0.00    -0.317 NA
ATOM     28  N   UNL     1      32.758 -11.455 -23.003  0.00  0.00    -0.283 N 
ATOM     29  C   UNL     1      34.139 -16.628 -22.008  0.00  0.00    +0.031 C 
ATOM     30  C   UNL     1      33.758 -15.266 -21.962  0.00  0.00    +0.180 C 
ATOM     31  C   UNL     1      33.715 -14.829 -23.282  0.00  0.00    +0.281 C 
ATOM     32  C   UNL     1      34.306 -16.934 -23.339  0.00  0.00    +0.176 C 
ATOM     33  C   UNL     1      33.437 -14.330 -20.980  0.00  0.00    +0.181 C 
ATOM     34  C   UNL     1      33.108 -12.784 -22.666  0.00  0.00    +0.200 C 
ATOM     35  H   UNL     1      32.738 -11.177 -23.947  0.00  0.00    +0.156 HD
ATOM     36  H   UNL     1      32.536 -10.811 -22.294  0.00  0.00    +0.156 HD
ATOM     37  N   UNL     1      33.452 -14.677 -19.617  0.00  0.00    -0.335 N 
ATOM     38  H   UNL     1      33.223 -14.004 -18.936  0.00  0.00    +0.144 HD
ATOM     39  H   UNL     1      33.691 -15.592 -19.343  0.00  0.00    +0.144 HD
ENDBRANCH  24  29
ENDBRANCH  22  24
ENDBRANCH   1  22
TORSDOF 11
ENDMDL
MODEL 4
REMARK VINA RESULT:     -11.1      1.753      2.483
REMARK  Name = 158376
REMARK  11 active torsions:
REMARK  status: ('A' for Active; 'I' for Inactive)
REMARK    1  A    between atoms: C_1  and  N_22
REMARK    2  A    between atoms: C_2  and  C_9
REMARK    3  A    between atoms: N_8  and  CA_11
REMARK    4  A    between atoms: CA_11  and  C_13
REMARK    5  A    between atoms: CA_11  and  CB_16
REMARK    6  A    between atoms: C_13  and  O_14
REMARK    7  A    between atoms: CB_16  and  CG_17
REMARK    8  A    between atoms: CG_17  and  CD_19
REMARK    9  A    between atoms: CD_19  and  OE1_20
REMARK   10  A    between atoms: N_22  and  C_24
REMARK   11  A    between atoms: C_24  and  C_29
REMARK                            x       y       z     vdW  Elec       q    Type
REMARK                         _______ _______ _______ _____ _____    ______ ____
ROOT
ATOM      1  C   UNL     1      33.536 -19.563 -20.569  0.00  0.00    +0.048 C 
ATOM      2  C   UNL     1      32.929 -21.325 -18.493  0.00  0.00    +0.053 C 
ATOM      3  C   UNL     1      34.563 -20.220 -19.890  0.00  0.00    +0.015 C 
ATOM      4  C   UNL     1      32.207 -19.786 -20.211  0.00  0.00    +0.015 C 
ATOM      5  C   UNL     1      34.258 -21.101 -18.852  0.00  0.00    +0.006 C 
ATOM      6  C   UNL     1      31.904 -20.667 -19.172  0.00  0.00    +0.006 C 
ENDROOT
BRANCH   2   9
ATOM      7  O   UNL     1      33.442 -23.092 -17.041  0.00  0.00    -0.270 OA
ATOM      8  N   UNL     1      31.356 -22.107 -16.804  0.00  0.00    -0.293 N 
ATOM      9  C   ACE A   0      32.605 -22.263 -17.388  0.00  0.00    +0.246 C 
ATOM     10  H   UNL     1      30.753 -21.412 -17.154  0.00  0.00    +0.150 HD
BRANCH   8  11
ATOM     11  CA  UNL     1      30.906 -22.924 -15.706  0.00  0.00    +0.172 C 
BRANCH  11  13
ATOM     12  OXT UNL     1      28.705 -22.120 -16.372  0.00  0.00    -0.248 OA
ATOM     13  C   UNL     1      29.405 -22.752 -15.591  0.00  0.00    +0.332 C 
BRANCH  13  14
ATOM     14  O   UNL     1      28.898 -23.421 -14.522  0.00  0.00    -0.479 OA
ATOM     15  H   UNL     1      28.162 -23.075 -14.059  0.00  0.00    +0.295 HD
ENDBRANCH  13  14
ENDBRANCH  11  13
BRANCH  11  16
ATOM     16  CB  UNL     1      31.664 -22.636 -14.404  0.00  0.00    +0.043 C 
BRANCH  16  17
ATOM     17  CG  UNL     1      32.553 -23.772 -13.883  0.00  0.00    +0.112 C 
BRANCH  17  19
ATOM     18  OE2 UNL     1      30.890 -24.745 -12.391  0.00  0.00    -0.250 OA
ATOM     19  CD  UNL     1      32.046 -24.407 -12.606  0.00  0.00    +0.314 C 
BRANCH  19  20
ATOM     20  OE1 UNL     1      33.035 -24.529 -11.682  0.00  0.00    -0.480 OA
ATOM     21  HE1 UNL     1      33.748 -23.922 -11.677  0.00  0.00    +0.295 HD
ENDBRANCH  19  20
ENDBRANCH  17  19
ENDBRANCH  16  17
ENDBRANCH  11  16
ENDBRANCH   8  11
ENDBRANCH   2   9
BRANCH   1  22
ATOM     22  N   UNL     1      33.843 -18.673 -21.619  0.00  0.00    -0.302 N 
ATOM     23  C   UNL     1      33.199 -18.811 -22.910  0.00  0.00    +0.112 C 
BRANCH  22  24
ATOM     24  C   UNL     1      34.796 -17.599 -21.417  0.00  0.00    +0.118 C 
BRANCH  24  29
ATOM     25  O   UNL     1      33.355 -14.548 -19.906  0.00  0.00    -0.427 OA
ATOM     26  N   UNL     1      32.933 -12.991 -21.666  0.00  0.00    -0.294 NA
ATOM     27  N   UNL     1      33.543 -13.814 -23.876  0.00  0.00    -0.317 NA
ATOM     28  N   UNL     1      32.630 -11.679 -23.580  0.00  0.00    -0.283 N 
ATOM     29  C   UNL     1      34.206 -16.261 -21.094  0.00  0.00    +0.031 C 
ATOM     30  C   UNL     1      33.887 -15.216 -21.994  0.00  0.00    +0.180 C 
ATOM     31  C   UNL     1      33.367 -14.182 -21.220  0.00  0.00    +0.281 C 
ATOM     32  C   UNL     1      33.864 -15.806 -19.841  0.00  0.00    +0.176 C 
ATOM     33  C   UNL     1      33.966 -14.994 -23.367  0.00  0.00    +0.181 C 
ATOM     34  C   UNL     1      33.061 -12.898 -23.006  0.00  0.00    +0.200 C 
ATOM     35  H   UNL     1      32.267 -10.967 -23.005  0.00  0.00    +0.156 HD
ATOM     36  H   UNL     1      32.694 -11.544 -24.552  0.00  0.00    +0.156 HD
ATOM     37  N   UNL     1      34.476 -15.980 -24.232  0.00  0.00    -0.335 N 
ATOM     38  H   UNL     1      34.525 -15.808 -25.200  0.00  0.00    +0.144 HD
ATOM     39  H   UNL     1      34.784 -16.842 -23.870  0.00  0.00    +0.144 HD
ENDBRANCH  24  29
ENDBRANCH  22  24
ENDBRANCH   1  22
TORSDOF 11
ENDMDL
MODEL 5
REMARK VINA RESULT:     -10.9      1.526      2.117
REMARK  Name = 158376
REMARK  11 active torsions:
REMARK  status: ('A' for Active; 'I' for Inactive)
REMARK    1  A    between atoms: C_1  and  N_22
REMARK    2  A    between atoms: C_2  and  C_9
REMARK    3  A    between atoms: N_8  and  CA_11
REMARK    4  A    between atoms: CA_11  and  C_13
REMARK    5  A    between atoms: CA_11  and  CB_16
REMARK    6  A    between atoms: C_13  and  O_14
REMARK    7  A    between atoms: CB_16  and  CG_17
REMARK    8  A    between atoms: CG_17  and  CD_19
REMARK    9  A    between atoms: CD_19  and  OE1_20
REMARK   10  A    between atoms: N_22  and  C_24
REMARK   11  A    between atoms: C_24  and  C_29
REMARK                            x       y       z     vdW  Elec       q    Type
REMARK                         _______ _______ _______ _____ _____    ______ ____
ROOT
ATOM      1  C   UNL     1      34.537 -19.578 -20.224  0.00  0.00    +0.048 C 
ATOM      2  C   UNL     1      33.583 -21.565 -18.513  0.00  0.00    +0.053 C 
ATOM      3  C   UNL     1      33.164 -19.790 -20.099  0.00  0.00    +0.015 C 
ATOM      4  C   UNL     1      35.433 -20.359 -19.494  0.00  0.00    +0.015 C 
ATOM      5  C   UNL     1      32.687 -20.783 -19.244  0.00  0.00    +0.006 C 
ATOM      6  C   UNL     1      34.956 -21.353 -18.639  0.00  0.00    +0.006 C 
ENDROOT
BRANCH   2   9
ATOM      7  O   UNL     1      32.626 -23.661 -18.081  0.00  0.00    -0.270 OA
ATOM      8  N   UNL     1      33.174 -22.354 -16.244  0.00  0.00    -0.293 N 
ATOM      9  C   ACE A   0      33.075 -22.623 -17.603  0.00  0.00    +0.246 C 
ATOM     10  H   UNL     1      33.550 -21.490 -15.958  0.00  0.00    +0.150 HD
BRANCH   8  11
ATOM     11  CA  UNL     1      32.748 -23.291 -15.236  0.00  0.00    +0.172 C 
BRANCH  11  13
ATOM     12  OXT UNL     1      30.410 -22.607 -15.258  0.00  0.00    -0.248 OA
ATOM     13  C   UNL     1      31.456 -22.768 -14.642  0.00  0.00    +0.332 C 
BRANCH  13  14
ATOM     14  O   UNL     1      31.572 -22.527 -13.309  0.00  0.00    -0.479 OA
ATOM     15  H   UNL     1      31.783 -21.666 -13.006  0.00  0.00    +0.295 HD
ENDBRANCH  13  14
ENDBRANCH  11  13
BRANCH  11  16
ATOM     16  CB  UNL     1      33.837 -23.578 -14.195  0.00  0.00    +0.043 C 
BRANCH  16  17
ATOM     17  CG  UNL     1      35.245 -23.086 -14.549  0.00  0.00    +0.112 C 
BRANCH  17  19
ATOM     18  OE2 UNL     1      37.303 -23.756 -13.429  0.00  0.00    -0.250 OA
ATOM     19  CD  UNL     1      36.346 -24.039 -14.136  0.00  0.00    +0.314 C 
BRANCH  19  20
ATOM     20  OE1 UNL     1      36.173 -25.271 -14.685  0.00  0.00    -0.480 OA
ATOM     21  HE1 UNL     1      36.597 -25.487 -15.492  0.00  0.00    +0.295 HD
ENDBRANCH  19  20
ENDBRANCH  17  19
ENDBRANCH  16  17
ENDBRANCH  11  16
ENDBRANCH   8  11
ENDBRANCH   2   9
BRANCH   1  22
ATOM     22  N   UNL     1      35.020 -18.573 -21.087  0.00  0.00    -0.302 N 
ATOM     23  C   UNL     1      36.443 -18.319 -21.196  0.00  0.00    +0.112 C 
BRANCH  22  24
ATOM     24  C   UNL     1      34.100 -17.790 -21.889  0.00  0.00    +0.118 C 
BRANCH  24  29
ATOM     25  O   UNL     1      33.710 -14.569 -20.119  0.00  0.00    -0.427 OA
ATOM     26  N   UNL     1      33.341 -12.873 -21.759  0.00  0.00    -0.294 NA
ATOM     27  N   UNL     1      33.325 -13.706 -24.048  0.00  0.00    -0.317 NA
ATOM     28  N   UNL     1      33.002 -11.437 -23.574  0.00  0.00    -0.283 N 
ATOM     29  C   UNL     1      33.906 -16.371 -21.454  0.00  0.00    +0.031 C 
ATOM     30  C   UNL     1      33.676 -15.238 -22.272  0.00  0.00    +0.180 C 
ATOM     31  C   UNL     1      33.563 -14.152 -21.409  0.00  0.00    +0.281 C 
ATOM     32  C   UNL     1      33.916 -15.911 -20.157  0.00  0.00    +0.176 C 
ATOM     33  C   UNL     1      33.549 -14.974 -23.634  0.00  0.00    +0.181 C 
ATOM     34  C   UNL     1      33.237 -12.748 -23.098  0.00  0.00    +0.200 C 
ATOM     35  H   UNL     1      32.926 -10.689 -22.938  0.00  0.00    +0.156 HD
ATOM     36  H   UNL     1      32.914 -11.273 -24.541  0.00  0.00    +0.156 HD
ATOM     37  N   UNL     1      33.648 -16.007 -24.584  0.00  0.00    -0.335 N 
ATOM     38  H   UNL     1      33.555 -15.804 -25.543  0.00  0.00    +0.144 HD
ATOM     39  H   UNL     1      33.810 -16.933 -24.291  0.00  0.00    +0.144 HD
ENDBRANCH  24  29
ENDBRANCH  22  24
ENDBRANCH   1  22
TORSDOF 11
ENDMDL
MODEL 6
REMARK VINA RESULT:     -10.7      2.697      4.013
REMARK  Name = 158376
REMARK  11 active torsions:
REMARK  status: ('A' for Active; 'I' for Inactive)
REMARK    1  A    between atoms: C_1  and  N_22
REMARK    2  A    between atoms: C_2  and  C_9
REMARK    3  A    between atoms: N_8  and  CA_11
REMARK    4  A    between atoms: CA_11  and  C_13
REMARK    5  A    between atoms: CA_11  and  CB_16
REMARK    6  A    between atoms: C_13  and  O_14
REMARK    7  A    between atoms: CB_16  and  CG_17
REMARK    8  A    between atoms: CG_17  and  CD_19
REMARK    9  A    between atoms: CD_19  and  OE1_20
REMARK   10  A    between atoms: N_22  and  C_24
REMARK   11  A    between atoms: C_24  and  C_29
REMARK                            x       y       z     vdW  Elec       q    Type
REMARK                         _______ _______ _______ _____ _____    ______ ____
ROOT
ATOM      1  C   UNL     1      34.145 -20.864 -18.714  0.00  0.00    +0.048 C 
ATOM      2  C   UNL     1      35.212 -22.063 -16.431  0.00  0.00    +0.053 C 
ATOM      3  C   UNL     1      33.333 -21.650 -17.896  0.00  0.00    +0.015 C 
ATOM      4  C   UNL     1      35.489 -20.677 -18.392  0.00  0.00    +0.015 C 
ATOM      5  C   UNL     1      33.867 -22.249 -16.754  0.00  0.00    +0.006 C 
ATOM      6  C   UNL     1      36.022 -21.277 -17.250  0.00  0.00    +0.006 C 
ENDROOT
BRANCH   2   9
ATOM      7  O   UNL     1      36.853 -22.299 -14.774  0.00  0.00    -0.270 OA
ATOM      8  N   UNL     1      35.017 -23.711 -14.647  0.00  0.00    -0.293 N 
ATOM      9  C   ACE A   0      35.779 -22.700 -15.216  0.00  0.00    +0.246 C 
ATOM     10  H   UNL     1      34.167 -23.962 -15.076  0.00  0.00    +0.150 HD
BRANCH   8  11
ATOM     11  CA  UNL     1      35.421 -24.408 -13.452  0.00  0.00    +0.172 C 
BRANCH  11  13
ATOM     12  OXT UNL     1      35.360 -26.360 -14.907  0.00  0.00    -0.248 OA
ATOM     13  C   UNL     1      35.602 -25.868 -13.812  0.00  0.00    +0.332 C 
BRANCH  13  14
ATOM     14  O   UNL     1      36.110 -26.587 -12.776  0.00  0.00    -0.479 OA
ATOM     15  H   UNL     1      35.921 -27.501 -12.703  0.00  0.00    +0.295 HD
ENDBRANCH  13  14
ENDBRANCH  11  13
BRANCH  11  16
ATOM     16  CB  UNL     1      34.463 -24.174 -12.277  0.00  0.00    +0.043 C 
BRANCH  16  17
ATOM     17  CG  UNL     1      34.979 -23.247 -11.170  0.00  0.00    +0.112 C 
BRANCH  17  19
ATOM     18  OE2 UNL     1      37.279 -22.440 -11.191  0.00  0.00    -0.250 OA
ATOM     19  CD  UNL     1      36.474 -23.331 -10.952  0.00  0.00    +0.314 C 
BRANCH  19  20
ATOM     20  OE1 UNL     1      36.844 -24.552 -10.484  0.00  0.00    -0.480 OA
ATOM     21  HE1 UNL     1      36.361 -24.952  -9.788  0.00  0.00    +0.295 HD
ENDBRANCH  19  20
ENDBRANCH  17  19
ENDBRANCH  16  17
ENDBRANCH  11  16
ENDBRANCH   8  11
ENDBRANCH   2   9
BRANCH   1  22
ATOM     22  N   UNL     1      33.606 -20.258 -19.867  0.00  0.00    -0.302 N 
ATOM     23  C   UNL     1      32.171 -20.169 -20.048  0.00  0.00    +0.112 C 
BRANCH  22  24
ATOM     24  C   UNL     1      34.481 -19.700 -20.881  0.00  0.00    +0.118 C 
BRANCH  24  29
ATOM     25  O   UNL     1      34.359 -16.008 -20.752  0.00  0.00    -0.427 OA
ATOM     26  N   UNL     1      33.650 -15.225 -22.894  0.00  0.00    -0.294 NA
ATOM     27  N   UNL     1      33.222 -17.006 -24.500  0.00  0.00    -0.317 NA
ATOM     28  N   UNL     1      32.943 -14.754 -25.073  0.00  0.00    -0.283 N 
ATOM     29  C   UNL     1      34.341 -18.229 -21.120  0.00  0.00    +0.031 C 
ATOM     30  C   UNL     1      33.936 -17.581 -22.312  0.00  0.00    +0.180 C 
ATOM     31  C   UNL     1      33.962 -16.216 -22.041  0.00  0.00    +0.281 C 
ATOM     32  C   UNL     1      34.584 -17.231 -20.205  0.00  0.00    +0.176 C 
ATOM     33  C   UNL     1      33.548 -17.958 -23.596  0.00  0.00    +0.181 C 
ATOM     34  C   UNL     1      33.293 -15.717 -24.098  0.00  0.00    +0.200 C 
ATOM     35  H   UNL     1      32.972 -13.795 -24.850  0.00  0.00    +0.156 HD
ATOM     36  H   UNL     1      32.672 -15.043 -25.974  0.00  0.00    +0.156 HD
ATOM     37  N   UNL     1      33.490 -19.314 -23.965  0.00  0.00    -0.335 N 
ATOM     38  H   UNL     1      33.214 -19.565 -24.876  0.00  0.00    +0.144 HD
ATOM     39  H   UNL     1      33.725 -20.014 -23.313  0.00  0.00    +0.144 HD
ENDBRANCH  24  29
ENDBRANCH  22  24
ENDBRANCH   1  22
TORSDOF 11
ENDMDL
MODEL 7
REMARK VINA RESULT:     -10.4      0.748      2.631
REMARK  Name = 158376
REMARK  11 active torsions:
REMARK  status: ('A' for Active; 'I' for Inactive)
REMARK    1  A    between atoms: C_1  and  N_22
REMARK    2  A    between atoms: C_2  and  C_9
REMARK    3  A    between atoms: N_8  and  CA_11
REMARK    4  A    between atoms: CA_11  and  C_13
REMARK    5  A    between atoms: CA_11  and  CB_16
REMARK    6  A    between atoms: C_13  and  O_14
REMARK    7  A    between atoms: CB_16  and  CG_17
REMARK    8  A    between atoms: CG_17  and  CD_19
REMARK    9  A    between atoms: CD_19  and  OE1_20
REMARK   10  A    between atoms: N_22  and  C_24
REMARK   11  A    between atoms: C_24  and  C_29
REMARK                            x       y       z     vdW  Elec       q    Type
REMARK                         _______ _______ _______ _____ _____    ______ ____
ROOT
ATOM      1  C   UNL     1      34.562 -19.550 -20.046  0.00  0.00    +0.048 C 
ATOM      2  C   UNL     1      33.647 -21.513 -18.287  0.00  0.00    +0.053 C 
ATOM      3  C   UNL     1      33.195 -19.813 -19.945  0.00  0.00    +0.015 C 
ATOM      4  C   UNL     1      35.470 -20.268 -19.269  0.00  0.00    +0.015 C 
ATOM      5  C   UNL     1      32.738 -20.794 -19.065  0.00  0.00    +0.006 C 
ATOM      6  C   UNL     1      35.012 -21.249 -18.389  0.00  0.00    +0.006 C 
ENDROOT
BRANCH   2   9
ATOM      7  O   UNL     1      32.751 -23.624 -17.800  0.00  0.00    -0.270 OA
ATOM      8  N   UNL     1      33.229 -22.242 -15.999  0.00  0.00    -0.293 N 
ATOM      9  C   ACE A   0      33.160 -22.557 -17.349  0.00  0.00    +0.246 C 
ATOM     10  H   UNL     1      33.572 -21.358 -15.736  0.00  0.00    +0.150 HD
BRANCH   8  11
ATOM     11  CA  UNL     1      32.818 -23.160 -14.967  0.00  0.00    +0.172 C 
BRANCH  11  13
ATOM     12  OXT UNL     1      35.144 -23.876 -15.052  0.00  0.00    -0.248 OA
ATOM     13  C   UNL     1      34.002 -24.047 -14.643  0.00  0.00    +0.332 C 
BRANCH  13  14
ATOM     14  O   UNL     1      33.665 -25.055 -13.797  0.00  0.00    -0.479 OA
ATOM     15  H   UNL     1      33.820 -24.968 -12.878  0.00  0.00    +0.295 HD
ENDBRANCH  13  14
ENDBRANCH  11  13
BRANCH  11  16
ATOM     16  CB  UNL     1      31.547 -23.935 -15.336  0.00  0.00    +0.043 C 
BRANCH  16  17
ATOM     17  CG  UNL     1      30.249 -23.439 -14.686  0.00  0.00    +0.112 C 
BRANCH  17  19
ATOM     18  OE2 UNL     1      29.883 -21.865 -16.510  0.00  0.00    -0.250 OA
ATOM     19  CD  UNL     1      29.444 -22.508 -15.566  0.00  0.00    +0.314 C 
BRANCH  19  20
ATOM     20  OE1 UNL     1      28.149 -22.430 -15.160  0.00  0.00    -0.480 OA
ATOM     21  HE1 UNL     1      27.476 -22.229 -15.779  0.00  0.00    +0.295 HD
ENDBRANCH  19  20
ENDBRANCH  17  19
ENDBRANCH  16  17
ENDBRANCH  11  16
ENDBRANCH   8  11
ENDBRANCH   2   9
BRANCH   1  22
ATOM     22  N   UNL     1      35.025 -18.558 -20.935  0.00  0.00    -0.302 N 
ATOM     23  C   UNL     1      36.243 -18.761 -21.692  0.00  0.00    +0.112 C 
BRANCH  22  24
ATOM     24  C   UNL     1      34.279 -17.327 -21.113  0.00  0.00    +0.118 C 
BRANCH  24  29
ATOM     25  O   UNL     1      33.213 -17.375 -24.652  0.00  0.00    -0.427 OA
ATOM     26  N   UNL     1      32.728 -15.129 -25.300  0.00  0.00    -0.294 NA
ATOM     27  N   UNL     1      33.058 -13.499 -23.520  0.00  0.00    -0.317 NA
ATOM     28  N   UNL     1      32.329 -12.850 -25.648  0.00  0.00    -0.283 N 
ATOM     29  C   UNL     1      33.820 -17.043 -22.510  0.00  0.00    +0.031 C 
ATOM     30  C   UNL     1      33.488 -15.788 -23.074  0.00  0.00    +0.180 C 
ATOM     31  C   UNL     1      33.120 -16.039 -24.392  0.00  0.00    +0.281 C 
ATOM     32  C   UNL     1      33.637 -17.972 -23.508  0.00  0.00    +0.176 C 
ATOM     33  C   UNL     1      33.445 -14.461 -22.652  0.00  0.00    +0.181 C 
ATOM     34  C   UNL     1      32.728 -13.887 -24.773  0.00  0.00    +0.200 C 
ATOM     35  H   UNL     1      32.075 -13.060 -26.575  0.00  0.00    +0.156 HD
ATOM     36  H   UNL     1      32.307 -11.919 -25.329  0.00  0.00    +0.156 HD
ATOM     37  N   UNL     1      33.800 -14.107 -21.337  0.00  0.00    -0.335 N 
ATOM     38  H   UNL     1      33.764 -13.165 -21.055  0.00  0.00    +0.144 HD
ATOM     39  H   UNL     1      34.084 -14.801 -20.699  0.00  0.00    +0.144 HD
ENDBRANCH  24  29
ENDBRANCH  22  24
ENDBRANCH   1  22
TORSDOF 11
ENDMDL
MODEL 8
REMARK VINA RESULT:     -10.1      3.352     11.262
REMARK  Name = 158376
REMARK  11 active torsions:
REMARK  status: ('A' for Active; 'I' for Inactive)
REMARK    1  A    between atoms: C_1  and  N_22
REMARK    2  A    between atoms: C_2  and  C_9
REMARK    3  A    between atoms: N_8  and  CA_11
REMARK    4  A    between atoms: CA_11  and  C_13
REMARK    5  A    between atoms: CA_11  and  CB_16
REMARK    6  A    between atoms: C_13  and  O_14
REMARK    7  A    between atoms: CB_16  and  CG_17
REMARK    8  A    between atoms: CG_17  and  CD_19
REMARK    9  A    between atoms: CD_19  and  OE1_20
REMARK   10  A    between atoms: N_22  and  C_24
REMARK   11  A    between atoms: C_24  and  C_29
REMARK                            x       y       z     vdW  Elec       q    Type
REMARK                         _______ _______ _______ _____ _____    ______ ____
ROOT
ATOM      1  C   UNL     1      34.606 -17.293 -21.123  0.00  0.00    +0.048 C 
ATOM      2  C   UNL     1      33.431 -14.935 -22.042  0.00  0.00    +0.053 C 
ATOM      3  C   UNL     1      34.196 -16.318 -20.213  0.00  0.00    +0.015 C 
ATOM      4  C   UNL     1      34.428 -17.090 -22.491  0.00  0.00    +0.015 C 
ATOM      5  C   UNL     1      33.609 -15.139 -20.673  0.00  0.00    +0.006 C 
ATOM      6  C   UNL     1      33.841 -15.910 -22.950  0.00  0.00    +0.006 C 
ENDROOT
BRANCH   2   9
ATOM      7  O   UNL     1      32.099 -13.025 -21.768  0.00  0.00    -0.270 OA
ATOM      8  N   UNL     1      33.097 -13.325 -23.841  0.00  0.00    -0.293 N 
ATOM      9  C   ACE A   0      32.805 -13.679 -22.531  0.00  0.00    +0.246 C 
ATOM     10  H   UNL     1      33.674 -13.917 -24.374  0.00  0.00    +0.150 HD
BRANCH   8  11
ATOM     11  CA  UNL     1      32.586 -12.124 -24.451  0.00  0.00    +0.172 C 
BRANCH  11  13
ATOM     12  OXT UNL     1      31.437 -11.914 -26.588  0.00  0.00    -0.248 OA
ATOM     13  C   UNL     1      32.316 -12.430 -25.910  0.00  0.00    +0.332 C 
BRANCH  13  14
ATOM     14  O   UNL     1      33.200 -13.333 -26.411  0.00  0.00    -0.479 OA
ATOM     15  H   UNL     1      33.474 -13.273 -27.304  0.00  0.00    +0.295 HD
ENDBRANCH  13  14
ENDBRANCH  11  13
BRANCH  11  16
ATOM     16  CB  UNL     1      33.500 -10.912 -24.230  0.00  0.00    +0.043 C 
BRANCH  16  17
ATOM     17  CG  UNL     1      32.833  -9.676 -23.615  0.00  0.00    +0.112 C 
BRANCH  17  19
ATOM     18  OE2 UNL     1      33.474  -7.348 -23.287  0.00  0.00    -0.250 OA
ATOM     19  CD  UNL     1      33.787  -8.529 -23.366  0.00  0.00    +0.314 C 
BRANCH  19  20
ATOM     20  OE1 UNL     1      35.073  -8.958 -23.275  0.00  0.00    -0.480 OA
ATOM     21  HE1 UNL     1      35.370  -9.664 -23.815  0.00  0.00    +0.295 HD
ENDBRANCH  19  20
ENDBRANCH  17  19
ENDBRANCH  16  17
ENDBRANCH  11  16
ENDBRANCH   8  11
ENDBRANCH   2   9
BRANCH   1  22
ATOM     22  N   UNL     1      35.198 -18.485 -20.659  0.00  0.00    -0.302 N 
ATOM     23  C   UNL     1      36.560 -18.484 -20.161  0.00  0.00    +0.112 C 
BRANCH  22  24
ATOM     24  C   UNL     1      34.449 -19.727 -20.660  0.00  0.00    +0.118 C 
BRANCH  24  29
ATOM     25  O   UNL     1      35.577 -21.733 -17.767  0.00  0.00    -0.427 OA
ATOM     26  N   UNL     1      33.636 -22.560 -16.650  0.00  0.00    -0.294 NA
ATOM     27  N   UNL     1      31.540 -21.880 -17.686  0.00  0.00    -0.317 NA
ATOM     28  N   UNL     1      31.572 -23.224 -15.770  0.00  0.00    -0.283 N 
ATOM     29  C   UNL     1      34.606 -20.580 -19.439  0.00  0.00    +0.031 C 
ATOM     30  C   UNL     1      33.583 -21.158 -18.650  0.00  0.00    +0.180 C 
ATOM     31  C   UNL     1      34.226 -21.857 -17.632  0.00  0.00    +0.281 C 
ATOM     32  C   UNL     1      35.796 -20.960 -18.863  0.00  0.00    +0.176 C 
ATOM     33  C   UNL     1      32.190 -21.189 -18.650  0.00  0.00    +0.181 C 
ATOM     34  C   UNL     1      32.293 -22.513 -16.759  0.00  0.00    +0.200 C 
ATOM     35  H   UNL     1      32.057 -23.709 -15.063  0.00  0.00    +0.156 HD
ATOM     36  H   UNL     1      30.589 -23.233 -15.789  0.00  0.00    +0.156 HD
ATOM     37  N   UNL     1      31.451 -20.513 -19.638  0.00  0.00    -0.335 N 
ATOM     38  H   UNL     1      30.468 -20.544 -19.624  0.00  0.00    +0.144 HD
ATOM     39  H   UNL     1      31.917 -20.009 -20.344  0.00  0.00    +0.144 HD
ENDBRANCH  24  29
ENDBRANCH  22  24
ENDBRANCH   1  22
TORSDOF 11
ENDMDL
MODEL 9
REMARK VINA RESULT:     -10.0      2.585     10.994
REMARK  Name = 158376
REMARK  11 active torsions:
REMARK  status: ('A' for Active; 'I' for Inactive)
REMARK    1  A    between atoms: C_1  and  N_22
REMARK    2  A    between atoms: C_2  and  C_9
REMARK    3  A    between atoms: N_8  and  CA_11
REMARK    4  A    between atoms: CA_11  and  C_13
REMARK    5  A    between atoms: CA_11  and  CB_16
REMARK    6  A    between atoms: C_13  and  O_14
REMARK    7  A    between atoms: CB_16  and  CG_17
REMARK    8  A    between atoms: CG_17  and  CD_19
REMARK    9  A    between atoms: CD_19  and  OE1_20
REMARK   10  A    between atoms: N_22  and  C_24
REMARK   11  A    between atoms: C_24  and  C_29
REMARK                            x       y       z     vdW  Elec       q    Type
REMARK                         _______ _______ _______ _____ _____    ______ ____
ROOT
ATOM      1  C   UNL     1      33.303 -21.160 -19.081  0.00  0.00    +0.048 C 
ATOM      2  C   UNL     1      34.366 -19.050 -20.565  0.00  0.00    +0.053 C 
ATOM      3  C   UNL     1      34.682 -20.943 -19.095  0.00  0.00    +0.015 C 
ATOM      4  C   UNL     1      32.457 -20.323 -19.808  0.00  0.00    +0.015 C 
ATOM      5  C   UNL     1      35.212 -19.887 -19.837  0.00  0.00    +0.006 C 
ATOM      6  C   UNL     1      32.989 -19.268 -20.550  0.00  0.00    +0.006 C 
ENDROOT
BRANCH   2   9
ATOM      7  O   UNL     1      36.105 -17.976 -21.714  0.00  0.00    -0.270 OA
ATOM      8  N   UNL     1      34.056 -16.890 -21.650  0.00  0.00    -0.293 N 
ATOM      9  C   ACE A   0      34.932 -17.926 -21.354  0.00  0.00    +0.246 C 
ATOM     10  H   UNL     1      33.132 -16.940 -21.315  0.00  0.00    +0.150 HD
BRANCH   8  11
ATOM     11  CA  UNL     1      34.449 -15.742 -22.428  0.00  0.00    +0.172 C 
BRANCH  11  13
ATOM     12  OXT UNL     1      33.067 -14.537 -20.825  0.00  0.00    -0.248 OA
ATOM     13  C   UNL     1      33.789 -14.524 -21.814  0.00  0.00    +0.332 C 
BRANCH  13  14
ATOM     14  O   UNL     1      34.121 -13.382 -22.470  0.00  0.00    -0.479 OA
ATOM     15  H   UNL     1      33.959 -12.550 -22.073  0.00  0.00    +0.295 HD
ENDBRANCH  13  14
ENDBRANCH  11  13
BRANCH  11  16
ATOM     16  CB  UNL     1      34.161 -15.913 -23.924  0.00  0.00    +0.043 C 
BRANCH  16  17
ATOM     17  CG  UNL     1      32.680 -15.926 -24.322  0.00  0.00    +0.112 C 
BRANCH  17  19
ATOM     18  OE2 UNL     1      32.592 -13.592 -25.017  0.00  0.00    -0.250 OA
ATOM     19  CD  UNL     1      32.274 -14.760 -25.197  0.00  0.00    +0.314 C 
BRANCH  19  20
ATOM     20  OE1 UNL     1      31.460 -15.155 -26.211  0.00  0.00    -0.480 OA
ATOM     21  HE1 UNL     1      31.341 -14.601 -26.958  0.00  0.00    +0.295 HD
ENDBRANCH  19  20
ENDBRANCH  17  19
ENDBRANCH  16  17
ENDBRANCH  11  16
ENDBRANCH   8  11
ENDBRANCH   2   9
BRANCH   1  22
ATOM     22  N   UNL     1      32.766 -22.226 -18.331  0.00  0.00    -0.302 N 
ATOM     23  C   UNL     1      33.180 -23.590 -18.592  0.00  0.00    +0.112 C 
BRANCH  22  24
ATOM     24  C   UNL     1      31.803 -21.970 -17.277  0.00  0.00    +0.118 C 
BRANCH  24  29
ATOM     25  O   UNL     1      33.252 -23.484 -14.232  0.00  0.00    -0.427 OA
ATOM     26  N   UNL     1      31.448 -24.123 -12.804  0.00  0.00    -0.294 NA
ATOM     27  N   UNL     1      29.247 -23.620 -13.716  0.00  0.00    -0.317 NA
ATOM     28  N   UNL     1      29.496 -24.638 -11.623  0.00  0.00    -0.283 N 
ATOM     29  C   UNL     1      32.098 -22.616 -15.958  0.00  0.00    +0.031 C 
ATOM     30  C   UNL     1      31.170 -23.061 -14.986  0.00  0.00    +0.180 C 
ATOM     31  C   UNL     1      31.924 -23.587 -13.941  0.00  0.00    +0.281 C 
ATOM     32  C   UNL     1      33.346 -22.897 -15.453  0.00  0.00    +0.176 C 
ATOM     33  C   UNL     1      29.785 -23.092 -14.839  0.00  0.00    +0.181 C 
ATOM     34  C   UNL     1      30.100 -24.096 -12.781  0.00  0.00    +0.200 C 
ATOM     35  H   UNL     1      30.057 -25.003 -10.901  0.00  0.00    +0.156 HD
ATOM     36  H   UNL     1      28.515 -24.651 -11.540  0.00  0.00    +0.156 HD
ATOM     37  N   UNL     1      28.938 -22.585 -15.842  0.00  0.00    -0.335 N 
ATOM     38  H   UNL     1      27.962 -22.615 -15.723  0.00  0.00    +0.144 HD
ATOM     39  H   UNL     1      29.322 -22.200 -16.663  0.00  0.00    +0.144 HD
ENDBRANCH  24  29
ENDBRANCH  22  24
ENDBRANCH   1  22
TORSDOF 11
ENDMDL
