MODEL 1
REMARK VINA RESULT:     -12.1      0.000      0.000
REMARK  Name = 16040289
REMARK  6 active torsions:
REMARK  status: ('A' for Active; 'I' for Inactive)
REMARK    1  A    between atoms: N_2  and  C_20
REMARK    2  A    between atoms: C_3  and  C_6
REMARK    3  A    between atoms: N_11  and  C_13
REMARK    4  A    between atoms: C_13  and  C_15
REMARK    5  A    between atoms: C_23  and  O_26
REMARK    6  A    between atoms: O_26  and  C_27
REMARK                            x       y       z     vdW  Elec       q    Type
REMARK                         _______ _______ _______ _____ _____    ______ ____
ROOT
ATOM      1  O   UNL     1      33.409 -23.310 -16.472  0.00  0.00    -0.270 OA
ATOM      2  N   UNL     1      31.863 -21.757 -17.323  0.00  0.00    -0.280 N 
ATOM      3  C   UNL     1      32.311 -22.763 -16.459  0.00  0.00    +0.252 C 
ATOM      4  H   UNL     1      30.947 -21.431 -17.168  0.00  0.00    +0.155 HD
ENDROOT
BRANCH   3   6
ATOM      5  N   UNL     1      30.835 -24.010 -13.241  0.00  0.00    -0.229 NA
ATOM      6  C   UNL     1      31.325 -23.218 -15.444  0.00  0.00    +0.085 C 
ATOM      7  C   UNL     1      31.710 -23.591 -14.183  0.00  0.00    +0.133 C 
ATOM      8  C   UNL     1      29.997 -23.258 -15.799  0.00  0.00    +0.009 C 
ATOM      9  C   UNL     1      29.066 -23.683 -14.857  0.00  0.00    +0.021 C 
ATOM     10  C   UNL     1      29.532 -24.045 -13.603  0.00  0.00    +0.100 C 
ATOM     11  N   UNL     1      33.082 -23.543 -13.834  0.00  0.00    -0.314 N 
ATOM     12  H   UNL     1      33.731 -23.239 -14.509  0.00  0.00    +0.149 HD
BRANCH  11  13
ATOM     13  C   UNL     1      33.561 -23.915 -12.543  0.00  0.00    +0.115 C 
BRANCH  13  15
ATOM     14  N   UNL     1      37.262 -26.052 -12.873  0.00  0.00    -0.242 NA
ATOM     15  C   UNL     1      34.860 -24.666 -12.659  0.00  0.00    +0.000 C 
ATOM     16  C   UNL     1      35.266 -25.146 -13.892  0.00  0.00    +0.018 C 
ATOM     17  C   UNL     1      35.636 -24.868 -11.531  0.00  0.00    +0.018 C 
ATOM     18  C   UNL     1      36.469 -25.830 -13.946  0.00  0.00    +0.099 C 
ATOM     19  C   UNL     1      36.824 -25.564 -11.691  0.00  0.00    +0.099 C 
ENDBRANCH  13  15
ENDBRANCH  11  13
ENDBRANCH   3   6
BRANCH   2  20
ATOM     20  C   UNL     1      32.554 -21.159 -18.377  0.00  0.00    +0.051 C 
ATOM     21  C   UNL     1      33.937 -21.305 -18.477  0.00  0.00    +0.018 C 
ATOM     22  C   UNL     1      31.860 -20.413 -19.331  0.00  0.00    +0.018 C 
ATOM     23  C   UNL     1      33.935 -19.962 -20.486  0.00  0.00    +0.145 C 
ATOM     24  C   UNL     1      34.628 -20.707 -19.533  0.00  0.00    +0.039 C 
ATOM     25  C   UNL     1      32.551 -19.815 -20.386  0.00  0.00    +0.039 C 
BRANCH  23  26
ATOM     26  O   UNL     1      34.608 -19.376 -21.513  0.00  0.00    -0.453 OA
BRANCH  26  27
ATOM     27  C   UNL     1      34.342 -18.045 -21.782  0.00  0.00    +0.145 C 
ATOM     28  C   UNL     1      34.020 -17.669 -23.075  0.00  0.00    +0.037 C 
ATOM     29  C   UNL     1      34.405 -17.123 -20.752  0.00  0.00    +0.037 C 
ATOM     30  C   UNL     1      33.754 -16.327 -23.345  0.00  0.00    +0.003 C 
ATOM     31  C   UNL     1      34.138 -15.781 -21.023  0.00  0.00    +0.003 C 
ATOM     32  C   UNL     1      33.813 -15.384 -22.320  0.00  0.00    +0.000 C 
ENDBRANCH  26  27
ENDBRANCH  23  26
ENDBRANCH   2  20
TORSDOF 6
ENDMDL
MODEL 2
REMARK VINA RESULT:     -11.3      1.538      4.790
REMARK  Name = 16040289
REMARK  6 active torsions:
REMARK  status: ('A' for Active; 'I' for Inactive)
REMARK    1  A    between atoms: N_2  and  C_20
REMARK    2  A    between atoms: C_3  and  C_6
REMARK    3  A    between atoms: N_11  and  C_13
REMARK    4  A    between atoms: C_13  and  C_15
REMARK    5  A    between atoms: C_23  and  O_26
REMARK    6  A    between atoms: O_26  and  C_27
REMARK                            x       y       z     vdW  Elec       q    Type
REMARK                         _______ _______ _______ _____ _____    ______ ____
ROOT
ATOM      1  O   UNL     1      32.694 -23.649 -17.058  0.00  0.00    -0.270 OA
ATOM      2  N   UNL     1      34.160 -21.827 -16.813  0.00  0.00    -0.280 N 
ATOM      3  C   UNL     1      33.462 -22.965 -16.389  0.00  0.00    +0.252 C 
ATOM      4  H   UNL     1      34.736 -21.399 -16.138  0.00  0.00    +0.155 HD
ENDROOT
BRANCH   3   6
ATOM      5  N   UNL     1      32.795 -23.719 -12.773  0.00  0.00    -0.229 NA
ATOM      6  C   UNL     1      33.669 -23.348 -14.968  0.00  0.00    +0.085 C 
ATOM      7  C   UNL     1      32.634 -23.375 -14.071  0.00  0.00    +0.133 C 
ATOM      8  C   UNL     1      34.941 -23.681 -14.563  0.00  0.00    +0.009 C 
ATOM      9  C   UNL     1      35.146 -24.041 -13.235  0.00  0.00    +0.021 C 
ATOM     10  C   UNL     1      34.049 -24.044 -12.388  0.00  0.00    +0.100 C 
ATOM     11  N   UNL     1      31.330 -23.030 -14.506  0.00  0.00    -0.314 N 
ATOM     12  H   UNL     1      31.198 -22.779 -15.449  0.00  0.00    +0.149 HD
BRANCH  11  13
ATOM     13  C   UNL     1      30.202 -23.034 -13.634  0.00  0.00    +0.115 C 
BRANCH  13  15
ATOM     14  N   UNL     1      26.561 -23.140 -15.893  0.00  0.00    -0.242 NA
ATOM     15  C   UNL     1      28.924 -23.071 -14.426  0.00  0.00    +0.000 C 
ATOM     16  C   UNL     1      28.075 -21.978 -14.410  0.00  0.00    +0.018 C 
ATOM     17  C   UNL     1      28.609 -24.199 -15.164  0.00  0.00    +0.018 C 
ATOM     18  C   UNL     1      26.912 -22.062 -15.156  0.00  0.00    +0.099 C 
ATOM     19  C   UNL     1      27.421 -24.183 -15.878  0.00  0.00    +0.099 C 
ENDBRANCH  13  15
ENDBRANCH  11  13
ENDBRANCH   3   6
BRANCH   2  20
ATOM     20  C   UNL     1      34.140 -21.225 -18.071  0.00  0.00    +0.051 C 
ATOM     21  C   UNL     1      32.922 -20.932 -18.685  0.00  0.00    +0.018 C 
ATOM     22  C   UNL     1      35.339 -20.918 -18.715  0.00  0.00    +0.018 C 
ATOM     23  C   UNL     1      34.101 -20.022 -20.588  0.00  0.00    +0.145 C 
ATOM     24  C   UNL     1      32.904 -20.330 -19.944  0.00  0.00    +0.039 C 
ATOM     25  C   UNL     1      35.319 -20.316 -19.974  0.00  0.00    +0.039 C 
BRANCH  23  26
ATOM     26  O   UNL     1      34.083 -19.437 -21.816  0.00  0.00    -0.453 OA
BRANCH  26  27
ATOM     27  C   UNL     1      34.067 -18.054 -21.871  0.00  0.00    +0.145 C 
ATOM     28  C   UNL     1      34.173 -17.332 -20.694  0.00  0.00    +0.037 C 
ATOM     29  C   UNL     1      33.944 -17.429 -23.098  0.00  0.00    +0.037 C 
ATOM     30  C   UNL     1      34.155 -15.938 -20.749  0.00  0.00    +0.003 C 
ATOM     31  C   UNL     1      33.927 -16.035 -23.153  0.00  0.00    +0.003 C 
ATOM     32  C   UNL     1      34.032 -15.290 -21.978  0.00  0.00    +0.000 C 
ENDBRANCH  26  27
ENDBRANCH  23  26
ENDBRANCH   2  20
TORSDOF 6
ENDMDL
MODEL 3
REMARK VINA RESULT:     -10.9      1.969      4.717
REMARK  Name = 16040289
REMARK  6 active torsions:
REMARK  status: ('A' for Active; 'I' for Inactive)
REMARK    1  A    between atoms: N_2  and  C_20
REMARK    2  A    between atoms: C_3  and  C_6
REMARK    3  A    between atoms: N_11  and  C_13
REMARK    4  A    between atoms: C_13  and  C_15
REMARK    5  A    between atoms: C_23  and  O_26
REMARK    6  A    between atoms: O_26  and  C_27
REMARK                            x       y       z     vdW  Elec       q    Type
REMARK                         _______ _______ _______ _____ _____    ______ ____
ROOT
ATOM      1  O   UNL     1      35.812 -24.495 -14.825  0.00  0.00    -0.270 OA
ATOM      2  N   UNL     1      34.572 -22.497 -14.793  0.00  0.00    -0.280 N 
ATOM      3  C   UNL     1      35.212 -23.607 -14.227  0.00  0.00    +0.252 C 
ATOM      4  H   UNL     1      34.137 -21.881 -14.159  0.00  0.00    +0.155 HD
ENDROOT
BRANCH   3   6
ATOM      5  N   UNL     1      33.840 -24.164 -10.778  0.00  0.00    -0.229 NA
ATOM      6  C   UNL     1      35.120 -23.712 -12.748  0.00  0.00    +0.085 C 
ATOM      7  C   UNL     1      33.953 -24.062 -12.122  0.00  0.00    +0.133 C 
ATOM      8  C   UNL     1      36.247 -23.445 -12.004  0.00  0.00    +0.009 C 
ATOM      9  C   UNL     1      36.171 -23.540 -10.619  0.00  0.00    +0.021 C 
ATOM     10  C   UNL     1      34.954 -23.899 -10.060  0.00  0.00    +0.100 C 
ATOM     11  N   UNL     1      32.802 -24.334 -12.903  0.00  0.00    -0.314 N 
ATOM     12  H   UNL     1      32.869 -24.265 -13.883  0.00  0.00    +0.149 HD
BRANCH  11  13
ATOM     13  C   UNL     1      31.551 -24.704 -12.327  0.00  0.00    +0.115 C 
BRANCH  13  15
ATOM     14  N   UNL     1      28.308 -23.256 -14.725  0.00  0.00    -0.242 NA
ATOM     15  C   UNL     1      30.412 -24.197 -13.169  0.00  0.00    +0.000 C 
ATOM     16  C   UNL     1      29.395 -25.059 -13.539  0.00  0.00    +0.018 C 
ATOM     17  C   UNL     1      30.393 -22.870 -13.566  0.00  0.00    +0.018 C 
ATOM     18  C   UNL     1      28.371 -24.543 -14.314  0.00  0.00    +0.099 C 
ATOM     19  C   UNL     1      29.322 -22.451 -14.339  0.00  0.00    +0.099 C 
ENDBRANCH  13  15
ENDBRANCH  11  13
ENDBRANCH   3   6
BRANCH   2  20
ATOM     20  C   UNL     1      34.473 -22.157 -16.142  0.00  0.00    +0.051 C 
ATOM     21  C   UNL     1      35.567 -21.599 -16.803  0.00  0.00    +0.018 C 
ATOM     22  C   UNL     1      33.279 -22.374 -16.829  0.00  0.00    +0.018 C 
ATOM     23  C   UNL     1      34.274 -21.476 -18.840  0.00  0.00    +0.145 C 
ATOM     24  C   UNL     1      35.468 -21.259 -18.152  0.00  0.00    +0.039 C 
ATOM     25  C   UNL     1      33.180 -22.034 -18.179  0.00  0.00    +0.039 C 
BRANCH  23  26
ATOM     26  O   UNL     1      34.176 -21.142 -20.156  0.00  0.00    -0.453 OA
BRANCH  26  27
ATOM     27  C   UNL     1      34.530 -19.855 -20.522  0.00  0.00    +0.145 C 
ATOM     28  C   UNL     1      33.619 -19.077 -21.214  0.00  0.00    +0.037 C 
ATOM     29  C   UNL     1      35.785 -19.379 -20.187  0.00  0.00    +0.037 C 
ATOM     30  C   UNL     1      33.976 -17.780 -21.584  0.00  0.00    +0.003 C 
ATOM     31  C   UNL     1      36.142 -18.082 -20.557  0.00  0.00    +0.003 C 
ATOM     32  C   UNL     1      35.237 -17.283 -21.255  0.00  0.00    +0.000 C 
ENDBRANCH  26  27
ENDBRANCH  23  26
ENDBRANCH   2  20
TORSDOF 6
ENDMDL
MODEL 4
REMARK VINA RESULT:     -10.8      1.667      4.560
REMARK  Name = 16040289
REMARK  6 active torsions:
REMARK  status: ('A' for Active; 'I' for Inactive)
REMARK    1  A    between atoms: N_2  and  C_20
REMARK    2  A    between atoms: C_3  and  C_6
REMARK    3  A    between atoms: N_11  and  C_13
REMARK    4  A    between atoms: C_13  and  C_15
REMARK    5  A    between atoms: C_23  and  O_26
REMARK    6  A    between atoms: O_26  and  C_27
REMARK                            x       y       z     vdW  Elec       q    Type
REMARK                         _______ _______ _______ _____ _____    ______ ____
ROOT
ATOM      1  O   UNL     1      36.179 -21.271 -15.377  0.00  0.00    -0.270 OA
ATOM      2  N   UNL     1      34.538 -22.715 -16.242  0.00  0.00    -0.280 N 
ATOM      3  C   UNL     1      35.549 -22.323 -15.356  0.00  0.00    +0.252 C 
ATOM      4  H   UNL     1      34.138 -23.599 -16.076  0.00  0.00    +0.155 HD
ENDROOT
BRANCH   3   6
ATOM      5  N   UNL     1      35.248 -24.668 -12.441  0.00  0.00    -0.229 NA
ATOM      6  C   UNL     1      35.894 -23.313 -14.303  0.00  0.00    +0.085 C 
ATOM      7  C   UNL     1      34.961 -23.768 -13.409  0.00  0.00    +0.133 C 
ATOM      8  C   UNL     1      37.189 -23.773 -14.242  0.00  0.00    +0.009 C 
ATOM      9  C   UNL     1      37.523 -24.700 -13.260  0.00  0.00    +0.021 C 
ATOM     10  C   UNL     1      36.524 -25.112 -12.391  0.00  0.00    +0.100 C 
ATOM     11  N   UNL     1      33.631 -23.284 -13.487  0.00  0.00    -0.314 N 
ATOM     12  H   UNL     1      33.408 -22.630 -14.188  0.00  0.00    +0.149 HD
BRANCH  11  13
ATOM     13  C   UNL     1      32.604 -23.709 -12.593  0.00  0.00    +0.115 C 
BRANCH  13  15
ATOM     14  N   UNL     1      28.814 -23.787 -14.593  0.00  0.00    -0.242 NA
ATOM     15  C   UNL     1      31.274 -23.737 -13.295  0.00  0.00    +0.000 C 
ATOM     16  C   UNL     1      30.336 -24.693 -12.948  0.00  0.00    +0.018 C 
ATOM     17  C   UNL     1      31.001 -22.805 -14.281  0.00  0.00    +0.018 C 
ATOM     18  C   UNL     1      29.127 -24.676 -13.623  0.00  0.00    +0.099 C 
ATOM     19  C   UNL     1      29.761 -22.872 -14.897  0.00  0.00    +0.099 C 
ENDBRANCH  13  15
ENDBRANCH  11  13
ENDBRANCH   3   6
BRANCH   2  20
ATOM     20  C   UNL     1      34.028 -22.009 -17.332  0.00  0.00    +0.051 C 
ATOM     21  C   UNL     1      32.649 -21.898 -17.509  0.00  0.00    +0.018 C 
ATOM     22  C   UNL     1      34.899 -21.413 -18.245  0.00  0.00    +0.018 C 
ATOM     23  C   UNL     1      33.010 -20.596 -19.512  0.00  0.00    +0.145 C 
ATOM     24  C   UNL     1      32.140 -21.191 -18.599  0.00  0.00    +0.039 C 
ATOM     25  C   UNL     1      34.389 -20.706 -19.335  0.00  0.00    +0.039 C 
BRANCH  23  26
ATOM     26  O   UNL     1      32.514 -19.908 -20.576  0.00  0.00    -0.453 OA
BRANCH  26  27
ATOM     27  C   UNL     1      33.350 -19.000 -21.203  0.00  0.00    +0.145 C 
ATOM     28  C   UNL     1      34.065 -18.100 -20.433  0.00  0.00    +0.037 C 
ATOM     29  C   UNL     1      33.449 -19.015 -22.582  0.00  0.00    +0.037 C 
ATOM     30  C   UNL     1      34.907 -17.184 -21.065  0.00  0.00    +0.003 C 
ATOM     31  C   UNL     1      34.291 -18.100 -23.214  0.00  0.00    +0.003 C 
ATOM     32  C   UNL     1      35.019 -17.185 -22.455  0.00  0.00    +0.000 C 
ENDBRANCH  26  27
ENDBRANCH  23  26
ENDBRANCH   2  20
TORSDOF 6
ENDMDL
MODEL 5
REMARK VINA RESULT:     -10.7      2.157      4.725
REMARK  Name = 16040289
REMARK  6 active torsions:
REMARK  status: ('A' for Active; 'I' for Inactive)
REMARK    1  A    between atoms: N_2  and  C_20
REMARK    2  A    between atoms: C_3  and  C_6
REMARK    3  A    between atoms: N_11  and  C_13
REMARK    4  A    between atoms: C_13  and  C_15
REMARK    5  A    between atoms: C_23  and  O_26
REMARK    6  A    between atoms: O_26  and  C_27
REMARK                            x       y       z     vdW  Elec       q    Type
REMARK                         _______ _______ _______ _____ _____    ______ ____
ROOT
ATOM      1  O   UNL     1      33.221 -21.437 -18.246  0.00  0.00    -0.270 OA
ATOM      2  N   UNL     1      35.287 -20.425 -18.732  0.00  0.00    -0.280 N 
ATOM      3  C   UNL     1      34.404 -21.227 -17.998  0.00  0.00    +0.252 C 
ATOM      4  H   UNL     1      36.207 -20.369 -18.385  0.00  0.00    +0.155 HD
ENDROOT
BRANCH   3   6
ATOM      5  N   UNL     1      34.742 -23.307 -14.892  0.00  0.00    -0.229 NA
ATOM      6  C   UNL     1      34.976 -21.859 -16.781  0.00  0.00    +0.085 C 
ATOM      7  C   UNL     1      34.247 -22.720 -16.005  0.00  0.00    +0.133 C 
ATOM      8  C   UNL     1      36.275 -21.557 -16.441  0.00  0.00    +0.009 C 
ATOM      9  C   UNL     1      36.821 -22.142 -15.303  0.00  0.00    +0.021 C 
ATOM     10  C   UNL     1      36.019 -23.002 -14.569  0.00  0.00    +0.100 C 
ATOM     11  N   UNL     1      32.911 -23.020 -16.370  0.00  0.00    -0.314 N 
ATOM     12  H   UNL     1      32.537 -22.601 -17.179  0.00  0.00    +0.149 HD
BRANCH  11  13
ATOM     13  C   UNL     1      32.087 -23.906 -15.615  0.00  0.00    +0.115 C 
BRANCH  13  15
ATOM     14  N   UNL     1      28.521 -21.908 -14.325  0.00  0.00    -0.242 NA
ATOM     15  C   UNL     1      30.835 -23.204 -15.163  0.00  0.00    +0.000 C 
ATOM     16  C   UNL     1      29.802 -22.999 -16.060  0.00  0.00    +0.018 C 
ATOM     17  C   UNL     1      30.729 -22.771 -13.852  0.00  0.00    +0.018 C 
ATOM     18  C   UNL     1      28.672 -22.349 -15.595  0.00  0.00    +0.099 C 
ATOM     19  C   UNL     1      29.556 -22.131 -13.485  0.00  0.00    +0.099 C 
ENDBRANCH  13  15
ENDBRANCH  11  13
ENDBRANCH   3   6
BRANCH   2  20
ATOM     20  C   UNL     1      35.025 -19.697 -19.892  0.00  0.00    +0.051 C 
ATOM     21  C   UNL     1      36.028 -18.918 -20.469  0.00  0.00    +0.018 C 
ATOM     22  C   UNL     1      33.758 -19.746 -20.474  0.00  0.00    +0.018 C 
ATOM     23  C   UNL     1      34.499 -18.238 -22.212  0.00  0.00    +0.145 C 
ATOM     24  C   UNL     1      35.765 -18.190 -21.629  0.00  0.00    +0.039 C 
ATOM     25  C   UNL     1      33.495 -19.017 -21.635  0.00  0.00    +0.039 C 
BRANCH  23  26
ATOM     26  O   UNL     1      34.241 -17.526 -23.342  0.00  0.00    -0.453 OA
BRANCH  26  27
ATOM     27  C   UNL     1      33.775 -16.231 -23.195  0.00  0.00    +0.145 C 
ATOM     28  C   UNL     1      33.083 -15.642 -24.239  0.00  0.00    +0.037 C 
ATOM     29  C   UNL     1      34.011 -15.559 -22.010  0.00  0.00    +0.037 C 
ATOM     30  C   UNL     1      32.614 -14.336 -24.092  0.00  0.00    +0.003 C 
ATOM     31  C   UNL     1      33.542 -14.254 -21.862  0.00  0.00    +0.003 C 
ATOM     32  C   UNL     1      32.843 -13.643 -22.903  0.00  0.00    +0.000 C 
ENDBRANCH  26  27
ENDBRANCH  23  26
ENDBRANCH   2  20
TORSDOF 6
ENDMDL
MODEL 6
REMARK VINA RESULT:     -10.2      5.958     13.112
REMARK  Name = 16040289
REMARK  6 active torsions:
REMARK  status: ('A' for Active; 'I' for Inactive)
REMARK    1  A    between atoms: N_2  and  C_20
REMARK    2  A    between atoms: C_3  and  C_6
REMARK    3  A    between atoms: N_11  and  C_13
REMARK    4  A    between atoms: C_13  and  C_15
REMARK    5  A    between atoms: C_23  and  O_26
REMARK    6  A    between atoms: O_26  and  C_27
REMARK                            x       y       z     vdW  Elec       q    Type
REMARK                         _______ _______ _______ _____ _____    ______ ____
ROOT
ATOM      1  O   UNL     1      33.762 -13.472 -22.228  0.00  0.00    -0.270 OA
ATOM      2  N   UNL     1      33.398 -15.455 -23.438  0.00  0.00    -0.280 N 
ATOM      3  C   UNL     1      33.359 -14.072 -23.219  0.00  0.00    +0.252 C 
ATOM      4  H   UNL     1      33.027 -15.766 -24.296  0.00  0.00    +0.155 HD
ENDROOT
BRANCH   3   6
ATOM      5  N   UNL     1      32.328 -11.159 -25.350  0.00  0.00    -0.229 NA
ATOM      6  C   UNL     1      32.735 -13.271 -24.305  0.00  0.00    +0.085 C 
ATOM      7  C   UNL     1      32.885 -11.911 -24.375  0.00  0.00    +0.133 C 
ATOM      8  C   UNL     1      31.991 -13.932 -25.255  0.00  0.00    +0.009 C 
ATOM      9  C   UNL     1      31.402 -13.192 -26.275  0.00  0.00    +0.021 C 
ATOM     10  C   UNL     1      31.599 -11.820 -26.277  0.00  0.00    +0.100 C 
ATOM     11  N   UNL     1      33.656 -11.248 -23.388  0.00  0.00    -0.314 N 
ATOM     12  H   UNL     1      34.069 -11.783 -22.672  0.00  0.00    +0.149 HD
BRANCH  11  13
ATOM     13  C   UNL     1      33.859  -9.836 -23.391  0.00  0.00    +0.115 C 
BRANCH  13  15
ATOM     14  N   UNL     1      30.313  -7.806 -22.098  0.00  0.00    -0.242 NA
ATOM     15  C   UNL     1      32.614  -9.124 -22.937  0.00  0.00    +0.000 C 
ATOM     16  C   UNL     1      31.895  -9.618 -21.862  0.00  0.00    +0.018 C 
ATOM     17  C   UNL     1      32.199  -7.981 -23.599  0.00  0.00    +0.018 C 
ATOM     18  C   UNL     1      30.757  -8.926 -21.483  0.00  0.00    +0.099 C 
ATOM     19  C   UNL     1      31.047  -7.361 -23.141  0.00  0.00    +0.099 C 
ENDBRANCH  13  15
ENDBRANCH  11  13
ENDBRANCH   3   6
BRANCH   2  20
ATOM     20  C   UNL     1      33.896 -16.445 -22.592  0.00  0.00    +0.051 C 
ATOM     21  C   UNL     1      34.141 -17.726 -23.086  0.00  0.00    +0.018 C 
ATOM     22  C   UNL     1      34.149 -16.153 -21.251  0.00  0.00    +0.018 C 
ATOM     23  C   UNL     1      34.893 -18.426 -20.898  0.00  0.00    +0.145 C 
ATOM     24  C   UNL     1      34.640 -18.717 -22.238  0.00  0.00    +0.039 C 
ATOM     25  C   UNL     1      34.648 -17.144 -20.404  0.00  0.00    +0.039 C 
BRANCH  23  26
ATOM     26  O   UNL     1      35.377 -19.392 -20.072  0.00  0.00    -0.453 OA
BRANCH  26  27
ATOM     27  C   UNL     1      34.463 -20.225 -19.450  0.00  0.00    +0.145 C 
ATOM     28  C   UNL     1      34.921 -21.186 -18.564  0.00  0.00    +0.037 C 
ATOM     29  C   UNL     1      33.117 -20.077 -19.729  0.00  0.00    +0.037 C 
ATOM     30  C   UNL     1      33.999 -22.026 -17.938  0.00  0.00    +0.003 C 
ATOM     31  C   UNL     1      32.195 -20.918 -19.103  0.00  0.00    +0.003 C 
ATOM     32  C   UNL     1      32.638 -21.891 -18.208  0.00  0.00    +0.000 C 
ENDBRANCH  26  27
ENDBRANCH  23  26
ENDBRANCH   2  20
TORSDOF 6
ENDMDL
MODEL 7
REMARK VINA RESULT:     -10.1      3.697     10.619
REMARK  Name = 16040289
REMARK  6 active torsions:
REMARK  status: ('A' for Active; 'I' for Inactive)
REMARK    1  A    between atoms: N_2  and  C_20
REMARK    2  A    between atoms: C_3  and  C_6
REMARK    3  A    between atoms: N_11  and  C_13
REMARK    4  A    between atoms: C_13  and  C_15
REMARK    5  A    between atoms: C_23  and  O_26
REMARK    6  A    between atoms: O_26  and  C_27
REMARK                            x       y       z     vdW  Elec       q    Type
REMARK                         _______ _______ _______ _____ _____    ______ ____
ROOT
ATOM      1  O   UNL     1      34.937 -17.716 -20.179  0.00  0.00    -0.270 OA
ATOM      2  N   UNL     1      33.453 -19.425 -20.812  0.00  0.00    -0.280 N 
ATOM      3  C   UNL     1      34.152 -18.223 -20.974  0.00  0.00    +0.252 C 
ATOM      4  H   UNL     1      32.861 -19.683 -21.556  0.00  0.00    +0.155 HD
ENDROOT
BRANCH   3   6
ATOM      5  N   UNL     1      33.658 -15.430 -23.431  0.00  0.00    -0.229 NA
ATOM      6  C   UNL     1      33.878 -17.490 -22.237  0.00  0.00    +0.085 C 
ATOM      7  C   UNL     1      33.905 -16.121 -22.296  0.00  0.00    +0.133 C 
ATOM      8  C   UNL     1      33.591 -18.223 -23.366  0.00  0.00    +0.009 C 
ATOM      9  C   UNL     1      33.332 -17.547 -24.553  0.00  0.00    +0.021 C 
ATOM     10  C   UNL     1      33.377 -16.161 -24.533  0.00  0.00    +0.100 C 
ATOM     11  N   UNL     1      34.203 -15.383 -21.124  0.00  0.00    -0.314 N 
ATOM     12  H   UNL     1      34.386 -15.873 -20.290  0.00  0.00    +0.149 HD
BRANCH  11  13
ATOM     13  C   UNL     1      34.250 -13.957 -21.105  0.00  0.00    +0.115 C 
BRANCH  13  15
ATOM     14  N   UNL     1      30.410 -12.346 -20.091  0.00  0.00    -0.242 NA
ATOM     15  C   UNL     1      32.903 -13.391 -20.749  0.00  0.00    +0.000 C 
ATOM     16  C   UNL     1      32.352 -12.390 -21.530  0.00  0.00    +0.018 C 
ATOM     17  C   UNL     1      32.227 -13.878 -19.643  0.00  0.00    +0.018 C 
ATOM     18  C   UNL     1      31.109 -11.904 -21.160  0.00  0.00    +0.099 C 
ATOM     19  C   UNL     1      30.988 -13.324 -19.358  0.00  0.00    +0.099 C 
ENDBRANCH  13  15
ENDBRANCH  11  13
ENDBRANCH   3   6
BRANCH   2  20
ATOM     20  C   UNL     1      33.491 -20.303 -19.729  0.00  0.00    +0.051 C 
ATOM     21  C   UNL     1      32.303 -20.766 -19.164  0.00  0.00    +0.018 C 
ATOM     22  C   UNL     1      34.718 -20.717 -19.211  0.00  0.00    +0.018 C 
ATOM     23  C   UNL     1      33.568 -22.059 -17.562  0.00  0.00    +0.145 C 
ATOM     24  C   UNL     1      32.342 -21.645 -18.080  0.00  0.00    +0.039 C 
ATOM     25  C   UNL     1      34.756 -21.596 -18.127  0.00  0.00    +0.039 C 
BRANCH  23  26
ATOM     26  O   UNL     1      33.606 -22.914 -16.504  0.00  0.00    -0.453 OA
BRANCH  26  27
ATOM     27  C   UNL     1      32.528 -22.912 -15.635  0.00  0.00    +0.145 C 
ATOM     28  C   UNL     1      32.757 -23.047 -14.277  0.00  0.00    +0.037 C 
ATOM     29  C   UNL     1      31.250 -22.776 -16.147  0.00  0.00    +0.037 C 
ATOM     30  C   UNL     1      31.671 -23.046 -13.402  0.00  0.00    +0.003 C 
ATOM     31  C   UNL     1      30.164 -22.776 -15.271  0.00  0.00    +0.003 C 
ATOM     32  C   UNL     1      30.375 -22.910 -13.899  0.00  0.00    +0.000 C 
ENDBRANCH  26  27
ENDBRANCH  23  26
ENDBRANCH   2  20
TORSDOF 6
ENDMDL
MODEL 8
REMARK VINA RESULT:     -10.1      7.891     14.104
REMARK  Name = 16040289
REMARK  6 active torsions:
REMARK  status: ('A' for Active; 'I' for Inactive)
REMARK    1  A    between atoms: N_2  and  C_20
REMARK    2  A    between atoms: C_3  and  C_6
REMARK    3  A    between atoms: N_11  and  C_13
REMARK    4  A    between atoms: C_13  and  C_15
REMARK    5  A    between atoms: C_23  and  O_26
REMARK    6  A    between atoms: O_26  and  C_27
REMARK                            x       y       z     vdW  Elec       q    Type
REMARK                         _______ _______ _______ _____ _____    ______ ____
ROOT
ATOM      1  O   UNL     1      32.196 -11.486 -22.027  0.00  0.00    -0.270 OA
ATOM      2  N   UNL     1      33.570 -12.332 -23.737  0.00  0.00    -0.280 N 
ATOM      3  C   UNL     1      32.931 -11.330 -22.996  0.00  0.00    +0.252 C 
ATOM      4  H   UNL     1      34.127 -12.024 -24.488  0.00  0.00    +0.155 HD
ENDROOT
BRANCH   3   6
ATOM      5  N   UNL     1      32.514  -7.640 -23.543  0.00  0.00    -0.229 NA
ATOM      6  C   UNL     1      33.165  -9.940 -23.469  0.00  0.00    +0.085 C 
ATOM      7  C   UNL     1      32.327  -8.912 -23.126  0.00  0.00    +0.133 C 
ATOM      8  C   UNL     1      34.256  -9.700 -24.272  0.00  0.00    +0.009 C 
ATOM      9  C   UNL     1      34.483  -8.404 -24.721  0.00  0.00    +0.021 C 
ATOM     10  C   UNL     1      33.590  -7.418 -24.331  0.00  0.00    +0.100 C 
ATOM     11  N   UNL     1      31.208  -9.177 -22.297  0.00  0.00    -0.314 N 
ATOM     12  H   UNL     1      31.059 -10.099 -21.985  0.00  0.00    +0.149 HD
BRANCH  11  13
ATOM     13  C   UNL     1      30.290  -8.161 -21.896  0.00  0.00    +0.115 C 
BRANCH  13  15
ATOM     14  N   UNL     1      31.833  -5.982 -18.544  0.00  0.00    -0.242 NA
ATOM     15  C   UNL     1      30.831  -7.397 -20.719  0.00  0.00    +0.000 C 
ATOM     16  C   UNL     1      31.480  -8.075 -19.701  0.00  0.00    +0.018 C 
ATOM     17  C   UNL     1      30.676  -6.022 -20.666  0.00  0.00    +0.018 C 
ATOM     18  C   UNL     1      31.960  -7.325 -18.641  0.00  0.00    +0.099 C 
ATOM     19  C   UNL     1      31.193  -5.364 -19.561  0.00  0.00    +0.099 C 
ENDBRANCH  13  15
ENDBRANCH  11  13
ENDBRANCH   3   6
BRANCH   2  20
ATOM     20  C   UNL     1      33.514 -13.712 -23.543  0.00  0.00    +0.051 C 
ATOM     21  C   UNL     1      33.912 -14.262 -22.324  0.00  0.00    +0.018 C 
ATOM     22  C   UNL     1      33.060 -14.542 -24.568  0.00  0.00    +0.018 C 
ATOM     23  C   UNL     1      33.402 -16.473 -23.155  0.00  0.00    +0.145 C 
ATOM     24  C   UNL     1      33.855 -15.643 -22.131  0.00  0.00    +0.039 C 
ATOM     25  C   UNL     1      33.004 -15.923 -24.374  0.00  0.00    +0.039 C 
BRANCH  23  26
ATOM     26  O   UNL     1      33.349 -17.820 -22.967  0.00  0.00    -0.453 OA
BRANCH  26  27
ATOM     27  C   UNL     1      34.129 -18.360 -21.960  0.00  0.00    +0.145 C 
ATOM     28  C   UNL     1      35.470 -18.028 -21.894  0.00  0.00    +0.037 C 
ATOM     29  C   UNL     1      33.548 -19.220 -21.045  0.00  0.00    +0.037 C 
ATOM     30  C   UNL     1      36.257 -18.573 -20.879  0.00  0.00    +0.003 C 
ATOM     31  C   UNL     1      34.334 -19.766 -20.030  0.00  0.00    +0.003 C 
ATOM     32  C   UNL     1      35.688 -19.442 -19.947  0.00  0.00    +0.000 C 
ENDBRANCH  26  27
ENDBRANCH  23  26
ENDBRANCH   2  20
TORSDOF 6
ENDMDL
MODEL 9
REMARK VINA RESULT:     -10.0      1.947      4.646
REMARK  Name = 16040289
REMARK  6 active torsions:
REMARK  status: ('A' for Active; 'I' for Inactive)
REMARK    1  A    between atoms: N_2  and  C_20
REMARK    2  A    between atoms: C_3  and  C_6
REMARK    3  A    between atoms: N_11  and  C_13
REMARK    4  A    between atoms: C_13  and  C_15
REMARK    5  A    between atoms: C_23  and  O_26
REMARK    6  A    between atoms: O_26  and  C_27
REMARK                            x       y       z     vdW  Elec       q    Type
REMARK                         _______ _______ _______ _____ _____    ______ ____
ROOT
ATOM      1  O   UNL     1      36.415 -20.074 -16.447  0.00  0.00    -0.270 OA
ATOM      2  N   UNL     1      35.145 -21.253 -18.035  0.00  0.00    -0.280 N 
ATOM      3  C   UNL     1      35.803 -21.072 -16.812  0.00  0.00    +0.252 C 
ATOM      4  H   UNL     1      34.702 -22.124 -18.161  0.00  0.00    +0.155 HD
ENDROOT
BRANCH   3   6
ATOM      5  N   UNL     1      34.601 -24.112 -14.967  0.00  0.00    -0.229 NA
ATOM      6  C   UNL     1      35.763 -22.236 -15.888  0.00  0.00    +0.085 C 
ATOM      7  C   UNL     1      34.664 -23.048 -15.799  0.00  0.00    +0.133 C 
ATOM      8  C   UNL     1      36.870 -22.486 -15.109  0.00  0.00    +0.009 C 
ATOM      9  C   UNL     1      36.843 -23.572 -14.240  0.00  0.00    +0.021 C 
ATOM     10  C   UNL     1      35.694 -24.347 -14.207  0.00  0.00    +0.100 C 
ATOM     11  N   UNL     1      33.534 -22.776 -16.610  0.00  0.00    -0.314 N 
ATOM     12  H   UNL     1      33.566 -22.005 -17.222  0.00  0.00    +0.149 HD
BRANCH  11  13
ATOM     13  C   UNL     1      32.352 -23.574 -16.575  0.00  0.00    +0.115 C 
BRANCH  13  15
ATOM     14  N   UNL     1      29.684 -22.173 -13.528  0.00  0.00    -0.242 NA
ATOM     15  C   UNL     1      31.416 -23.083 -15.505  0.00  0.00    +0.000 C 
ATOM     16  C   UNL     1      31.833 -23.065 -14.186  0.00  0.00    +0.018 C 
ATOM     17  C   UNL     1      30.146 -22.654 -15.851  0.00  0.00    +0.018 C 
ATOM     18  C   UNL     1      30.934 -22.603 -13.239  0.00  0.00    +0.099 C 
ATOM     19  C   UNL     1      29.322 -22.209 -14.829  0.00  0.00    +0.099 C 
ENDBRANCH  13  15
ENDBRANCH  11  13
ENDBRANCH   3   6
BRANCH   2  20
ATOM     20  C   UNL     1      35.038 -20.353 -19.095  0.00  0.00    +0.051 C 
ATOM     21  C   UNL     1      33.818 -20.187 -19.750  0.00  0.00    +0.018 C 
ATOM     22  C   UNL     1      36.154 -19.620 -19.500  0.00  0.00    +0.018 C 
ATOM     23  C   UNL     1      34.827 -18.553 -21.217  0.00  0.00    +0.145 C 
ATOM     24  C   UNL     1      33.713 -19.287 -20.811  0.00  0.00    +0.039 C 
ATOM     25  C   UNL     1      36.048 -18.719 -20.561  0.00  0.00    +0.039 C 
BRANCH  23  26
ATOM     26  O   UNL     1      34.725 -17.677 -22.252  0.00  0.00    -0.453 OA
BRANCH  26  27
ATOM     27  C   UNL     1      34.271 -16.399 -21.972  0.00  0.00    +0.145 C 
ATOM     28  C   UNL     1      34.033 -16.042 -20.657  0.00  0.00    +0.037 C 
ATOM     29  C   UNL     1      34.066 -15.513 -23.014  0.00  0.00    +0.037 C 
ATOM     30  C   UNL     1      33.575 -14.755 -20.375  0.00  0.00    +0.003 C 
ATOM     31  C   UNL     1      33.607 -14.226 -22.732  0.00  0.00    +0.003 C 
ATOM     32  C   UNL     1      33.362 -13.848 -21.412  0.00  0.00    +0.000 C 
ENDBRANCH  26  27
ENDBRANCH  23  26
ENDBRANCH   2  20
TORSDOF 6
ENDMDL
