MODEL 1
REMARK VINA RESULT:     -11.9      0.000      0.000
REMARK  Name = 11677589
REMARK  7 active torsions:
REMARK  status: ('A' for Active; 'I' for Inactive)
REMARK    1  A    between atoms: C_1  and  N_7
REMARK    2  A    between atoms: C_2  and  C_20
REMARK    3  A    between atoms: C_11  and  C_18
REMARK    4  A    between atoms: C_20  and  C_21
REMARK    5  A    between atoms: C_21  and  N_23
REMARK    6  A    between atoms: N_24  and  S_28
REMARK    7  A    between atoms: S_28  and  C_31
REMARK                            x       y       z     vdW  Elec       q    Type
REMARK                         _______ _______ _______ _____ _____    ______ ____
ROOT
ATOM      1  C   UNL     1      31.694  -8.801 -22.023  0.00  0.00    +0.058 C 
ATOM      2  C   UNL     1      31.908 -11.553 -21.722  0.00  0.00    -0.020 C 
ATOM      3  C   UNL     1      30.892  -9.453 -21.095  0.00  0.00    +0.015 C 
ATOM      4  C   UNL     1      32.602  -9.507 -22.802  0.00  0.00    +0.015 C 
ATOM      5  C   UNL     1      30.999 -10.836 -20.945  0.00  0.00    -0.003 C 
ATOM      6  C   UNL     1      32.709 -10.889 -22.651  0.00  0.00    -0.003 C 
ENDROOT
BRANCH   1   7
ATOM      7  N   UNL     1      31.586  -7.418 -22.175  0.00  0.00    -0.242 N 
ATOM      8  N   UNL     1      31.543  -5.262 -21.635  0.00  0.00    -0.387 NA
ATOM      9  N   UNL     1      30.927  -4.837 -25.263  0.00  0.00    -0.408 NA
ATOM     10  C   UNL     1      31.355  -6.751 -23.350  0.00  0.00    +0.091 C 
ATOM     11  C   UNL     1      31.692  -6.486 -21.180  0.00  0.00    +0.168 C 
ATOM     12  C   UNL     1      31.333  -5.408 -22.986  0.00  0.00    +0.172 C 
ATOM     13  C   UNL     1      31.169  -7.187 -24.655  0.00  0.00    +0.045 C 
ATOM     14  C   UNL     1      31.113  -4.451 -23.977  0.00  0.00    +0.140 C 
ATOM     15  C   UNL     1      30.959  -6.159 -25.563  0.00  0.00    +0.110 C 
ATOM     16  C   UNL     1      31.069  -2.986 -23.700  0.00  0.00    +0.069 C 
ATOM     17  C   UNL     1      30.746  -6.510 -27.000  0.00  0.00    +0.066 C 
BRANCH  11  18
ATOM     18  C   UNL     1      31.943  -6.850 -19.769  0.00  0.00    +0.075 C 
ATOM     19  C   UNL     1      31.530  -5.745 -18.791  0.00  0.00    +0.009 C 
ENDBRANCH  11  18
ENDBRANCH   1   7
BRANCH   2  20
ATOM     20  C   UNL     1      32.023 -13.032 -21.561  0.00  0.00    +0.048 C 
BRANCH  20  21
ATOM     21  C   UNL     1      33.470 -13.538 -21.560  0.00  0.00    +0.096 C 
BRANCH  21  23
ATOM     22  O   UNL     1      34.852 -15.784 -22.698  0.00  0.00    -0.251 OA
ATOM     23  N   UNL     1      33.587 -14.856 -20.998  0.00  0.00    -0.287 N 
ATOM     24  N   UNL     1      34.247 -17.104 -20.866  0.00  0.00    -0.169 N 
ATOM     25  C   UNL     1      34.276 -15.886 -21.618  0.00  0.00    +0.319 C 
ATOM     26  H   UNL     1      33.157 -15.036 -20.131  0.00  0.00    +0.151 HD
ATOM     27  H   UNL     1      33.758 -17.095 -20.012  0.00  0.00    +0.178 HD
BRANCH  24  28
ATOM     28  S   UNL     1      34.991 -18.571 -21.331  0.00  0.00    +0.077 S 
ATOM     29  O   UNL     1      34.557 -18.927 -22.669  0.00  0.00    -0.150 OA
ATOM     30  O   UNL     1      36.403 -18.516 -21.007  0.00  0.00    -0.150 OA
BRANCH  28  31
ATOM     31  C   UNL     1      34.249 -19.701 -20.193  0.00  0.00    +0.125 C 
ATOM     32  C   UNL     1      32.869 -19.781 -20.120  0.00  0.00    +0.020 C 
ATOM     33  C   UNL     1      35.062 -20.487 -19.394  0.00  0.00    +0.020 C 
ATOM     34  C   UNL     1      33.089 -21.472 -18.410  0.00  0.00    -0.022 C 
ATOM     35  C   UNL     1      32.285 -20.673 -19.221  0.00  0.00    -0.003 C 
ATOM     36  C   UNL     1      34.478 -21.380 -18.496  0.00  0.00    -0.003 C 
ATOM     37  C   UNL     1      32.464 -22.427 -17.450  0.00  0.00    +0.031 C 
ENDBRANCH  28  31
ENDBRANCH  24  28
ENDBRANCH  21  23
ENDBRANCH  20  21
ENDBRANCH   2  20
TORSDOF 7
ENDMDL
MODEL 2
REMARK VINA RESULT:     -11.6      4.671     13.850
REMARK  Name = 11677589
REMARK  7 active torsions:
REMARK  status: ('A' for Active; 'I' for Inactive)
REMARK    1  A    between atoms: C_1  and  N_7
REMARK    2  A    between atoms: C_2  and  C_20
REMARK    3  A    between atoms: C_11  and  C_18
REMARK    4  A    between atoms: C_20  and  C_21
REMARK    5  A    between atoms: C_21  and  N_23
REMARK    6  A    between atoms: N_24  and  S_28
REMARK    7  A    between atoms: S_28  and  C_31
REMARK                            x       y       z     vdW  Elec       q    Type
REMARK                         _______ _______ _______ _____ _____    ______ ____
ROOT
ATOM      1  C   UNL     1      33.118 -22.100 -16.999  0.00  0.00    +0.058 C 
ATOM      2  C   UNL     1      34.016 -20.781 -19.272  0.00  0.00    -0.020 C 
ATOM      3  C   UNL     1      32.198 -21.639 -17.932  0.00  0.00    +0.015 C 
ATOM      4  C   UNL     1      34.481 -21.910 -17.188  0.00  0.00    +0.015 C 
ATOM      5  C   UNL     1      32.649 -20.976 -19.073  0.00  0.00    -0.003 C 
ATOM      6  C   UNL     1      34.932 -21.247 -18.329  0.00  0.00    -0.003 C 
ENDROOT
BRANCH   1   7
ATOM      7  N   UNL     1      32.668 -22.763 -15.857  0.00  0.00    -0.242 N 
ATOM      8  N   UNL     1      32.733 -23.930 -13.965  0.00  0.00    -0.387 NA
ATOM      9  N   UNL     1      29.054 -23.530 -14.128  0.00  0.00    -0.408 NA
ATOM     10  C   UNL     1      31.362 -22.897 -15.464  0.00  0.00    +0.091 C 
ATOM     11  C   UNL     1      33.449 -23.396 -14.929  0.00  0.00    +0.168 C 
ATOM     12  C   UNL     1      31.430 -23.629 -14.282  0.00  0.00    +0.172 C 
ATOM     13  C   UNL     1      30.167 -22.460 -16.018  0.00  0.00    +0.045 C 
ATOM     14  C   UNL     1      30.243 -23.939 -13.618  0.00  0.00    +0.140 C 
ATOM     15  C   UNL     1      29.046 -22.820 -15.283  0.00  0.00    +0.110 C 
ATOM     16  C   UNL     1      30.198 -24.716 -12.346  0.00  0.00    +0.069 C 
ATOM     17  C   UNL     1      27.701 -22.403 -15.784  0.00  0.00    +0.066 C 
BRANCH  11  18
ATOM     18  C   UNL     1      34.923 -23.452 -15.034  0.00  0.00    +0.075 C 
ATOM     19  C   UNL     1      35.626 -22.839 -13.818  0.00  0.00    +0.009 C 
ENDBRANCH  11  18
ENDBRANCH   1   7
BRANCH   2  20
ATOM     20  C   UNL     1      34.498 -20.071 -20.492  0.00  0.00    +0.048 C 
BRANCH  20  21
ATOM     21  C   UNL     1      35.418 -18.883 -20.187  0.00  0.00    +0.096 C 
BRANCH  21  23
ATOM     22  O   UNL     1      34.872 -17.346 -22.551  0.00  0.00    -0.251 OA
ATOM     23  N   UNL     1      34.727 -17.624 -20.260  0.00  0.00    -0.287 N 
ATOM     24  N   UNL     1      33.802 -15.716 -21.263  0.00  0.00    -0.169 N 
ATOM     25  C   UNL     1      34.506 -16.948 -21.449  0.00  0.00    +0.319 C 
ATOM     26  H   UNL     1      34.395 -17.223 -19.424  0.00  0.00    +0.151 HD
ATOM     27  H   UNL     1      33.552 -15.473 -20.342  0.00  0.00    +0.178 HD
BRANCH  24  28
ATOM     28  S   UNL     1      33.364 -14.630 -22.508  0.00  0.00    +0.077 S 
ATOM     29  O   UNL     1      34.556 -13.994 -23.033  0.00  0.00    -0.150 OA
ATOM     30  O   UNL     1      32.423 -15.280 -23.401  0.00  0.00    -0.150 OA
BRANCH  28  31
ATOM     31  C   UNL     1      32.451 -13.422 -21.597  0.00  0.00    +0.125 C 
ATOM     32  C   UNL     1      31.992 -13.735 -20.329  0.00  0.00    +0.020 C 
ATOM     33  C   UNL     1      32.211 -12.184 -22.169  0.00  0.00    +0.020 C 
ATOM     34  C   UNL     1      31.021 -11.528 -20.171  0.00  0.00    -0.022 C 
ATOM     35  C   UNL     1      31.272 -12.780 -19.610  0.00  0.00    -0.003 C 
ATOM     36  C   UNL     1      31.490 -11.230 -21.450  0.00  0.00    -0.003 C 
ATOM     37  C   UNL     1      30.252 -10.508 -19.402  0.00  0.00    +0.031 C 
ENDBRANCH  28  31
ENDBRANCH  24  28
ENDBRANCH  21  23
ENDBRANCH  20  21
ENDBRANCH   2  20
TORSDOF 7
ENDMDL
MODEL 3
REMARK VINA RESULT:     -11.6      4.905     14.962
REMARK  Name = 11677589
REMARK  7 active torsions:
REMARK  status: ('A' for Active; 'I' for Inactive)
REMARK    1  A    between atoms: C_1  and  N_7
REMARK    2  A    between atoms: C_2  and  C_20
REMARK    3  A    between atoms: C_11  and  C_18
REMARK    4  A    between atoms: C_20  and  C_21
REMARK    5  A    between atoms: C_21  and  N_23
REMARK    6  A    between atoms: N_24  and  S_28
REMARK    7  A    between atoms: S_28  and  C_31
REMARK                            x       y       z     vdW  Elec       q    Type
REMARK                         _______ _______ _______ _____ _____    ______ ____
ROOT
ATOM      1  C   UNL     1      34.220 -22.583 -15.883  0.00  0.00    +0.058 C 
ATOM      2  C   UNL     1      33.977 -21.357 -18.362  0.00  0.00    -0.020 C 
ATOM      3  C   UNL     1      33.030 -22.698 -16.589  0.00  0.00    +0.015 C 
ATOM      4  C   UNL     1      35.290 -21.864 -16.399  0.00  0.00    +0.015 C 
ATOM      5  C   UNL     1      32.908 -22.081 -17.835  0.00  0.00    -0.003 C 
ATOM      6  C   UNL     1      35.168 -21.248 -17.644  0.00  0.00    -0.003 C 
ENDROOT
BRANCH   1   7
ATOM      7  N   UNL     1      34.344 -23.200 -14.636  0.00  0.00    -0.242 N 
ATOM      8  N   UNL     1      33.779 -23.956 -12.623  0.00  0.00    -0.387 NA
ATOM      9  N   UNL     1      37.310 -25.075 -12.558  0.00  0.00    -0.408 NA
ATOM     10  C   UNL     1      35.478 -23.782 -14.133  0.00  0.00    +0.091 C 
ATOM     11  C   UNL     1      33.357 -23.329 -13.698  0.00  0.00    +0.168 C 
ATOM     12  C   UNL     1      35.099 -24.246 -12.877  0.00  0.00    +0.172 C 
ATOM     13  C   UNL     1      36.758 -23.940 -14.646  0.00  0.00    +0.045 C 
ATOM     14  C   UNL     1      36.048 -24.902 -12.093  0.00  0.00    +0.140 C 
ATOM     15  C   UNL     1      37.625 -24.603 -13.790  0.00  0.00    +0.110 C 
ATOM     16  C   UNL     1      35.753 -25.440 -10.733  0.00  0.00    +0.069 C 
ATOM     17  C   UNL     1      39.033 -24.830 -14.237  0.00  0.00    +0.066 C 
BRANCH  11  18
ATOM     18  C   UNL     1      31.987 -22.810 -13.905  0.00  0.00    +0.075 C 
ATOM     19  C   UNL     1      30.916 -23.704 -13.271  0.00  0.00    +0.009 C 
ENDBRANCH  11  18
ENDBRANCH   1   7
BRANCH   2  20
ATOM     20  C   UNL     1      33.846 -20.697 -19.693  0.00  0.00    +0.048 C 
BRANCH  20  21
ATOM     21  C   UNL     1      34.998 -19.740 -20.019  0.00  0.00    +0.096 C 
BRANCH  21  23
ATOM     22  O   UNL     1      34.258 -19.399 -22.773  0.00  0.00    -0.251 OA
ATOM     23  N   UNL     1      34.542 -18.530 -20.648  0.00  0.00    -0.287 N 
ATOM     24  N   UNL     1      33.785 -17.144 -22.383  0.00  0.00    -0.169 N 
ATOM     25  C   UNL     1      34.204 -18.455 -21.990  0.00  0.00    +0.319 C 
ATOM     26  H   UNL     1      34.467 -17.716 -20.100  0.00  0.00    +0.151 HD
ATOM     27  H   UNL     1      33.777 -16.446 -21.689  0.00  0.00    +0.178 HD
BRANCH  24  28
ATOM     28  S   UNL     1      33.298 -16.692 -23.958  0.00  0.00    +0.077 S 
ATOM     29  O   UNL     1      34.360 -17.001 -24.896  0.00  0.00    -0.150 OA
ATOM     30  O   UNL     1      31.947 -17.163 -24.195  0.00  0.00    -0.150 OA
BRANCH  28  31
ATOM     31  C   UNL     1      33.204 -14.935 -23.792  0.00  0.00    +0.125 C 
ATOM     32  C   UNL     1      33.585 -14.347 -22.598  0.00  0.00    +0.020 C 
ATOM     33  C   UNL     1      32.752 -14.179 -24.859  0.00  0.00    +0.020 C 
ATOM     34  C   UNL     1      33.058 -12.183 -23.533  0.00  0.00    -0.022 C 
ATOM     35  C   UNL     1      33.511 -12.960 -22.468  0.00  0.00    -0.003 C 
ATOM     36  C   UNL     1      32.678 -12.792 -24.729  0.00  0.00    -0.003 C 
ATOM     37  C   UNL     1      32.980 -10.701 -23.394  0.00  0.00    +0.031 C 
ENDBRANCH  28  31
ENDBRANCH  24  28
ENDBRANCH  21  23
ENDBRANCH  20  21
ENDBRANCH   2  20
TORSDOF 7
ENDMDL
MODEL 4
REMARK VINA RESULT:     -11.5      4.901     14.781
REMARK  Name = 11677589
REMARK  7 active torsions:
REMARK  status: ('A' for Active; 'I' for Inactive)
REMARK    1  A    between atoms: C_1  and  N_7
REMARK    2  A    between atoms: C_2  and  C_20
REMARK    3  A    between atoms: C_11  and  C_18
REMARK    4  A    between atoms: C_20  and  C_21
REMARK    5  A    between atoms: C_21  and  N_23
REMARK    6  A    between atoms: N_24  and  S_28
REMARK    7  A    between atoms: S_28  and  C_31
REMARK                            x       y       z     vdW  Elec       q    Type
REMARK                         _______ _______ _______ _____ _____    ______ ____
ROOT
ATOM      1  C   UNL     1      34.577 -22.416 -16.106  0.00  0.00    +0.058 C 
ATOM      2  C   UNL     1      34.530 -21.154 -18.578  0.00  0.00    -0.020 C 
ATOM      3  C   UNL     1      35.679 -21.680 -16.520  0.00  0.00    +0.015 C 
ATOM      4  C   UNL     1      33.451 -22.530 -16.911  0.00  0.00    +0.015 C 
ATOM      5  C   UNL     1      35.655 -21.046 -17.762  0.00  0.00    -0.003 C 
ATOM      6  C   UNL     1      33.427 -21.896 -18.154  0.00  0.00    -0.003 C 
ENDROOT
BRANCH   1   7
ATOM      7  N   UNL     1      34.599 -23.052 -14.863  0.00  0.00    -0.242 N 
ATOM      8  N   UNL     1      33.880 -23.822 -12.906  0.00  0.00    -0.387 NA
ATOM      9  N   UNL     1      37.374 -25.018 -12.611  0.00  0.00    -0.408 NA
ATOM     10  C   UNL     1      35.683 -23.665 -14.291  0.00  0.00    +0.091 C 
ATOM     11  C   UNL     1      33.547 -23.172 -13.998  0.00  0.00    +0.168 C 
ATOM     12  C   UNL     1      35.208 -24.138 -13.071  0.00  0.00    +0.172 C 
ATOM     13  C   UNL     1      36.992 -23.844 -14.715  0.00  0.00    +0.045 C 
ATOM     14  C   UNL     1      36.086 -24.824 -12.232  0.00  0.00    +0.140 C 
ATOM     15  C   UNL     1      37.784 -24.537 -13.810  0.00  0.00    +0.110 C 
ATOM     16  C   UNL     1      35.685 -25.373 -10.904  0.00  0.00    +0.069 C 
ATOM     17  C   UNL     1      39.214 -24.789 -14.162  0.00  0.00    +0.066 C 
BRANCH  11  18
ATOM     18  C   UNL     1      32.206 -22.621 -14.292  0.00  0.00    +0.075 C 
ATOM     19  C   UNL     1      31.185 -22.936 -13.194  0.00  0.00    +0.009 C 
ENDBRANCH  11  18
ENDBRANCH   1   7
BRANCH   2  20
ATOM     20  C   UNL     1      34.505 -20.476 -19.907  0.00  0.00    +0.048 C 
BRANCH  20  21
ATOM     21  C   UNL     1      35.534 -19.347 -20.039  0.00  0.00    +0.096 C 
BRANCH  21  23
ATOM     22  O   UNL     1      34.951 -17.925 -22.465  0.00  0.00    -0.251 OA
ATOM     23  N   UNL     1      34.914 -18.055 -20.156  0.00  0.00    -0.287 N 
ATOM     24  N   UNL     1      34.051 -16.157 -21.231  0.00  0.00    -0.169 N 
ATOM     25  C   UNL     1      34.670 -17.439 -21.373  0.00  0.00    +0.319 C 
ATOM     26  H   UNL     1      34.653 -17.584 -19.332  0.00  0.00    +0.151 HD
ATOM     27  H   UNL     1      33.865 -15.844 -20.316  0.00  0.00    +0.178 HD
BRANCH  24  28
ATOM     28  S   UNL     1      33.609 -15.124 -22.518  0.00  0.00    +0.077 S 
ATOM     29  O   UNL     1      34.800 -14.506 -23.069  0.00  0.00    -0.150 OA
ATOM     30  O   UNL     1      32.670 -15.812 -23.384  0.00  0.00    -0.150 OA
BRANCH  28  31
ATOM     31  C   UNL     1      32.693 -13.882 -21.657  0.00  0.00    +0.125 C 
ATOM     32  C   UNL     1      32.330 -12.724 -22.323  0.00  0.00    +0.020 C 
ATOM     33  C   UNL     1      32.354 -14.090 -20.331  0.00  0.00    +0.020 C 
ATOM     34  C   UNL     1      31.257 -11.937 -20.307  0.00  0.00    -0.022 C 
ATOM     35  C   UNL     1      31.606 -11.744 -21.643  0.00  0.00    -0.003 C 
ATOM     36  C   UNL     1      31.631 -13.110 -19.651  0.00  0.00    -0.003 C 
ATOM     37  C   UNL     1      30.483 -10.891 -19.580  0.00  0.00    +0.031 C 
ENDBRANCH  28  31
ENDBRANCH  24  28
ENDBRANCH  21  23
ENDBRANCH  20  21
ENDBRANCH   2  20
TORSDOF 7
ENDMDL
MODEL 5
REMARK VINA RESULT:     -11.5      0.891      3.091
REMARK  Name = 11677589
REMARK  7 active torsions:
REMARK  status: ('A' for Active; 'I' for Inactive)
REMARK    1  A    between atoms: C_1  and  N_7
REMARK    2  A    between atoms: C_2  and  C_20
REMARK    3  A    between atoms: C_11  and  C_18
REMARK    4  A    between atoms: C_20  and  C_21
REMARK    5  A    between atoms: C_21  and  N_23
REMARK    6  A    between atoms: N_24  and  S_28
REMARK    7  A    between atoms: S_28  and  C_31
REMARK                            x       y       z     vdW  Elec       q    Type
REMARK                         _______ _______ _______ _____ _____    ______ ____
ROOT
ATOM      1  C   UNL     1      32.067  -8.860 -22.953  0.00  0.00    +0.058 C 
ATOM      2  C   UNL     1      33.041 -11.454 -22.770  0.00  0.00    -0.020 C 
ATOM      3  C   UNL     1      33.166  -9.234 -23.715  0.00  0.00    +0.015 C 
ATOM      4  C   UNL     1      31.448  -9.765 -22.100  0.00  0.00    +0.015 C 
ATOM      5  C   UNL     1      33.655 -10.538 -23.622  0.00  0.00    -0.003 C 
ATOM      6  C   UNL     1      31.937 -11.069 -22.008  0.00  0.00    -0.003 C 
ENDROOT
BRANCH   1   7
ATOM      7  N   UNL     1      31.576  -7.556 -23.044  0.00  0.00    -0.242 N 
ATOM      8  N   UNL     1      30.755  -5.700 -23.950  0.00  0.00    -0.387 NA
ATOM      9  N   UNL     1      30.881  -4.483 -20.454  0.00  0.00    -0.408 NA
ATOM     10  C   UNL     1      31.425  -6.677 -22.004  0.00  0.00    +0.091 C 
ATOM     11  C   UNL     1      31.162  -6.927 -24.185  0.00  0.00    +0.168 C 
ATOM     12  C   UNL     1      30.912  -5.527 -22.596  0.00  0.00    +0.172 C 
ATOM     13  C   UNL     1      31.684  -6.779 -20.644  0.00  0.00    +0.045 C 
ATOM     14  C   UNL     1      30.641  -4.422 -21.787  0.00  0.00    +0.140 C 
ATOM     15  C   UNL     1      31.382  -5.629 -19.929  0.00  0.00    +0.110 C 
ATOM     16  C   UNL     1      30.090  -3.141 -22.314  0.00  0.00    +0.069 C 
ATOM     17  C   UNL     1      31.620  -5.623 -18.454  0.00  0.00    +0.066 C 
BRANCH  11  18
ATOM     18  C   UNL     1      31.186  -7.583 -25.511  0.00  0.00    +0.075 C 
ATOM     19  C   UNL     1      30.776  -6.638 -26.645  0.00  0.00    +0.009 C 
ENDBRANCH  11  18
ENDBRANCH   1   7
BRANCH   2  20
ATOM     20  C   UNL     1      33.564 -12.847 -22.671  0.00  0.00    +0.048 C 
BRANCH  20  21
ATOM     21  C   UNL     1      32.668 -13.782 -21.850  0.00  0.00    +0.096 C 
BRANCH  21  23
ATOM     22  O   UNL     1      33.750 -16.169 -23.026  0.00  0.00    -0.251 OA
ATOM     23  N   UNL     1      33.418 -14.811 -21.183  0.00  0.00    -0.287 N 
ATOM     24  N   UNL     1      34.614 -16.817 -20.954  0.00  0.00    -0.169 N 
ATOM     25  C   UNL     1      33.905 -15.935 -21.831  0.00  0.00    +0.319 C 
ATOM     26  H   UNL     1      33.594 -14.714 -20.219  0.00  0.00    +0.151 HD
ATOM     27  H   UNL     1      34.686 -16.551 -20.008  0.00  0.00    +0.178 HD
BRANCH  24  28
ATOM     28  S   UNL     1      35.345 -18.292 -21.413  0.00  0.00    +0.077 S 
ATOM     29  O   UNL     1      34.989 -18.597 -22.786  0.00  0.00    -0.150 OA
ATOM     30  O   UNL     1      36.735 -18.288 -20.998  0.00  0.00    -0.150 OA
BRANCH  28  31
ATOM     31  C   UNL     1      34.500 -19.431 -20.359  0.00  0.00    +0.125 C 
ATOM     32  C   UNL     1      35.237 -20.270 -19.541  0.00  0.00    +0.020 C 
ATOM     33  C   UNL     1      33.117 -19.463 -20.370  0.00  0.00    +0.020 C 
ATOM     34  C   UNL     1      33.176 -21.215 -18.707  0.00  0.00    -0.022 C 
ATOM     35  C   UNL     1      34.570 -21.168 -18.708  0.00  0.00    -0.003 C 
ATOM     36  C   UNL     1      32.449 -20.362 -19.537  0.00  0.00    -0.003 C 
ATOM     37  C   UNL     1      32.464 -22.174 -17.816  0.00  0.00    +0.031 C 
ENDBRANCH  28  31
ENDBRANCH  24  28
ENDBRANCH  21  23
ENDBRANCH  20  21
ENDBRANCH   2  20
TORSDOF 7
ENDMDL
MODEL 6
REMARK VINA RESULT:     -11.4      3.004      5.026
REMARK  Name = 11677589
REMARK  7 active torsions:
REMARK  status: ('A' for Active; 'I' for Inactive)
REMARK    1  A    between atoms: C_1  and  N_7
REMARK    2  A    between atoms: C_2  and  C_20
REMARK    3  A    between atoms: C_11  and  C_18
REMARK    4  A    between atoms: C_20  and  C_21
REMARK    5  A    between atoms: C_21  and  N_23
REMARK    6  A    between atoms: N_24  and  S_28
REMARK    7  A    between atoms: S_28  and  C_31
REMARK                            x       y       z     vdW  Elec       q    Type
REMARK                         _______ _______ _______ _____ _____    ______ ____
ROOT
ATOM      1  C   UNL     1      33.056 -13.236 -21.935  0.00  0.00    +0.058 C 
ATOM      2  C   UNL     1      34.042 -15.820 -21.688  0.00  0.00    -0.020 C 
ATOM      3  C   UNL     1      33.312 -13.753 -20.672  0.00  0.00    +0.015 C 
ATOM      4  C   UNL     1      33.286 -13.993 -23.076  0.00  0.00    +0.015 C 
ATOM      5  C   UNL     1      33.807 -15.052 -20.548  0.00  0.00    -0.003 C 
ATOM      6  C   UNL     1      33.781 -15.292 -22.952  0.00  0.00    -0.003 C 
ENDROOT
BRANCH   1   7
ATOM      7  N   UNL     1      32.561 -11.937 -22.060  0.00  0.00    -0.242 N 
ATOM      8  N   UNL     1      31.304 -10.143 -21.680  0.00  0.00    -0.387 NA
ATOM      9  N   UNL     1      33.376  -8.685 -24.383  0.00  0.00    -0.408 NA
ATOM     10  C   UNL     1      33.006 -10.985 -22.940  0.00  0.00    +0.091 C 
ATOM     11  C   UNL     1      31.545 -11.386 -21.329  0.00  0.00    +0.168 C 
ATOM     12  C   UNL     1      32.206  -9.876 -22.683  0.00  0.00    +0.172 C 
ATOM     13  C   UNL     1      34.002 -10.995 -23.907  0.00  0.00    +0.045 C 
ATOM     14  C   UNL     1      32.412  -8.715 -23.429  0.00  0.00    +0.140 C 
ATOM     15  C   UNL     1      34.126  -9.794 -24.593  0.00  0.00    +0.110 C 
ATOM     16  C   UNL     1      31.615  -7.470 -23.238  0.00  0.00    +0.069 C 
ATOM     17  C   UNL     1      35.169  -9.687 -25.658  0.00  0.00    +0.066 C 
BRANCH  11  18
ATOM     18  C   UNL     1      30.823 -12.134 -20.276  0.00  0.00    +0.075 C 
ATOM     19  C   UNL     1      30.846 -11.418 -18.922  0.00  0.00    +0.009 C 
ENDBRANCH  11  18
ENDBRANCH   1   7
BRANCH   2  20
ATOM     20  C   UNL     1      34.571 -17.208 -21.555  0.00  0.00    +0.048 C 
BRANCH  20  21
ATOM     21  C   UNL     1      33.477 -18.263 -21.344  0.00  0.00    +0.096 C 
BRANCH  21  23
ATOM     22  O   UNL     1      31.768 -20.232 -20.140  0.00  0.00    -0.251 OA
ATOM     23  N   UNL     1      33.848 -19.246 -20.362  0.00  0.00    -0.287 N 
ATOM     24  N   UNL     1      33.558 -21.032 -18.869  0.00  0.00    -0.169 N 
ATOM     25  C   UNL     1      32.954 -20.162 -19.832  0.00  0.00    +0.319 C 
ATOM     26  H   UNL     1      34.782 -19.268 -20.050  0.00  0.00    +0.151 HD
ATOM     27  H   UNL     1      34.515 -20.901 -18.681  0.00  0.00    +0.178 HD
BRANCH  24  28
ATOM     28  S   UNL     1      32.753 -22.277 -18.019  0.00  0.00    +0.077 S 
ATOM     29  O   UNL     1      31.448 -21.805 -17.597  0.00  0.00    -0.150 OA
ATOM     30  O   UNL     1      32.883 -23.521 -18.755  0.00  0.00    -0.150 OA
BRANCH  28  31
ATOM     31  C   UNL     1      33.775 -22.424 -16.585  0.00  0.00    +0.125 C 
ATOM     32  C   UNL     1      35.062 -21.915 -16.617  0.00  0.00    +0.020 C 
ATOM     33  C   UNL     1      33.271 -23.045 -15.456  0.00  0.00    +0.020 C 
ATOM     34  C   UNL     1      35.376 -22.654 -14.338  0.00  0.00    -0.022 C 
ATOM     35  C   UNL     1      35.869 -22.030 -15.484  0.00  0.00    -0.003 C 
ATOM     36  C   UNL     1      34.077 -23.161 -14.324  0.00  0.00    -0.003 C 
ATOM     37  C   UNL     1      36.238 -22.776 -13.128  0.00  0.00    +0.031 C 
ENDBRANCH  28  31
ENDBRANCH  24  28
ENDBRANCH  21  23
ENDBRANCH  20  21
ENDBRANCH   2  20
TORSDOF 7
ENDMDL
MODEL 7
REMARK VINA RESULT:     -11.4      5.435     14.092
REMARK  Name = 11677589
REMARK  7 active torsions:
REMARK  status: ('A' for Active; 'I' for Inactive)
REMARK    1  A    between atoms: C_1  and  N_7
REMARK    2  A    between atoms: C_2  and  C_20
REMARK    3  A    between atoms: C_11  and  C_18
REMARK    4  A    between atoms: C_20  and  C_21
REMARK    5  A    between atoms: C_21  and  N_23
REMARK    6  A    between atoms: N_24  and  S_28
REMARK    7  A    between atoms: S_28  and  C_31
REMARK                            x       y       z     vdW  Elec       q    Type
REMARK                         _______ _______ _______ _____ _____    ______ ____
ROOT
ATOM      1  C   UNL     1      33.671 -22.414 -16.344  0.00  0.00    +0.058 C 
ATOM      2  C   UNL     1      34.946 -21.098 -18.430  0.00  0.00    -0.020 C 
ATOM      3  C   UNL     1      34.963 -21.936 -16.165  0.00  0.00    +0.015 C 
ATOM      4  C   UNL     1      33.008 -22.242 -17.552  0.00  0.00    +0.015 C 
ATOM      5  C   UNL     1      35.603 -21.275 -17.214  0.00  0.00    -0.003 C 
ATOM      6  C   UNL     1      33.648 -21.582 -18.600  0.00  0.00    -0.003 C 
ENDROOT
BRANCH   1   7
ATOM      7  N   UNL     1      33.030 -23.075 -15.295  0.00  0.00    -0.242 N 
ATOM      8  N   UNL     1      32.764 -24.310 -13.466  0.00  0.00    -0.387 NA
ATOM      9  N   UNL     1      29.179 -23.583 -14.050  0.00  0.00    -0.408 NA
ATOM     10  C   UNL     1      31.679 -23.108 -15.068  0.00  0.00    +0.091 C 
ATOM     11  C   UNL     1      33.636 -23.807 -14.311  0.00  0.00    +0.168 C 
ATOM     12  C   UNL     1      31.539 -23.885 -13.922  0.00  0.00    +0.172 C 
ATOM     13  C   UNL     1      30.601 -22.548 -15.741  0.00  0.00    +0.045 C 
ATOM     14  C   UNL     1      30.258 -24.113 -13.421  0.00  0.00    +0.140 C 
ATOM     15  C   UNL     1      29.372 -22.834 -15.163  0.00  0.00    +0.110 C 
ATOM     16  C   UNL     1      29.992 -24.928 -12.201  0.00  0.00    +0.069 C 
ATOM     17  C   UNL     1      28.139 -22.282 -15.802  0.00  0.00    +0.066 C 
BRANCH  11  18
ATOM     18  C   UNL     1      35.102 -23.990 -14.241  0.00  0.00    +0.075 C 
ATOM     19  C   UNL     1      35.512 -25.466 -14.215  0.00  0.00    +0.009 C 
ENDBRANCH  11  18
ENDBRANCH   1   7
BRANCH   2  20
ATOM     20  C   UNL     1      35.631 -20.392 -19.552  0.00  0.00    +0.048 C 
BRANCH  20  21
ATOM     21  C   UNL     1      34.709 -20.091 -20.740  0.00  0.00    +0.096 C 
BRANCH  21  23
ATOM     22  O   UNL     1      33.032 -18.603 -22.536  0.00  0.00    -0.251 OA
ATOM     23  N   UNL     1      35.012 -18.829 -21.360  0.00  0.00    -0.287 N 
ATOM     24  N   UNL     1      34.667 -16.942 -22.711  0.00  0.00    -0.169 N 
ATOM     25  C   UNL     1      34.140 -18.178 -22.218  0.00  0.00    +0.319 C 
ATOM     26  H   UNL     1      35.880 -18.408 -21.166  0.00  0.00    +0.151 HD
ATOM     27  H   UNL     1      35.566 -16.682 -22.406  0.00  0.00    +0.178 HD
BRANCH  24  28
ATOM     28  S   UNL     1      33.865 -15.884 -23.786  0.00  0.00    +0.077 S 
ATOM     29  O   UNL     1      34.846 -15.178 -24.588  0.00  0.00    -0.150 OA
ATOM     30  O   UNL     1      32.766 -16.587 -24.420  0.00  0.00    -0.150 OA
BRANCH  28  31
ATOM     31  C   UNL     1      33.148 -14.731 -22.654  0.00  0.00    +0.125 C 
ATOM     32  C   UNL     1      33.477 -14.808 -21.311  0.00  0.00    +0.020 C 
ATOM     33  C   UNL     1      32.269 -13.774 -23.130  0.00  0.00    +0.020 C 
ATOM     34  C   UNL     1      32.024 -12.926 -20.881  0.00  0.00    -0.022 C 
ATOM     35  C   UNL     1      32.911 -13.898 -20.418  0.00  0.00    -0.003 C 
ATOM     36  C   UNL     1      31.703 -12.864 -22.236  0.00  0.00    -0.003 C 
ATOM     37  C   UNL     1      31.421 -11.953 -19.926  0.00  0.00    +0.031 C 
ENDBRANCH  28  31
ENDBRANCH  24  28
ENDBRANCH  21  23
ENDBRANCH  20  21
ENDBRANCH   2  20
TORSDOF 7
ENDMDL
MODEL 8
REMARK VINA RESULT:     -11.1      4.785     14.421
REMARK  Name = 11677589
REMARK  7 active torsions:
REMARK  status: ('A' for Active; 'I' for Inactive)
REMARK    1  A    between atoms: C_1  and  N_7
REMARK    2  A    between atoms: C_2  and  C_20
REMARK    3  A    between atoms: C_11  and  C_18
REMARK    4  A    between atoms: C_20  and  C_21
REMARK    5  A    between atoms: C_21  and  N_23
REMARK    6  A    between atoms: N_24  and  S_28
REMARK    7  A    between atoms: S_28  and  C_31
REMARK                            x       y       z     vdW  Elec       q    Type
REMARK                         _______ _______ _______ _____ _____    ______ ____
ROOT
ATOM      1  C   UNL     1      34.809 -22.113 -16.345  0.00  0.00    +0.058 C 
ATOM      2  C   UNL     1      34.489 -20.935 -18.839  0.00  0.00    -0.020 C 
ATOM      3  C   UNL     1      35.833 -21.336 -16.872  0.00  0.00    +0.015 C 
ATOM      4  C   UNL     1      33.628 -22.309 -17.048  0.00  0.00    +0.015 C 
ATOM      5  C   UNL     1      35.672 -20.745 -18.125  0.00  0.00    -0.003 C 
ATOM      6  C   UNL     1      33.467 -21.717 -18.301  0.00  0.00    -0.003 C 
ENDROOT
BRANCH   1   7
ATOM      7  N   UNL     1      34.970 -22.706 -15.092  0.00  0.00    -0.242 N 
ATOM      8  N   UNL     1      35.979 -23.632 -13.341  0.00  0.00    -0.387 NA
ATOM      9  N   UNL     1      32.521 -23.819 -12.025  0.00  0.00    -0.408 NA
ATOM     10  C   UNL     1      33.968 -22.993 -14.202  0.00  0.00    +0.091 C 
ATOM     11  C   UNL     1      36.152 -23.105 -14.532  0.00  0.00    +0.168 C 
ATOM     12  C   UNL     1      34.624 -23.570 -13.118  0.00  0.00    +0.172 C 
ATOM     13  C   UNL     1      32.593 -22.808 -14.245  0.00  0.00    +0.045 C 
ATOM     14  C   UNL     1      33.867 -23.982 -12.021  0.00  0.00    +0.140 C 
ATOM     15  C   UNL     1      31.933 -23.251 -13.107  0.00  0.00    +0.110 C 
ATOM     16  C   UNL     1      34.465 -24.611 -10.807  0.00  0.00    +0.069 C 
ATOM     17  C   UNL     1      30.448 -23.102 -13.042  0.00  0.00    +0.066 C 
BRANCH  11  18
ATOM     18  C   UNL     1      37.452 -22.948 -15.219  0.00  0.00    +0.075 C 
ATOM     19  C   UNL     1      38.491 -23.977 -14.760  0.00  0.00    +0.009 C 
ENDBRANCH  11  18
ENDBRANCH   1   7
BRANCH   2  20
ATOM     20  C   UNL     1      34.317 -20.303 -20.179  0.00  0.00    +0.048 C 
BRANCH  20  21
ATOM     21  C   UNL     1      35.326 -19.183 -20.462  0.00  0.00    +0.096 C 
BRANCH  21  23
ATOM     22  O   UNL     1      34.757 -17.557 -22.761  0.00  0.00    -0.251 OA
ATOM     23  N   UNL     1      34.711 -17.883 -20.471  0.00  0.00    -0.287 N 
ATOM     24  N   UNL     1      33.856 -15.898 -21.384  0.00  0.00    -0.169 N 
ATOM     25  C   UNL     1      34.473 -17.166 -21.632  0.00  0.00    +0.319 C 
ATOM     26  H   UNL     1      34.448 -17.483 -19.611  0.00  0.00    +0.151 HD
ATOM     27  H   UNL     1      33.668 -15.664 -20.446  0.00  0.00    +0.178 HD
BRANCH  24  28
ATOM     28  S   UNL     1      33.423 -14.758 -22.581  0.00  0.00    +0.077 S 
ATOM     29  O   UNL     1      34.620 -14.116 -23.090  0.00  0.00    -0.150 OA
ATOM     30  O   UNL     1      32.467 -15.359 -23.491  0.00  0.00    -0.150 OA
BRANCH  28  31
ATOM     31  C   UNL     1      32.533 -13.575 -21.614  0.00  0.00    +0.125 C 
ATOM     32  C   UNL     1      32.224 -12.344 -22.168  0.00  0.00    +0.020 C 
ATOM     33  C   UNL     1      32.162 -13.901 -20.321  0.00  0.00    +0.020 C 
ATOM     34  C   UNL     1      31.139 -11.723 -20.100  0.00  0.00    -0.022 C 
ATOM     35  C   UNL     1      31.521 -11.411 -21.405  0.00  0.00    -0.003 C 
ATOM     36  C   UNL     1      31.459 -12.968 -19.558  0.00  0.00    -0.003 C 
ATOM     37  C   UNL     1      30.387 -10.726 -19.286  0.00  0.00    +0.031 C 
ENDBRANCH  28  31
ENDBRANCH  24  28
ENDBRANCH  21  23
ENDBRANCH  20  21
ENDBRANCH   2  20
TORSDOF 7
ENDMDL
MODEL 9
REMARK VINA RESULT:     -11.0      2.401      4.451
REMARK  Name = 11677589
REMARK  7 active torsions:
REMARK  status: ('A' for Active; 'I' for Inactive)
REMARK    1  A    between atoms: C_1  and  N_7
REMARK    2  A    between atoms: C_2  and  C_20
REMARK    3  A    between atoms: C_11  and  C_18
REMARK    4  A    between atoms: C_20  and  C_21
REMARK    5  A    between atoms: C_21  and  N_23
REMARK    6  A    between atoms: N_24  and  S_28
REMARK    7  A    between atoms: S_28  and  C_31
REMARK                            x       y       z     vdW  Elec       q    Type
REMARK                         _______ _______ _______ _____ _____    ______ ____
ROOT
ATOM      1  C   UNL     1      32.907 -12.374 -23.075  0.00  0.00    +0.058 C 
ATOM      2  C   UNL     1      33.343 -15.115 -23.165  0.00  0.00    -0.020 C 
ATOM      3  C   UNL     1      33.621 -12.988 -22.054  0.00  0.00    +0.015 C 
ATOM      4  C   UNL     1      32.408 -13.112 -24.141  0.00  0.00    +0.015 C 
ATOM      5  C   UNL     1      33.839 -14.365 -22.099  0.00  0.00    -0.003 C 
ATOM      6  C   UNL     1      32.627 -14.490 -24.186  0.00  0.00    -0.003 C 
ENDROOT
BRANCH   1   7
ATOM      7  N   UNL     1      32.687 -10.997 -23.031  0.00  0.00    -0.242 N 
ATOM      8  N   UNL     1      32.786  -8.853 -23.613  0.00  0.00    -0.387 NA
ATOM      9  N   UNL     1      30.692  -8.409 -20.590  0.00  0.00    -0.408 NA
ATOM     10  C   UNL     1      31.958 -10.326 -22.084  0.00  0.00    +0.091 C 
ATOM     11  C   UNL     1      33.161 -10.074 -23.923  0.00  0.00    +0.168 C 
ATOM     12  C   UNL     1      32.035  -8.991 -22.470  0.00  0.00    +0.172 C 
ATOM     13  C   UNL     1      31.261 -10.752 -20.962  0.00  0.00    +0.045 C 
ATOM     14  C   UNL     1      31.382  -8.032 -21.694  0.00  0.00    +0.140 C 
ATOM     15  C   UNL     1      30.649  -9.723 -20.260  0.00  0.00    +0.110 C 
ATOM     16  C   UNL     1      31.398  -6.576 -22.014  0.00  0.00    +0.069 C 
ATOM     17  C   UNL     1      29.869 -10.064 -19.031  0.00  0.00    +0.066 C 
BRANCH  11  18
ATOM     18  C   UNL     1      33.995 -10.445 -25.086  0.00  0.00    +0.075 C 
ATOM     19  C   UNL     1      35.299  -9.643 -25.158  0.00  0.00    +0.009 C 
ENDBRANCH  11  18
ENDBRANCH   1   7
BRANCH   2  20
ATOM     20  C   UNL     1      33.576 -16.587 -23.212  0.00  0.00    +0.048 C 
BRANCH  20  21
ATOM     21  C   UNL     1      34.736 -17.053 -22.323  0.00  0.00    +0.096 C 
BRANCH  21  23
ATOM     22  O   UNL     1      36.449 -18.734 -20.745  0.00  0.00    -0.251 OA
ATOM     23  N   UNL     1      34.329 -18.056 -21.376  0.00  0.00    -0.287 N 
ATOM     24  N   UNL     1      34.582 -19.757 -19.781  0.00  0.00    -0.169 N 
ATOM     25  C   UNL     1      35.228 -18.825 -20.655  0.00  0.00    +0.319 C 
ATOM     26  H   UNL     1      33.366 -18.204 -21.234  0.00  0.00    +0.151 HD
ATOM     27  H   UNL     1      33.598 -19.764 -19.776  0.00  0.00    +0.178 HD
BRANCH  24  28
ATOM     28  S   UNL     1      35.381 -20.859 -18.747  0.00  0.00    +0.077 S 
ATOM     29  O   UNL     1      35.969 -21.922 -19.540  0.00  0.00    -0.150 OA
ATOM     30  O   UNL     1      36.185 -20.123 -17.791  0.00  0.00    -0.150 OA
BRANCH  28  31
ATOM     31  C   UNL     1      34.014 -21.534 -17.851  0.00  0.00    +0.125 C 
ATOM     32  C   UNL     1      32.731 -21.350 -18.336  0.00  0.00    +0.020 C 
ATOM     33  C   UNL     1      34.252 -22.233 -16.681  0.00  0.00    +0.020 C 
ATOM     34  C   UNL     1      31.874 -22.590 -16.448  0.00  0.00    -0.022 C 
ATOM     35  C   UNL     1      31.653 -21.883 -17.629  0.00  0.00    -0.003 C 
ATOM     36  C   UNL     1      33.174 -22.766 -15.974  0.00  0.00    -0.003 C 
ATOM     37  C   UNL     1      30.722 -23.161 -15.694  0.00  0.00    +0.031 C 
ENDBRANCH  28  31
ENDBRANCH  24  28
ENDBRANCH  21  23
ENDBRANCH  20  21
ENDBRANCH   2  20
TORSDOF 7
ENDMDL
