MODEL 1
REMARK VINA RESULT:     -12.4      0.000      0.000
REMARK  Name = 5291
REMARK  6 active torsions:
REMARK  status: ('A' for Active; 'I' for Inactive)
REMARK    1  A    between atoms: C_1  and  N_23
REMARK    2  A    between atoms: C_2  and  N_8
REMARK    3  A    between atoms: C_12  and  C_17
REMARK    4  A    between atoms: C_24  and  C_31
REMARK    5  A    between atoms: C_26  and  C_32
REMARK    6  A    between atoms: C_32  and  N_33
REMARK                            x       y       z     vdW  Elec       q    Type
REMARK                         _______ _______ _______ _____ _____    ______ ____
ROOT
ATOM      1  C   UNL     1      31.892 -22.732 -15.518  0.00  0.00    +0.052 C 
ATOM      2  C   UNL     1      31.878 -23.493 -13.245  0.00  0.00    +0.055 C 
ATOM      3  C   UNL     1      32.475 -22.749 -14.262  0.00  0.00    +0.030 C 
ATOM      4  C   UNL     1      30.709 -24.211 -13.500  0.00  0.00    -0.008 C 
ATOM      5  C   UNL     1      30.733 -23.437 -15.788  0.00  0.00    +0.014 C 
ATOM      6  C   UNL     1      30.137 -24.183 -14.771  0.00  0.00    -0.002 C 
ATOM      7  C   UNL     1      30.050 -25.018 -12.429  0.00  0.00    +0.032 C 
ENDROOT
BRANCH   2   8
ATOM      8  N   UNL     1      32.470 -23.511 -11.963  0.00  0.00    -0.248 N 
ATOM      9  N   UNL     1      34.732 -23.850 -12.489  0.00  0.00    -0.337 NA
ATOM     10  N   UNL     1      34.014 -23.636 -10.199  0.00  0.00    -0.170 NA
ATOM     11  C   UNL     1      33.800 -23.673 -11.530  0.00  0.00    +0.149 C 
ATOM     12  C   UNL     1      35.995 -24.003 -12.041  0.00  0.00    +0.147 C 
ATOM     13  C   UNL     1      36.341 -23.983 -10.705  0.00  0.00    +0.055 C 
ATOM     14  C   UNL     1      35.300 -23.795  -9.820  0.00  0.00    +0.114 C 
ATOM     15  H   UNL     1      31.828 -23.384 -11.228  0.00  0.00    +0.165 HD
BRANCH  12  17
ATOM     16  N   UNL     1      37.969 -23.463 -15.156  0.00  0.00    -0.242 NA
ATOM     17  C   UNL     1      36.992 -24.191 -13.067  0.00  0.00    +0.050 C 
ATOM     18  C   UNL     1      37.914 -25.230 -12.990  0.00  0.00    +0.006 C 
ATOM     19  C   UNL     1      37.061 -23.343 -14.161  0.00  0.00    +0.101 C 
ATOM     20  C   UNL     1      38.863 -25.386 -13.994  0.00  0.00    +0.021 C 
ATOM     21  C   UNL     1      38.848 -24.484 -15.046  0.00  0.00    +0.099 C 
ENDBRANCH  12  17
ENDBRANCH   2   8
BRANCH   1  23
ATOM     22  O   UNL     1      32.793 -23.560 -18.256  0.00  0.00    -0.270 OA
ATOM     23  N   UNL     1      32.497 -21.974 -16.550  0.00  0.00    -0.280 N 
ATOM     24  C   UNL     1      32.905 -22.401 -17.823  0.00  0.00    +0.249 C 
ATOM     25  H   UNL     1      32.652 -21.023 -16.349  0.00  0.00    +0.155 HD
BRANCH  24  31
ATOM     26  C   UNL     1      34.713 -19.457 -20.263  0.00  0.00    -0.043 C 
ATOM     27  C   UNL     1      35.511 -20.276 -19.477  0.00  0.00    -0.006 C 
ATOM     28  C   UNL     1      33.331 -19.589 -20.261  0.00  0.00    -0.006 C 
ATOM     29  C   UNL     1      34.914 -21.247 -18.673  0.00  0.00    +0.004 C 
ATOM     30  C   UNL     1      32.735 -20.560 -19.457  0.00  0.00    +0.004 C 
ATOM     31  C   UNL     1      33.526 -21.390 -18.663  0.00  0.00    +0.054 C 
BRANCH  26  32
ATOM     32  C   UNL     1      35.356 -18.409 -21.132  0.00  0.00    -0.050 C 
BRANCH  32  33
ATOM     33  N   UNL     1      34.364 -17.638 -21.880  0.00  0.00    +0.387 N 
ATOM     34  N   UNL     1      33.564 -15.800 -23.964  0.00  0.00    +0.383 N 
ATOM     35  C   UNL     1      34.337 -18.049 -23.288  0.00  0.00    -0.100 C 
ATOM     36  C   UNL     1      34.631 -16.199 -21.770  0.00  0.00    -0.100 C 
ATOM     37  C   UNL     1      33.298 -17.240 -24.072  0.00  0.00    -0.101 C 
ATOM     38  C   UNL     1      33.594 -15.389 -22.554  0.00  0.00    -0.101 C 
ATOM     39  C   UNL     1      32.571 -15.031 -24.709  0.00  0.00    -0.101 C 
ATOM     40  H   UNL     1      33.448 -17.827 -21.472  0.00  0.00    -0.079 HD
ATOM     41  H   UNL     1      34.480 -15.611 -24.371  0.00  0.00    -0.080 HD
ENDBRANCH  32  33
ENDBRANCH  26  32
ENDBRANCH  24  31
ENDBRANCH   1  23
TORSDOF 6
ENDMDL
MODEL 2
REMARK VINA RESULT:     -11.1      7.680     17.556
REMARK  Name = 5291
REMARK  6 active torsions:
REMARK  status: ('A' for Active; 'I' for Inactive)
REMARK    1  A    between atoms: C_1  and  N_23
REMARK    2  A    between atoms: C_2  and  N_8
REMARK    3  A    between atoms: C_12  and  C_17
REMARK    4  A    between atoms: C_24  and  C_31
REMARK    5  A    between atoms: C_26  and  C_32
REMARK    6  A    between atoms: C_32  and  N_33
REMARK                            x       y       z     vdW  Elec       q    Type
REMARK                         _______ _______ _______ _____ _____    ______ ____
ROOT
ATOM      1  C   UNL     1      33.461  -9.375 -23.673  0.00  0.00    +0.052 C 
ATOM      2  C   UNL     1      32.493  -7.407 -24.643  0.00  0.00    +0.055 C 
ATOM      3  C   UNL     1      32.558  -8.796 -24.550  0.00  0.00    +0.030 C 
ATOM      4  C   UNL     1      33.333  -6.616 -23.859  0.00  0.00    -0.008 C 
ATOM      5  C   UNL     1      34.301  -8.605 -22.888  0.00  0.00    +0.014 C 
ATOM      6  C   UNL     1      34.237  -7.214 -22.982  0.00  0.00    -0.002 C 
ATOM      7  C   UNL     1      33.286  -5.124 -23.939  0.00  0.00    +0.032 C 
ENDROOT
BRANCH   2   8
ATOM      8  N   UNL     1      31.572  -6.816 -25.536  0.00  0.00    -0.248 N 
ATOM      9  N   UNL     1      32.982  -6.115 -27.276  0.00  0.00    -0.337 NA
ATOM     10  N   UNL     1      30.606  -5.728 -27.377  0.00  0.00    -0.170 NA
ATOM     11  C   UNL     1      31.727  -6.191 -26.787  0.00  0.00    +0.149 C 
ATOM     12  C   UNL     1      33.095  -5.509 -28.476  0.00  0.00    +0.147 C 
ATOM     13  C   UNL     1      32.024  -4.995 -29.179  0.00  0.00    +0.055 C 
ATOM     14  C   UNL     1      30.791  -5.134 -28.575  0.00  0.00    +0.114 C 
ATOM     15  H   UNL     1      30.640  -6.848 -25.222  0.00  0.00    +0.165 HD
BRANCH  12  17
ATOM     16  N   UNL     1      36.200  -4.086 -29.967  0.00  0.00    -0.242 NA
ATOM     17  C   UNL     1      34.437  -5.429 -28.999  0.00  0.00    +0.050 C 
ATOM     18  C   UNL     1      35.257  -6.552 -29.049  0.00  0.00    +0.006 C 
ATOM     19  C   UNL     1      34.953  -4.230 -29.466  0.00  0.00    +0.101 C 
ATOM     20  C   UNL     1      36.545  -6.444 -29.558  0.00  0.00    +0.021 C 
ATOM     21  C   UNL     1      36.966  -5.200 -30.000  0.00  0.00    +0.099 C 
ENDBRANCH  12  17
ENDBRANCH   2   8
BRANCH   1  23
ATOM     22  O   UNL     1      31.967 -11.266 -21.889  0.00  0.00    -0.270 OA
ATOM     23  N   UNL     1      33.525 -10.786 -23.578  0.00  0.00    -0.280 N 
ATOM     24  C   UNL     1      32.806 -11.638 -22.726  0.00  0.00    +0.249 C 
ATOM     25  H   UNL     1      34.158 -11.228 -24.189  0.00  0.00    +0.155 HD
BRANCH  24  31
ATOM     26  C   UNL     1      33.687 -15.761 -23.059  0.00  0.00    -0.043 C 
ATOM     27  C   UNL     1      33.258 -15.062 -24.178  0.00  0.00    -0.006 C 
ATOM     28  C   UNL     1      33.833 -15.128 -21.833  0.00  0.00    -0.006 C 
ATOM     29  C   UNL     1      32.968 -13.702 -24.068  0.00  0.00    +0.004 C 
ATOM     30  C   UNL     1      33.543 -13.768 -21.723  0.00  0.00    +0.004 C 
ATOM     31  C   UNL     1      33.111 -13.055 -22.840  0.00  0.00    +0.054 C 
BRANCH  26  32
ATOM     32  C   UNL     1      34.002 -17.229 -23.177  0.00  0.00    -0.050 C 
BRANCH  32  33
ATOM     33  N   UNL     1      34.265 -17.836 -21.873  0.00  0.00    +0.387 N 
ATOM     34  N   UNL     1      35.094 -20.017 -20.167  0.00  0.00    +0.383 N 
ATOM     35  C   UNL     1      35.679 -18.211 -21.749  0.00  0.00    -0.100 C 
ATOM     36  C   UNL     1      33.404 -19.004 -21.659  0.00  0.00    -0.100 C 
ATOM     37  C   UNL     1      35.955 -18.848 -20.382  0.00  0.00    -0.101 C 
ATOM     38  C   UNL     1      33.679 -19.643 -20.293  0.00  0.00    -0.101 C 
ATOM     39  C   UNL     1      35.357 -20.622 -18.863  0.00  0.00    -0.101 C 
ATOM     40  H   UNL     1      34.052 -17.143 -21.156  0.00  0.00    -0.079 HD
ATOM     41  H   UNL     1      35.307 -20.710 -20.884  0.00  0.00    -0.080 HD
ENDBRANCH  32  33
ENDBRANCH  26  32
ENDBRANCH  24  31
ENDBRANCH   1  23
TORSDOF 6
ENDMDL
MODEL 3
REMARK VINA RESULT:     -10.2      7.957     17.041
REMARK  Name = 5291
REMARK  6 active torsions:
REMARK  status: ('A' for Active; 'I' for Inactive)
REMARK    1  A    between atoms: C_1  and  N_23
REMARK    2  A    between atoms: C_2  and  N_8
REMARK    3  A    between atoms: C_12  and  C_17
REMARK    4  A    between atoms: C_24  and  C_31
REMARK    5  A    between atoms: C_26  and  C_32
REMARK    6  A    between atoms: C_32  and  N_33
REMARK                            x       y       z     vdW  Elec       q    Type
REMARK                         _______ _______ _______ _____ _____    ______ ____
ROOT
ATOM      1  C   UNL     1      33.742  -9.631 -23.632  0.00  0.00    +0.052 C 
ATOM      2  C   UNL     1      33.052  -7.494 -22.794  0.00  0.00    +0.055 C 
ATOM      3  C   UNL     1      33.056  -8.884 -22.689  0.00  0.00    +0.030 C 
ATOM      4  C   UNL     1      33.734  -6.871 -23.840  0.00  0.00    -0.008 C 
ATOM      5  C   UNL     1      34.424  -9.030 -24.675  0.00  0.00    +0.014 C 
ATOM      6  C   UNL     1      34.419  -7.639 -24.780  0.00  0.00    -0.002 C 
ATOM      7  C   UNL     1      33.745  -5.383 -23.977  0.00  0.00    +0.032 C 
ENDROOT
BRANCH   2   8
ATOM      8  N   UNL     1      32.353  -6.730 -21.833  0.00  0.00    -0.248 N 
ATOM      9  N   UNL     1      31.037  -5.343 -23.195  0.00  0.00    -0.337 NA
ATOM     10  N   UNL     1      30.925  -5.185 -20.793  0.00  0.00    -0.170 NA
ATOM     11  C   UNL     1      31.394  -5.706 -21.945  0.00  0.00    +0.149 C 
ATOM     12  C   UNL     1      30.118  -4.359 -23.267  0.00  0.00    +0.147 C 
ATOM     13  C   UNL     1      29.563  -3.747 -22.161  0.00  0.00    +0.055 C 
ATOM     14  C   UNL     1      30.009  -4.204 -20.938  0.00  0.00    +0.114 C 
ATOM     15  H   UNL     1      32.579  -6.960 -20.903  0.00  0.00    +0.165 HD
BRANCH  12  17
ATOM     16  N   UNL     1      30.105  -4.144 -26.988  0.00  0.00    -0.242 NA
ATOM     17  C   UNL     1      29.737  -3.972 -24.603  0.00  0.00    +0.050 C 
ATOM     18  C   UNL     1      28.680  -3.095 -24.823  0.00  0.00    +0.006 C 
ATOM     19  C   UNL     1      30.410  -4.464 -25.710  0.00  0.00    +0.101 C 
ATOM     20  C   UNL     1      28.336  -2.741 -26.123  0.00  0.00    +0.021 C 
ATOM     21  C   UNL     1      29.072  -3.289 -27.161  0.00  0.00    +0.099 C 
ENDBRANCH  12  17
ENDBRANCH   2   8
BRANCH   1  23
ATOM     22  O   UNL     1      31.940 -11.464 -22.088  0.00  0.00    -0.270 OA
ATOM     23  N   UNL     1      33.748 -11.043 -23.525  0.00  0.00    -0.280 N 
ATOM     24  C   UNL     1      32.883 -11.867 -22.789  0.00  0.00    +0.249 C 
ATOM     25  H   UNL     1      34.450 -11.508 -24.033  0.00  0.00    +0.155 HD
BRANCH  24  31
ATOM     26  C   UNL     1      33.683 -16.016 -22.976  0.00  0.00    -0.043 C 
ATOM     27  C   UNL     1      33.915 -15.329 -21.794  0.00  0.00    -0.006 C 
ATOM     28  C   UNL     1      33.192 -15.363 -24.099  0.00  0.00    -0.006 C 
ATOM     29  C   UNL     1      33.651 -13.961 -21.732  0.00  0.00    +0.004 C 
ATOM     30  C   UNL     1      32.928 -13.995 -24.037  0.00  0.00    +0.004 C 
ATOM     31  C   UNL     1      33.156 -13.293 -22.853  0.00  0.00    +0.054 C 
BRANCH  26  32
ATOM     32  C   UNL     1      33.967 -17.493 -23.044  0.00  0.00    -0.050 C 
BRANCH  32  33
ATOM     33  N   UNL     1      34.253 -18.054 -21.724  0.00  0.00    +0.387 N 
ATOM     34  N   UNL     1      35.143 -20.163 -19.958  0.00  0.00    +0.383 N 
ATOM     35  C   UNL     1      35.676 -18.393 -21.599  0.00  0.00    -0.100 C 
ATOM     36  C   UNL     1      33.420 -19.234 -21.468  0.00  0.00    -0.100 C 
ATOM     37  C   UNL     1      35.976 -18.982 -20.216  0.00  0.00    -0.101 C 
ATOM     38  C   UNL     1      33.719 -19.824 -20.085  0.00  0.00    -0.101 C 
ATOM     39  C   UNL     1      35.428 -20.721 -18.638  0.00  0.00    -0.101 C 
ATOM     40  H   UNL     1      34.030 -17.344 -21.027  0.00  0.00    -0.079 HD
ATOM     41  H   UNL     1      35.366 -20.872 -20.655  0.00  0.00    -0.080 HD
ENDBRANCH  32  33
ENDBRANCH  26  32
ENDBRANCH  24  31
ENDBRANCH   1  23
TORSDOF 6
ENDMDL
MODEL 4
REMARK VINA RESULT:     -10.2      2.882      5.954
REMARK  Name = 5291
REMARK  6 active torsions:
REMARK  status: ('A' for Active; 'I' for Inactive)
REMARK    1  A    between atoms: C_1  and  N_23
REMARK    2  A    between atoms: C_2  and  N_8
REMARK    3  A    between atoms: C_12  and  C_17
REMARK    4  A    between atoms: C_24  and  C_31
REMARK    5  A    between atoms: C_26  and  C_32
REMARK    6  A    between atoms: C_32  and  N_33
REMARK                            x       y       z     vdW  Elec       q    Type
REMARK                         _______ _______ _______ _____ _____    ______ ____
ROOT
ATOM      1  C   UNL     1      33.405 -19.895 -19.792  0.00  0.00    +0.052 C 
ATOM      2  C   UNL     1      32.244 -21.427 -18.359  0.00  0.00    +0.055 C 
ATOM      3  C   UNL     1      32.252 -20.255 -19.115  0.00  0.00    +0.030 C 
ATOM      4  C   UNL     1      33.389 -22.221 -18.291  0.00  0.00    -0.008 C 
ATOM      5  C   UNL     1      34.550 -20.671 -19.735  0.00  0.00    +0.014 C 
ATOM      6  C   UNL     1      34.541 -21.843 -18.978  0.00  0.00    -0.002 C 
ATOM      7  C   UNL     1      33.408 -23.481 -17.488  0.00  0.00    +0.032 C 
ENDROOT
BRANCH   2   8
ATOM      8  N   UNL     1      31.067 -21.796 -17.670  0.00  0.00    -0.248 N 
ATOM      9  N   UNL     1      31.933 -22.524 -15.613  0.00  0.00    -0.337 NA
ATOM     10  N   UNL     1      29.562 -22.560 -16.040  0.00  0.00    -0.170 NA
ATOM     11  C   UNL     1      30.844 -22.317 -16.382  0.00  0.00    +0.149 C 
ATOM     12  C   UNL     1      31.684 -23.025 -14.386  0.00  0.00    +0.147 C 
ATOM     13  C   UNL     1      30.417 -23.314 -13.919  0.00  0.00    +0.055 C 
ATOM     14  C   UNL     1      29.385 -23.060 -14.798  0.00  0.00    +0.114 C 
ATOM     15  H   UNL     1      30.244 -21.662 -18.191  0.00  0.00    +0.165 HD
BRANCH  12  17
ATOM     16  N   UNL     1      33.799 -24.109 -11.515  0.00  0.00    -0.242 NA
ATOM     17  C   UNL     1      32.849 -23.244 -13.564  0.00  0.00    +0.050 C 
ATOM     18  C   UNL     1      34.111 -22.833 -13.983  0.00  0.00    +0.006 C 
ATOM     19  C   UNL     1      32.749 -23.872 -12.333  0.00  0.00    +0.101 C 
ATOM     20  C   UNL     1      35.215 -23.059 -13.170  0.00  0.00    +0.021 C 
ATOM     21  C   UNL     1      35.008 -23.695 -11.957  0.00  0.00    +0.099 C 
ENDBRANCH  12  17
ENDBRANCH   2   8
BRANCH   1  23
ATOM     22  O   UNL     1      35.565 -17.850 -20.173  0.00  0.00    -0.270 OA
ATOM     23  N   UNL     1      33.414 -18.706 -20.560  0.00  0.00    -0.280 N 
ATOM     24  C   UNL     1      34.449 -17.772 -20.713  0.00  0.00    +0.249 C 
ATOM     25  H   UNL     1      32.584 -18.508 -21.052  0.00  0.00    +0.155 HD
BRANCH  24  31
ATOM     26  C   UNL     1      33.574 -14.432 -23.157  0.00  0.00    -0.043 C 
ATOM     27  C   UNL     1      33.584 -14.285 -21.777  0.00  0.00    -0.006 C 
ATOM     28  C   UNL     1      33.847 -15.659 -23.747  0.00  0.00    -0.006 C 
ATOM     29  C   UNL     1      33.873 -15.386 -20.972  0.00  0.00    +0.004 C 
ATOM     30  C   UNL     1      34.136 -16.760 -22.942  0.00  0.00    +0.004 C 
ATOM     31  C   UNL     1      34.150 -16.624 -21.554  0.00  0.00    +0.054 C 
BRANCH  26  32
ATOM     32  C   UNL     1      33.263 -13.244 -24.028  0.00  0.00    -0.050 C 
BRANCH  32  33
ATOM     33  N   UNL     1      33.246 -11.998 -23.263  0.00  0.00    +0.387 N 
ATOM     34  N   UNL     1      32.194  -9.382 -22.622  0.00  0.00    +0.383 N 
ATOM     35  C   UNL     1      31.974 -11.843 -22.547  0.00  0.00    -0.100 C 
ATOM     36  C   UNL     1      33.484 -10.845 -24.140  0.00  0.00    -0.100 C 
ATOM     37  C   UNL     1      31.956 -10.536 -21.746  0.00  0.00    -0.101 C 
ATOM     38  C   UNL     1      33.465  -9.538 -23.341  0.00  0.00    -0.101 C 
ATOM     39  C   UNL     1      32.179  -8.138 -21.856  0.00  0.00    -0.101 C 
ATOM     40  H   UNL     1      33.999 -12.041 -22.577  0.00  0.00    -0.079 HD
ATOM     41  H   UNL     1      31.441  -9.339 -23.308  0.00  0.00    -0.080 HD
ENDBRANCH  32  33
ENDBRANCH  26  32
ENDBRANCH  24  31
ENDBRANCH   1  23
TORSDOF 6
ENDMDL
MODEL 5
REMARK VINA RESULT:     -10.1      8.130     17.668
REMARK  Name = 5291
REMARK  6 active torsions:
REMARK  status: ('A' for Active; 'I' for Inactive)
REMARK    1  A    between atoms: C_1  and  N_23
REMARK    2  A    between atoms: C_2  and  N_8
REMARK    3  A    between atoms: C_12  and  C_17
REMARK    4  A    between atoms: C_24  and  C_31
REMARK    5  A    between atoms: C_26  and  C_32
REMARK    6  A    between atoms: C_32  and  N_33
REMARK                            x       y       z     vdW  Elec       q    Type
REMARK                         _______ _______ _______ _____ _____    ______ ____
ROOT
ATOM      1  C   UNL     1      31.789  -8.145 -22.744  0.00  0.00    +0.052 C 
ATOM      2  C   UNL     1      30.907  -5.991 -23.319  0.00  0.00    +0.055 C 
ATOM      3  C   UNL     1      31.123  -7.329 -23.644  0.00  0.00    +0.030 C 
ATOM      4  C   UNL     1      31.360  -5.487 -22.099  0.00  0.00    -0.008 C 
ATOM      5  C   UNL     1      32.245  -7.662 -21.530  0.00  0.00    +0.014 C 
ATOM      6  C   UNL     1      32.029  -6.322 -21.205  0.00  0.00    -0.002 C 
ATOM      7  C   UNL     1      31.144  -4.057 -21.726  0.00  0.00    +0.032 C 
ENDROOT
BRANCH   2   8
ATOM      8  N   UNL     1      30.228  -5.158 -24.235  0.00  0.00    -0.248 N 
ATOM      9  N   UNL     1      31.589  -5.339 -26.139  0.00  0.00    -0.337 NA
ATOM     10  N   UNL     1      29.608  -3.966 -26.159  0.00  0.00    -0.170 NA
ATOM     11  C   UNL     1      30.486  -4.805 -25.573  0.00  0.00    +0.149 C 
ATOM     12  C   UNL     1      31.807  -4.979 -27.420  0.00  0.00    +0.147 C 
ATOM     13  C   UNL     1      30.982  -4.129 -28.129  0.00  0.00    +0.055 C 
ATOM     14  C   UNL     1      29.888  -3.648 -27.441  0.00  0.00    +0.114 C 
ATOM     15  H   UNL     1      29.414  -4.745 -23.867  0.00  0.00    +0.165 HD
BRANCH  12  17
ATOM     16  N   UNL     1      34.077  -6.425 -29.999  0.00  0.00    -0.242 NA
ATOM     17  C   UNL     1      32.985  -5.551 -28.025  0.00  0.00    +0.050 C 
ATOM     18  C   UNL     1      34.136  -5.784 -27.278  0.00  0.00    +0.006 C 
ATOM     19  C   UNL     1      33.008  -5.886 -29.370  0.00  0.00    +0.101 C 
ATOM     20  C   UNL     1      35.255  -6.336 -27.889  0.00  0.00    +0.021 C 
ATOM     21  C   UNL     1      35.176  -6.636 -29.240  0.00  0.00    +0.099 C 
ENDBRANCH  12  17
ENDBRANCH   2   8
BRANCH   1  23
ATOM     22  O   UNL     1      34.127  -9.464 -24.079  0.00  0.00    -0.270 OA
ATOM     23  N   UNL     1      32.007  -9.505 -23.073  0.00  0.00    -0.280 N 
ATOM     24  C   UNL     1      33.120 -10.084 -23.700  0.00  0.00    +0.249 C 
ATOM     25  H   UNL     1      31.283 -10.125 -22.829  0.00  0.00    +0.155 HD
BRANCH  24  31
ATOM     26  C   UNL     1      32.902 -14.254 -24.374  0.00  0.00    -0.043 C 
ATOM     27  C   UNL     1      33.057 -13.778 -23.080  0.00  0.00    -0.006 C 
ATOM     28  C   UNL     1      32.817 -13.382 -25.451  0.00  0.00    -0.006 C 
ATOM     29  C   UNL     1      33.128 -12.403 -22.858  0.00  0.00    +0.004 C 
ATOM     30  C   UNL     1      32.888 -12.007 -25.229  0.00  0.00    +0.004 C 
ATOM     31  C   UNL     1      33.043 -11.517 -23.932  0.00  0.00    +0.054 C 
BRANCH  26  32
ATOM     32  C   UNL     1      32.824 -15.738 -24.615  0.00  0.00    -0.050 C 
BRANCH  32  33
ATOM     33  N   UNL     1      33.127 -16.503 -23.406  0.00  0.00    +0.387 N 
ATOM     34  N   UNL     1      34.745 -18.320 -21.844  0.00  0.00    +0.383 N 
ATOM     35  C   UNL     1      34.408 -16.078 -22.828  0.00  0.00    -0.100 C 
ATOM     36  C   UNL     1      33.145 -17.942 -23.690  0.00  0.00    -0.100 C 
ATOM     37  C   UNL     1      34.727 -16.880 -21.561  0.00  0.00    -0.101 C 
ATOM     38  C   UNL     1      33.465 -18.745 -22.425  0.00  0.00    -0.101 C 
ATOM     39  C   UNL     1      35.046 -19.083 -20.636  0.00  0.00    -0.101 C 
ATOM     40  H   UNL     1      32.391 -16.318 -22.725  0.00  0.00    -0.079 HD
ATOM     41  H   UNL     1      35.482 -18.505 -22.525  0.00  0.00    -0.080 HD
ENDBRANCH  32  33
ENDBRANCH  26  32
ENDBRANCH  24  31
ENDBRANCH   1  23
TORSDOF 6
ENDMDL
MODEL 6
REMARK VINA RESULT:      -9.7      8.396     17.032
REMARK  Name = 5291
REMARK  6 active torsions:
REMARK  status: ('A' for Active; 'I' for Inactive)
REMARK    1  A    between atoms: C_1  and  N_23
REMARK    2  A    between atoms: C_2  and  N_8
REMARK    3  A    between atoms: C_12  and  C_17
REMARK    4  A    between atoms: C_24  and  C_31
REMARK    5  A    between atoms: C_26  and  C_32
REMARK    6  A    between atoms: C_32  and  N_33
REMARK                            x       y       z     vdW  Elec       q    Type
REMARK                         _______ _______ _______ _____ _____    ______ ____
ROOT
ATOM      1  C   UNL     1      33.323  -6.980 -25.310  0.00  0.00    +0.052 C 
ATOM      2  C   UNL     1      32.601  -4.743 -24.840  0.00  0.00    +0.055 C 
ATOM      3  C   UNL     1      32.462  -6.117 -24.652  0.00  0.00    +0.030 C 
ATOM      4  C   UNL     1      33.597  -4.251 -25.683  0.00  0.00    -0.008 C 
ATOM      5  C   UNL     1      34.317  -6.509 -26.150  0.00  0.00    +0.014 C 
ATOM      6  C   UNL     1      34.455  -5.133 -26.339  0.00  0.00    -0.002 C 
ATOM      7  C   UNL     1      33.767  -2.783 -25.904  0.00  0.00    +0.032 C 
ENDROOT
BRANCH   2   8
ATOM      8  N   UNL     1      31.724  -3.862 -24.168  0.00  0.00    -0.248 N 
ATOM      9  N   UNL     1      31.166  -5.111 -22.261  0.00  0.00    -0.337 NA
ATOM     10  N   UNL     1      30.252  -2.909 -22.609  0.00  0.00    -0.170 NA
ATOM     11  C   UNL     1      31.015  -3.965 -22.957  0.00  0.00    +0.149 C 
ATOM     12  C   UNL     1      30.471  -5.177 -21.107  0.00  0.00    +0.147 C 
ATOM     13  C   UNL     1      29.658  -4.163 -20.643  0.00  0.00    +0.055 C 
ATOM     14  C   UNL     1      29.585  -3.042 -21.443  0.00  0.00    +0.114 C 
ATOM     15  H   UNL     1      31.584  -3.008 -24.638  0.00  0.00    +0.165 HD
BRANCH  12  17
ATOM     16  N   UNL     1      30.900  -7.502 -18.225  0.00  0.00    -0.242 NA
ATOM     17  C   UNL     1      30.634  -6.403 -20.363  0.00  0.00    +0.050 C 
ATOM     18  C   UNL     1      30.683  -7.634 -21.009  0.00  0.00    +0.006 C 
ATOM     19  C   UNL     1      30.746  -6.392 -18.982  0.00  0.00    +0.101 C 
ATOM     20  C   UNL     1      30.840  -8.798 -20.265  0.00  0.00    +0.021 C 
ATOM     21  C   UNL     1      30.943  -8.679 -18.889  0.00  0.00    +0.099 C 
ENDBRANCH  12  17
ENDBRANCH   2   8
BRANCH   1  23
ATOM     22  O   UNL     1      34.496  -8.775 -23.215  0.00  0.00    -0.270 OA
ATOM     23  N   UNL     1      33.183  -8.376 -25.119  0.00  0.00    -0.280 N 
ATOM     24  C   UNL     1      33.751  -9.182 -24.121  0.00  0.00    +0.249 C 
ATOM     25  H   UNL     1      32.613  -8.842 -25.772  0.00  0.00    +0.155 HD
BRANCH  24  31
ATOM     26  C   UNL     1      32.854 -13.309 -24.352  0.00  0.00    -0.043 C 
ATOM     27  C   UNL     1      32.902 -12.554 -25.516  0.00  0.00    -0.006 C 
ATOM     28  C   UNL     1      33.096 -12.730 -23.114  0.00  0.00    -0.006 C 
ATOM     29  C   UNL     1      33.198 -11.194 -25.439  0.00  0.00    +0.004 C 
ATOM     30  C   UNL     1      33.393 -11.370 -23.038  0.00  0.00    +0.004 C 
ATOM     31  C   UNL     1      33.444 -10.601 -24.200  0.00  0.00    +0.054 C 
BRANCH  26  32
ATOM     32  C   UNL     1      32.535 -14.778 -24.434  0.00  0.00    -0.050 C 
BRANCH  32  33
ATOM     33  N   UNL     1      33.493 -15.586 -23.679  0.00  0.00    +0.387 N 
ATOM     34  N   UNL     1      34.190 -17.590 -21.715  0.00  0.00    +0.383 N 
ATOM     35  C   UNL     1      33.292 -17.015 -23.945  0.00  0.00    -0.100 C 
ATOM     36  C   UNL     1      33.386 -15.312 -22.241  0.00  0.00    -0.100 C 
ATOM     37  C   UNL     1      34.295 -17.863 -23.154  0.00  0.00    -0.101 C 
ATOM     38  C   UNL     1      34.387 -16.159 -21.449  0.00  0.00    -0.101 C 
ATOM     39  C   UNL     1      35.148 -18.396 -20.963  0.00  0.00    -0.101 C 
ATOM     40  H   UNL     1      34.430 -15.330 -23.987  0.00  0.00    -0.079 HD
ATOM     41  H   UNL     1      33.252 -17.846 -21.407  0.00  0.00    -0.080 HD
ENDBRANCH  32  33
ENDBRANCH  26  32
ENDBRANCH  24  31
ENDBRANCH   1  23
TORSDOF 6
ENDMDL
MODEL 7
REMARK VINA RESULT:      -9.6      8.199     15.699
REMARK  Name = 5291
REMARK  6 active torsions:
REMARK  status: ('A' for Active; 'I' for Inactive)
REMARK    1  A    between atoms: C_1  and  N_23
REMARK    2  A    between atoms: C_2  and  N_8
REMARK    3  A    between atoms: C_12  and  C_17
REMARK    4  A    between atoms: C_24  and  C_31
REMARK    5  A    between atoms: C_26  and  C_32
REMARK    6  A    between atoms: C_32  and  N_33
REMARK                            x       y       z     vdW  Elec       q    Type
REMARK                         _______ _______ _______ _____ _____    ______ ____
ROOT
ATOM      1  C   UNL     1      32.394  -7.673 -24.798  0.00  0.00    +0.052 C 
ATOM      2  C   UNL     1      32.035  -5.597 -23.654  0.00  0.00    +0.055 C 
ATOM      3  C   UNL     1      32.066  -6.990 -23.638  0.00  0.00    +0.030 C 
ATOM      4  C   UNL     1      32.332  -4.906 -24.829  0.00  0.00    -0.008 C 
ATOM      5  C   UNL     1      32.691  -7.003 -25.972  0.00  0.00    +0.014 C 
ATOM      6  C   UNL     1      32.659  -5.609 -25.988  0.00  0.00    -0.002 C 
ATOM      7  C   UNL     1      32.305  -3.412 -24.875  0.00  0.00    +0.032 C 
ENDROOT
BRANCH   2   8
ATOM      8  N   UNL     1      31.703  -4.899 -22.472  0.00  0.00    -0.248 N 
ATOM      9  N   UNL     1      31.314  -6.664 -20.974  0.00  0.00    -0.337 NA
ATOM     10  N   UNL     1      31.092  -4.371 -20.268  0.00  0.00    -0.170 NA
ATOM     11  C   UNL     1      31.354  -5.331 -21.178  0.00  0.00    +0.149 C 
ATOM     12  C   UNL     1      30.975  -7.043 -19.725  0.00  0.00    +0.147 C 
ATOM     13  C   UNL     1      30.685  -6.157 -18.707  0.00  0.00    +0.055 C 
ATOM     14  C   UNL     1      30.760  -4.820 -19.039  0.00  0.00    +0.114 C 
ATOM     15  H   UNL     1      31.720  -3.920 -22.571  0.00  0.00    +0.165 HD
BRANCH  12  17
ATOM     16  N   UNL     1      30.898 -10.701 -20.438  0.00  0.00    -0.242 NA
ATOM     17  C   UNL     1      30.933  -8.469 -19.507  0.00  0.00    +0.050 C 
ATOM     18  C   UNL     1      30.891  -8.998 -18.221  0.00  0.00    +0.006 C 
ATOM     19  C   UNL     1      30.935  -9.356 -20.572  0.00  0.00    +0.101 C 
ATOM     20  C   UNL     1      30.851 -10.376 -18.043  0.00  0.00    +0.021 C 
ATOM     21  C   UNL     1      30.857 -11.177 -19.173  0.00  0.00    +0.099 C 
ENDBRANCH  12  17
ENDBRANCH   2   8
BRANCH   1  23
ATOM     22  O   UNL     1      34.227  -9.553 -23.349  0.00  0.00    -0.270 OA
ATOM     23  N   UNL     1      32.426  -9.088 -24.782  0.00  0.00    -0.280 N 
ATOM     24  C   UNL     1      33.304  -9.934 -24.087  0.00  0.00    +0.249 C 
ATOM     25  H   UNL     1      31.744  -9.539 -25.330  0.00  0.00    +0.155 HD
BRANCH  24  31
ATOM     26  C   UNL     1      32.732 -14.083 -24.679  0.00  0.00    -0.043 C 
ATOM     27  C   UNL     1      32.916 -13.596 -23.393  0.00  0.00    -0.006 C 
ATOM     28  C   UNL     1      32.733 -13.230 -25.774  0.00  0.00    -0.006 C 
ATOM     29  C   UNL     1      33.104 -12.228 -23.198  0.00  0.00    +0.004 C 
ATOM     30  C   UNL     1      32.921 -11.862 -25.579  0.00  0.00    +0.004 C 
ATOM     31  C   UNL     1      33.106 -11.360 -24.291  0.00  0.00    +0.054 C 
BRANCH  26  32
ATOM     32  C   UNL     1      32.528 -15.560 -24.891  0.00  0.00    -0.050 C 
BRANCH  32  33
ATOM     33  N   UNL     1      32.910 -16.337 -23.712  0.00  0.00    +0.387 N 
ATOM     34  N   UNL     1      34.662 -18.118 -22.257  0.00  0.00    +0.383 N 
ATOM     35  C   UNL     1      34.194 -15.871 -23.174  0.00  0.00    -0.100 C 
ATOM     36  C   UNL     1      32.976 -17.768 -24.031  0.00  0.00    -0.100 C 
ATOM     37  C   UNL     1      34.595 -16.686 -21.940  0.00  0.00    -0.101 C 
ATOM     38  C   UNL     1      33.378 -18.584 -22.797  0.00  0.00    -0.101 C 
ATOM     39  C   UNL     1      35.042 -18.893 -21.078  0.00  0.00    -0.101 C 
ATOM     40  H   UNL     1      32.194 -16.198 -23.000  0.00  0.00    -0.079 HD
ATOM     41  H   UNL     1      35.378 -18.256 -22.969  0.00  0.00    -0.080 HD
ENDBRANCH  32  33
ENDBRANCH  26  32
ENDBRANCH  24  31
ENDBRANCH   1  23
TORSDOF 6
ENDMDL
MODEL 8
REMARK VINA RESULT:      -9.6      6.524     15.329
REMARK  Name = 5291
REMARK  6 active torsions:
REMARK  status: ('A' for Active; 'I' for Inactive)
REMARK    1  A    between atoms: C_1  and  N_23
REMARK    2  A    between atoms: C_2  and  N_8
REMARK    3  A    between atoms: C_12  and  C_17
REMARK    4  A    between atoms: C_24  and  C_31
REMARK    5  A    between atoms: C_26  and  C_32
REMARK    6  A    between atoms: C_32  and  N_33
REMARK                            x       y       z     vdW  Elec       q    Type
REMARK                         _______ _______ _______ _____ _____    ______ ____
ROOT
ATOM      1  C   UNL     1      33.213 -12.311 -23.171  0.00  0.00    +0.052 C 
ATOM      2  C   UNL     1      32.232 -10.174 -22.706  0.00  0.00    +0.055 C 
ATOM      3  C   UNL     1      32.655 -11.427 -22.263  0.00  0.00    +0.030 C 
ATOM      4  C   UNL     1      32.373  -9.824 -24.049  0.00  0.00    -0.008 C 
ATOM      5  C   UNL     1      33.361 -11.980 -24.506  0.00  0.00    +0.014 C 
ATOM      6  C   UNL     1      32.937 -10.727 -24.949  0.00  0.00    -0.002 C 
ATOM      7  C   UNL     1      31.928  -8.489 -24.550  0.00  0.00    +0.032 C 
ENDROOT
BRANCH   2   8
ATOM      8  N   UNL     1      31.663  -9.270 -21.781  0.00  0.00    -0.248 N 
ATOM      9  N   UNL     1      32.225  -7.200 -22.735  0.00  0.00    -0.337 NA
ATOM     10  N   UNL     1      30.977  -7.316 -20.677  0.00  0.00    -0.170 NA
ATOM     11  C   UNL     1      31.619  -7.865 -21.729  0.00  0.00    +0.149 C 
ATOM     12  C   UNL     1      32.165  -5.855 -22.653  0.00  0.00    +0.147 C 
ATOM     13  C   UNL     1      31.537  -5.177 -21.628  0.00  0.00    +0.055 C 
ATOM     14  C   UNL     1      30.955  -5.967 -20.658  0.00  0.00    +0.114 C 
ATOM     15  H   UNL     1      31.207  -9.709 -21.027  0.00  0.00    +0.165 HD
BRANCH  12  17
ATOM     16  N   UNL     1      32.761  -3.343 -25.341  0.00  0.00    -0.242 NA
ATOM     17  C   UNL     1      32.812  -5.146 -23.730  0.00  0.00    +0.050 C 
ATOM     18  C   UNL     1      34.061  -5.539 -24.201  0.00  0.00    +0.006 C 
ATOM     19  C   UNL     1      32.210  -4.051 -24.329  0.00  0.00    +0.101 C 
ATOM     20  C   UNL     1      34.659  -4.836 -25.240  0.00  0.00    +0.021 C 
ATOM     21  C   UNL     1      33.974  -3.755 -25.771  0.00  0.00    +0.099 C 
ENDBRANCH  12  17
ENDBRANCH   2   8
BRANCH   1  23
ATOM     22  O   UNL     1      32.434 -15.057 -24.090  0.00  0.00    -0.270 OA
ATOM     23  N   UNL     1      33.644 -13.583 -22.722  0.00  0.00    -0.280 N 
ATOM     24  C   UNL     1      33.254 -14.850 -23.180  0.00  0.00    +0.249 C 
ATOM     25  H   UNL     1      34.304 -13.578 -21.991  0.00  0.00    +0.155 HD
BRANCH  24  31
ATOM     26  C   UNL     1      34.997 -18.154 -21.198  0.00  0.00    -0.043 C 
ATOM     27  C   UNL     1      34.817 -18.201 -22.573  0.00  0.00    -0.006 C 
ATOM     28  C   UNL     1      34.614 -17.041 -20.463  0.00  0.00    -0.006 C 
ATOM     29  C   UNL     1      34.242 -17.111 -23.226  0.00  0.00    +0.004 C 
ATOM     30  C   UNL     1      34.040 -15.951 -21.117  0.00  0.00    +0.004 C 
ATOM     31  C   UNL     1      33.854 -15.985 -22.498  0.00  0.00    +0.054 C 
BRANCH  26  32
ATOM     32  C   UNL     1      35.618 -19.330 -20.491  0.00  0.00    -0.050 C 
BRANCH  32  33
ATOM     33  N   UNL     1      34.735 -19.874 -19.460  0.00  0.00    +0.387 N 
ATOM     34  N   UNL     1      33.107 -21.965 -18.303  0.00  0.00    +0.383 N 
ATOM     35  C   UNL     1      35.343 -21.047 -18.819  0.00  0.00    -0.100 C 
ATOM     36  C   UNL     1      33.426 -20.220 -20.025  0.00  0.00    -0.100 C 
ATOM     37  C   UNL     1      34.417 -21.618 -17.739  0.00  0.00    -0.101 C 
ATOM     38  C   UNL     1      32.499 -20.793 -18.947  0.00  0.00    -0.101 C 
ATOM     39  C   UNL     1      32.226 -22.506 -17.272  0.00  0.00    -0.101 C 
ATOM     40  H   UNL     1      34.600 -19.154 -18.751  0.00  0.00    -0.079 HD
ATOM     41  H   UNL     1      33.243 -22.685 -19.012  0.00  0.00    -0.080 HD
ENDBRANCH  32  33
ENDBRANCH  26  32
ENDBRANCH  24  31
ENDBRANCH   1  23
TORSDOF 6
ENDMDL
MODEL 9
REMARK VINA RESULT:      -9.5      4.944     13.836
REMARK  Name = 5291
REMARK  6 active torsions:
REMARK  status: ('A' for Active; 'I' for Inactive)
REMARK    1  A    between atoms: C_1  and  N_23
REMARK    2  A    between atoms: C_2  and  N_8
REMARK    3  A    between atoms: C_12  and  C_17
REMARK    4  A    between atoms: C_24  and  C_31
REMARK    5  A    between atoms: C_26  and  C_32
REMARK    6  A    between atoms: C_32  and  N_33
REMARK                            x       y       z     vdW  Elec       q    Type
REMARK                         _______ _______ _______ _____ _____    ______ ____
ROOT
ATOM      1  C   UNL     1      32.955 -13.797 -24.252  0.00  0.00    +0.052 C 
ATOM      2  C   UNL     1      32.992 -11.464 -24.804  0.00  0.00    +0.055 C 
ATOM      3  C   UNL     1      33.488 -12.533 -24.060  0.00  0.00    +0.030 C 
ATOM      4  C   UNL     1      31.969 -11.673 -25.729  0.00  0.00    -0.008 C 
ATOM      5  C   UNL     1      31.940 -14.022 -25.166  0.00  0.00    +0.014 C 
ATOM      6  C   UNL     1      31.443 -12.951 -25.910  0.00  0.00    -0.002 C 
ATOM      7  C   UNL     1      31.417 -10.545 -26.539  0.00  0.00    +0.032 C 
ENDROOT
BRANCH   2   8
ATOM      8  N   UNL     1      33.536 -10.175 -24.609  0.00  0.00    -0.248 N 
ATOM      9  N   UNL     1      32.525  -9.534 -22.590  0.00  0.00    -0.337 NA
ATOM     10  N   UNL     1      34.054  -8.062 -23.731  0.00  0.00    -0.170 NA
ATOM     11  C   UNL     1      33.364  -9.213 -23.597  0.00  0.00    +0.149 C 
ATOM     12  C   UNL     1      32.382  -8.589 -21.638  0.00  0.00    +0.147 C 
ATOM     13  C   UNL     1      33.034  -7.372 -21.662  0.00  0.00    +0.055 C 
ATOM     14  C   UNL     1      33.865  -7.161 -22.743  0.00  0.00    +0.114 C 
ATOM     15  H   UNL     1      34.157  -9.896 -25.320  0.00  0.00    +0.165 HD
BRANCH  12  17
ATOM     16  N   UNL     1      30.649  -8.468 -18.341  0.00  0.00    -0.242 NA
ATOM     17  C   UNL     1      31.486  -8.933 -20.562  0.00  0.00    +0.050 C 
ATOM     18  C   UNL     1      30.615 -10.013 -20.671  0.00  0.00    +0.006 C 
ATOM     19  C   UNL     1      31.463  -8.199 -19.387  0.00  0.00    +0.101 C 
ATOM     20  C   UNL     1      29.762 -10.320 -19.617  0.00  0.00    +0.021 C 
ATOM     21  C   UNL     1      29.818  -9.524 -18.484  0.00  0.00    +0.099 C 
ENDBRANCH  12  17
ENDBRANCH   2   8
BRANCH   1  23
ATOM     22  O   UNL     1      32.669 -16.751 -24.679  0.00  0.00    -0.270 OA
ATOM     23  N   UNL     1      33.460 -14.883 -23.498  0.00  0.00    -0.280 N 
ATOM     24  C   UNL     1      33.303 -16.258 -23.732  0.00  0.00    +0.249 C 
ATOM     25  H   UNL     1      33.991 -14.643 -22.704  0.00  0.00    +0.155 HD
BRANCH  24  31
ATOM     26  C   UNL     1      35.097 -18.834 -20.898  0.00  0.00    -0.043 C 
ATOM     27  C   UNL     1      34.668 -19.348 -22.113  0.00  0.00    -0.006 C 
ATOM     28  C   UNL     1      34.947 -17.487 -20.599  0.00  0.00    -0.006 C 
ATOM     29  C   UNL     1      34.077 -18.499 -23.047  0.00  0.00    +0.004 C 
ATOM     30  C   UNL     1      34.356 -16.637 -21.533  0.00  0.00    +0.004 C 
ATOM     31  C   UNL     1      33.921 -17.142 -22.758  0.00  0.00    +0.054 C 
BRANCH  26  32
ATOM     32  C   UNL     1      35.737 -19.750 -19.889  0.00  0.00    -0.050 C 
BRANCH  32  33
ATOM     33  N   UNL     1      34.767 -20.247 -18.914  0.00  0.00    +0.387 N 
ATOM     34  N   UNL     1      33.081 -22.301 -17.773  0.00  0.00    +0.383 N 
ATOM     35  C   UNL     1      35.335 -21.352 -18.131  0.00  0.00    -0.100 C 
ATOM     36  C   UNL     1      33.530 -20.673 -19.579  0.00  0.00    -0.100 C 
ATOM     37  C   UNL     1      34.318 -21.874 -17.109  0.00  0.00    -0.101 C 
ATOM     38  C   UNL     1      32.513 -21.197 -18.559  0.00  0.00    -0.101 C 
ATOM     39  C   UNL     1      32.112 -22.795 -16.798  0.00  0.00    -0.101 C 
ATOM     40  H   UNL     1      34.543 -19.483 -18.277  0.00  0.00    -0.079 HD
ATOM     41  H   UNL     1      33.305 -23.065 -18.410  0.00  0.00    -0.080 HD
ENDBRANCH  32  33
ENDBRANCH  26  32
ENDBRANCH  24  31
ENDBRANCH   1  23
TORSDOF 6
ENDMDL
