MODEL 1
REMARK VINA RESULT:     -12.0      0.000      0.000
REMARK  Name = 24748573
REMARK  3 active torsions:
REMARK  status: ('A' for Active; 'I' for Inactive)
REMARK    1  A    between atoms: N_2  and  C_18
REMARK    2  A    between atoms: C_13  and  C_25
REMARK    3  A    between atoms: C_25  and  O_26
REMARK                            x       y       z     vdW  Elec       q    Type
REMARK                         _______ _______ _______ _____ _____    ______ ____
ROOT
ATOM      1  N   UNL     1      34.000 -22.978 -15.468  0.00  0.00    -0.391 NA
ATOM      2  N   UNL     1      32.674 -22.369 -17.308  0.00  0.00    -0.288 N 
ATOM      3  N   UNL     1      29.263 -23.326 -13.711  0.00  0.00    -0.243 NA
ATOM      4  C   UNL     1      33.024 -23.584 -13.340  0.00  0.00    +0.098 C 
ATOM      5  C   UNL     1      31.716 -23.369 -13.884  0.00  0.00    +0.011 C 
ATOM      6  C   UNL     1      31.589 -22.958 -15.223  0.00  0.00    +0.044 C 
ATOM      7  C   UNL     1      34.133 -23.370 -14.191  0.00  0.00    +0.119 C 
ATOM      8  C   UNL     1      32.756 -22.783 -15.954  0.00  0.00    +0.183 C 
ATOM      9  C   UNL     1      33.273 -23.997 -12.008  0.00  0.00    -0.015 C 
ATOM     10  C   UNL     1      35.418 -23.571 -13.695  0.00  0.00    +0.035 C 
ATOM     11  C   UNL     1      30.327 -22.738 -15.790  0.00  0.00    +0.024 C 
ATOM     12  C   UNL     1      30.499 -23.531 -13.193  0.00  0.00    +0.095 C 
ATOM     13  C   UNL     1      35.644 -23.978 -12.381  0.00  0.00    +0.077 C 
ATOM     14  C   UNL     1      34.569 -24.191 -11.535  0.00  0.00    +0.003 C 
ATOM     15  C   UNL     1      29.210 -22.934 -14.999  0.00  0.00    +0.099 C 
ATOM     16  H   UNL     1      31.855 -22.669 -17.766  0.00  0.00    +0.155 HD
ENDROOT
BRANCH   2  18
ATOM     17 CL   UNL     1      33.231 -19.185 -21.284  0.00  0.00    -0.082 Cl
ATOM     18  C   UNL     1      33.534 -21.615 -18.121  0.00  0.00    +0.051 C 
ATOM     19  C   UNL     1      33.015 -20.865 -19.177  0.00  0.00    +0.026 C 
ATOM     20  C   UNL     1      34.907 -21.614 -17.872  0.00  0.00    +0.015 C 
ATOM     21  C   UNL     1      33.870 -20.112 -19.982  0.00  0.00    +0.059 C 
ATOM     22  C   UNL     1      35.760 -20.862 -18.679  0.00  0.00    +0.002 C 
ATOM     23  C   UNL     1      35.242 -20.111 -19.733  0.00  0.00    +0.011 C 
ENDBRANCH   2  18
BRANCH  13  25
ATOM     24  O   UNL     1      38.008 -24.262 -12.614  0.00  0.00    -0.245 OA
ATOM     25  C   UNL     1      37.002 -24.175 -11.901  0.00  0.00    +0.338 C 
BRANCH  25  26
ATOM     26  O   UNL     1      37.069 -24.256 -10.544  0.00  0.00    -0.477 OA
ATOM     27  H   UNL     1      37.631 -23.678 -10.067  0.00  0.00    +0.295 HD
ENDBRANCH  25  26
ENDBRANCH  13  25
TORSDOF 3
ENDMDL
MODEL 2
REMARK VINA RESULT:     -10.7      3.252      6.363
REMARK  Name = 24748573
REMARK  3 active torsions:
REMARK  status: ('A' for Active; 'I' for Inactive)
REMARK    1  A    between atoms: N_2  and  C_18
REMARK    2  A    between atoms: C_13  and  C_25
REMARK    3  A    between atoms: C_25  and  O_26
REMARK                            x       y       z     vdW  Elec       q    Type
REMARK                         _______ _______ _______ _____ _____    ______ ____
ROOT
ATOM      1  N   UNL     1      33.092 -23.349 -14.959  0.00  0.00    -0.391 NA
ATOM      2  N   UNL     1      31.901 -24.500 -13.294  0.00  0.00    -0.288 N 
ATOM      3  N   UNL     1      36.228 -23.306 -10.984  0.00  0.00    -0.243 NA
ATOM      4  C   UNL     1      35.303 -22.459 -14.558  0.00  0.00    +0.098 C 
ATOM      5  C   UNL     1      35.257 -22.961 -13.216  0.00  0.00    +0.011 C 
ATOM      6  C   UNL     1      34.112 -23.651 -12.782  0.00  0.00    +0.044 C 
ATOM      7  C   UNL     1      34.179 -22.688 -15.384  0.00  0.00    +0.119 C 
ATOM      8  C   UNL     1      33.075 -23.811 -13.690  0.00  0.00    +0.183 C 
ATOM      9  C   UNL     1      36.402 -21.750 -15.104  0.00  0.00    -0.015 C 
ATOM     10  C   UNL     1      34.192 -22.215 -16.694  0.00  0.00    +0.035 C 
ATOM     11  C   UNL     1      34.030 -24.156 -11.477  0.00  0.00    +0.024 C 
ATOM     12  C   UNL     1      36.275 -22.830 -12.252  0.00  0.00    +0.095 C 
ATOM     13  C   UNL     1      35.282 -21.520 -17.215  0.00  0.00    +0.077 C 
ATOM     14  C   UNL     1      36.390 -21.286 -16.418  0.00  0.00    +0.003 C 
ATOM     15  C   UNL     1      35.104 -23.958 -10.630  0.00  0.00    +0.099 C 
ATOM     16  H   UNL     1      32.059 -25.193 -12.611  0.00  0.00    +0.155 HD
ENDROOT
BRANCH   2  18
ATOM     17 CL   UNL     1      28.352 -21.991 -16.006  0.00  0.00    -0.082 Cl
ATOM     18  C   UNL     1      30.559 -24.387 -13.685  0.00  0.00    +0.051 C 
ATOM     19  C   UNL     1      30.168 -23.363 -14.548  0.00  0.00    +0.026 C 
ATOM     20  C   UNL     1      29.615 -25.301 -13.215  0.00  0.00    +0.015 C 
ATOM     21  C   UNL     1      28.835 -23.253 -14.941  0.00  0.00    +0.059 C 
ATOM     22  C   UNL     1      28.282 -25.191 -13.608  0.00  0.00    +0.002 C 
ATOM     23  C   UNL     1      27.892 -24.167 -14.472  0.00  0.00    +0.011 C 
ENDBRANCH   2  18
BRANCH  13  25
ATOM     24  O   UNL     1      35.784 -20.001 -18.994  0.00  0.00    -0.245 OA
ATOM     25  C   UNL     1      35.254 -21.041 -18.587  0.00  0.00    +0.338 C 
BRANCH  25  26
ATOM     26  O   UNL     1      34.568 -21.874 -19.416  0.00  0.00    -0.477 OA
ATOM     27  H   UNL     1      35.025 -22.532 -19.902  0.00  0.00    +0.295 HD
ENDBRANCH  25  26
ENDBRANCH  13  25
TORSDOF 3
ENDMDL
MODEL 3
REMARK VINA RESULT:     -10.5      3.396      6.253
REMARK  Name = 24748573
REMARK  3 active torsions:
REMARK  status: ('A' for Active; 'I' for Inactive)
REMARK    1  A    between atoms: N_2  and  C_18
REMARK    2  A    between atoms: C_13  and  C_25
REMARK    3  A    between atoms: C_25  and  O_26
REMARK                            x       y       z     vdW  Elec       q    Type
REMARK                         _______ _______ _______ _____ _____    ______ ____
ROOT
ATOM      1  N   UNL     1      34.195 -22.902 -15.025  0.00  0.00    -0.391 NA
ATOM      2  N   UNL     1      34.106 -23.926 -12.913  0.00  0.00    -0.288 N 
ATOM      3  N   UNL     1      29.264 -23.825 -14.337  0.00  0.00    -0.243 NA
ATOM      4  C   UNL     1      32.202 -22.514 -16.336  0.00  0.00    +0.098 C 
ATOM      5  C   UNL     1      31.409 -23.106 -15.299  0.00  0.00    +0.011 C 
ATOM      6  C   UNL     1      32.045 -23.585 -14.140  0.00  0.00    +0.044 C 
ATOM      7  C   UNL     1      33.600 -22.442 -16.135  0.00  0.00    +0.119 C 
ATOM      8  C   UNL     1      33.425 -23.455 -14.064  0.00  0.00    +0.183 C 
ATOM      9  C   UNL     1      31.672 -21.998 -17.545  0.00  0.00    -0.015 C 
ATOM     10  C   UNL     1      34.399 -21.871 -17.123  0.00  0.00    +0.035 C 
ATOM     11  C   UNL     1      31.304 -24.170 -13.105  0.00  0.00    +0.024 C 
ATOM     12  C   UNL     1      30.010 -23.264 -15.320  0.00  0.00    +0.095 C 
ATOM     13  C   UNL     1      33.860 -21.368 -18.306  0.00  0.00    +0.077 C 
ATOM     14  C   UNL     1      32.493 -21.432 -18.518  0.00  0.00    +0.003 C 
ATOM     15  C   UNL     1      29.932 -24.264 -13.253  0.00  0.00    +0.099 C 
ATOM     16  H   UNL     1      33.569 -23.884 -12.089  0.00  0.00    +0.155 HD
ENDROOT
BRANCH   2  18
ATOM     17 CL   UNL     1      38.862 -24.538 -14.718  0.00  0.00    -0.082 Cl
ATOM     18  C   UNL     1      35.397 -24.439 -12.721  0.00  0.00    +0.051 C 
ATOM     19  C   UNL     1      36.373 -24.257 -13.702  0.00  0.00    +0.026 C 
ATOM     20  C   UNL     1      35.707 -25.129 -11.549  0.00  0.00    +0.015 C 
ATOM     21  C   UNL     1      37.658 -24.764 -13.510  0.00  0.00    +0.059 C 
ATOM     22  C   UNL     1      36.993 -25.636 -11.357  0.00  0.00    +0.002 C 
ATOM     23  C   UNL     1      37.968 -25.453 -12.337  0.00  0.00    +0.011 C 
ENDBRANCH   2  18
BRANCH  13  25
ATOM     24  O   UNL     1      35.957 -20.916 -19.365  0.00  0.00    -0.245 OA
ATOM     25  C   UNL     1      34.729 -20.782 -19.313  0.00  0.00    +0.338 C 
BRANCH  25  26
ATOM     26  O   UNL     1      34.043 -20.045 -20.229  0.00  0.00    -0.477 OA
ATOM     27  H   UNL     1      33.238 -20.370 -20.582  0.00  0.00    +0.295 HD
ENDBRANCH  25  26
ENDBRANCH  13  25
TORSDOF 3
ENDMDL
MODEL 4
REMARK VINA RESULT:     -10.5      4.242      7.271
REMARK  Name = 24748573
REMARK  3 active torsions:
REMARK  status: ('A' for Active; 'I' for Inactive)
REMARK    1  A    between atoms: N_2  and  C_18
REMARK    2  A    between atoms: C_13  and  C_25
REMARK    3  A    between atoms: C_25  and  O_26
REMARK                            x       y       z     vdW  Elec       q    Type
REMARK                         _______ _______ _______ _____ _____    ______ ____
ROOT
ATOM      1  N   UNL     1      32.736 -22.455 -16.889  0.00  0.00    -0.391 NA
ATOM      2  N   UNL     1      32.117 -23.759 -15.036  0.00  0.00    -0.288 N 
ATOM      3  N   UNL     1      37.004 -22.818 -14.190  0.00  0.00    -0.243 NA
ATOM      4  C   UNL     1      34.987 -21.619 -17.163  0.00  0.00    +0.098 C 
ATOM      5  C   UNL     1      35.367 -22.250 -15.934  0.00  0.00    +0.011 C 
ATOM      6  C   UNL     1      34.403 -22.975 -15.210  0.00  0.00    +0.044 C 
ATOM      7  C   UNL     1      33.646 -21.761 -17.589  0.00  0.00    +0.119 C 
ATOM      8  C   UNL     1      33.120 -23.040 -15.735  0.00  0.00    +0.183 C 
ATOM      9  C   UNL     1      35.871 -20.866 -17.975  0.00  0.00    -0.015 C 
ATOM     10  C   UNL     1      33.245 -21.162 -18.780  0.00  0.00    +0.035 C 
ATOM     11  C   UNL     1      34.736 -23.605 -14.004  0.00  0.00    +0.024 C 
ATOM     12  C   UNL     1      36.649 -22.220 -15.353  0.00  0.00    +0.095 C 
ATOM     13  C   UNL     1      34.128 -20.423 -19.566  0.00  0.00    +0.077 C 
ATOM     14  C   UNL     1      35.445 -20.275 -19.163  0.00  0.00    +0.003 C 
ATOM     15  C   UNL     1      36.036 -23.497 -13.545  0.00  0.00    +0.099 C 
ATOM     16  H   UNL     1      32.465 -24.516 -14.511  0.00  0.00    +0.155 HD
ENDROOT
BRANCH   2  18
ATOM     17 CL   UNL     1      27.611 -25.633 -13.477  0.00  0.00    -0.082 Cl
ATOM     18  C   UNL     1      30.726 -23.602 -14.950  0.00  0.00    +0.051 C 
ATOM     19  C   UNL     1      29.950 -24.583 -14.331  0.00  0.00    +0.026 C 
ATOM     20  C   UNL     1      30.118 -22.463 -15.480  0.00  0.00    +0.015 C 
ATOM     21  C   UNL     1      28.567 -24.424 -14.241  0.00  0.00    +0.059 C 
ATOM     22  C   UNL     1      28.735 -22.306 -15.391  0.00  0.00    +0.002 C 
ATOM     23  C   UNL     1      27.960 -23.286 -14.771  0.00  0.00    +0.011 C 
ENDBRANCH   2  18
BRANCH  13  25
ATOM     24  O   UNL     1      34.396 -19.421 -21.722  0.00  0.00    -0.245 OA
ATOM     25  C   UNL     1      33.669 -19.812 -20.802  0.00  0.00    +0.338 C 
BRANCH  25  26
ATOM     26  O   UNL     1      32.312 -19.705 -20.858  0.00  0.00    -0.477 OA
ATOM     27  H   UNL     1      31.858 -19.926 -21.647  0.00  0.00    +0.295 HD
ENDBRANCH  25  26
ENDBRANCH  13  25
TORSDOF 3
ENDMDL
MODEL 5
REMARK VINA RESULT:      -9.6      3.126      4.888
REMARK  Name = 24748573
REMARK  3 active torsions:
REMARK  status: ('A' for Active; 'I' for Inactive)
REMARK    1  A    between atoms: N_2  and  C_18
REMARK    2  A    between atoms: C_13  and  C_25
REMARK    3  A    between atoms: C_25  and  O_26
REMARK                            x       y       z     vdW  Elec       q    Type
REMARK                         _______ _______ _______ _____ _____    ______ ____
ROOT
ATOM      1  N   UNL     1      33.158 -22.487 -15.542  0.00  0.00    -0.391 NA
ATOM      2  N   UNL     1      35.201 -21.726 -16.415  0.00  0.00    -0.288 N 
ATOM      3  N   UNL     1      36.631 -25.039 -12.883  0.00  0.00    -0.243 NA
ATOM      4  C   UNL     1      33.062 -24.130 -13.772  0.00  0.00    +0.098 C 
ATOM      5  C   UNL     1      34.494 -24.183 -13.750  0.00  0.00    +0.011 C 
ATOM      6  C   UNL     1      35.224 -23.375 -14.640  0.00  0.00    +0.044 C 
ATOM      7  C   UNL     1      32.451 -23.254 -14.699  0.00  0.00    +0.119 C 
ATOM      8  C   UNL     1      34.505 -22.557 -15.501  0.00  0.00    +0.183 C 
ATOM      9  C   UNL     1      32.226 -24.897 -12.924  0.00  0.00    -0.015 C 
ATOM     10  C   UNL     1      31.062 -23.177 -14.744  0.00  0.00    +0.035 C 
ATOM     11  C   UNL     1      36.625 -23.400 -14.648  0.00  0.00    +0.024 C 
ATOM     12  C   UNL     1      35.276 -24.990 -12.901  0.00  0.00    +0.095 C 
ATOM     13  C   UNL     1      30.254 -23.939 -13.903  0.00  0.00    +0.077 C 
ATOM     14  C   UNL     1      30.837 -24.802 -12.990  0.00  0.00    +0.003 C 
ATOM     15  C   UNL     1      37.270 -24.239 -13.760  0.00  0.00    +0.099 C 
ATOM     16  H   UNL     1      36.084 -21.433 -16.092  0.00  0.00    +0.155 HD
ENDROOT
BRANCH   2  18
ATOM     17 CL   UNL     1      36.528 -18.876 -20.461  0.00  0.00    -0.082 Cl
ATOM     18  C   UNL     1      34.875 -21.240 -17.690  0.00  0.00    +0.051 C 
ATOM     19  C   UNL     1      35.760 -20.396 -18.362  0.00  0.00    +0.026 C 
ATOM     20  C   UNL     1      33.668 -21.603 -18.287  0.00  0.00    +0.015 C 
ATOM     21  C   UNL     1      35.437 -19.916 -19.631  0.00  0.00    +0.059 C 
ATOM     22  C   UNL     1      33.345 -21.122 -19.556  0.00  0.00    +0.002 C 
ATOM     23  C   UNL     1      34.231 -20.279 -20.228  0.00  0.00    +0.011 C 
ENDBRANCH   2  18
BRANCH  13  25
ATOM     24  O   UNL     1      28.184 -22.848 -14.403  0.00  0.00    -0.245 OA
ATOM     25  C   UNL     1      28.806 -23.831 -13.984  0.00  0.00    +0.338 C 
BRANCH  25  26
ATOM     26  O   UNL     1      28.174 -24.952 -13.543  0.00  0.00    -0.477 OA
ATOM     27  H   UNL     1      27.836 -25.572 -14.159  0.00  0.00    +0.295 HD
ENDBRANCH  25  26
ENDBRANCH  13  25
TORSDOF 3
ENDMDL
MODEL 6
REMARK VINA RESULT:      -9.5     12.107     14.986
REMARK  Name = 24748573
REMARK  3 active torsions:
REMARK  status: ('A' for Active; 'I' for Inactive)
REMARK    1  A    between atoms: N_2  and  C_18
REMARK    2  A    between atoms: C_13  and  C_25
REMARK    3  A    between atoms: C_25  and  O_26
REMARK                            x       y       z     vdW  Elec       q    Type
REMARK                         _______ _______ _______ _____ _____    ______ ____
ROOT
ATOM      1  N   UNL     1      32.246 -10.105 -22.891  0.00  0.00    -0.391 NA
ATOM      2  N   UNL     1      31.613  -7.869 -22.553  0.00  0.00    -0.288 N 
ATOM      3  N   UNL     1      30.440 -10.063 -18.161  0.00  0.00    -0.243 NA
ATOM      4  C   UNL     1      31.972 -11.780 -21.170  0.00  0.00    +0.098 C 
ATOM      5  C   UNL     1      31.416 -10.787 -20.298  0.00  0.00    +0.011 C 
ATOM      6  C   UNL     1      31.291  -9.464 -20.758  0.00  0.00    +0.044 C 
ATOM      7  C   UNL     1      32.370 -11.371 -22.463  0.00  0.00    +0.119 C 
ATOM      8  C   UNL     1      31.719  -9.190 -22.050  0.00  0.00    +0.183 C 
ATOM      9  C   UNL     1      32.145 -13.141 -20.816  0.00  0.00    -0.015 C 
ATOM     10  C   UNL     1      32.913 -12.311 -23.335  0.00  0.00    +0.035 C 
ATOM     11  C   UNL     1      30.753  -8.466 -19.935  0.00  0.00    +0.024 C 
ATOM     12  C   UNL     1      30.965 -11.005 -18.982  0.00  0.00    +0.095 C 
ATOM     13  C   UNL     1      33.076 -13.646 -22.970  0.00  0.00    +0.077 C 
ATOM     14  C   UNL     1      32.691 -14.063 -21.706  0.00  0.00    +0.003 C 
ATOM     15  C   UNL     1      30.347  -8.816 -18.661  0.00  0.00    +0.099 C 
ATOM     16  H   UNL     1      30.861  -7.359 -22.173  0.00  0.00    +0.155 HD
ENDROOT
BRANCH   2  18
ATOM     17 CL   UNL     1      32.049  -6.029 -27.315  0.00  0.00    -0.082 Cl
ATOM     18  C   UNL     1      32.370  -7.149 -23.489  0.00  0.00    +0.051 C 
ATOM     19  C   UNL     1      31.890  -6.970 -24.787  0.00  0.00    +0.026 C 
ATOM     20  C   UNL     1      33.603  -6.608 -23.120  0.00  0.00    +0.015 C 
ATOM     21  C   UNL     1      32.641  -6.250 -25.715  0.00  0.00    +0.059 C 
ATOM     22  C   UNL     1      34.354  -5.888 -24.050  0.00  0.00    +0.002 C 
ATOM     23  C   UNL     1      33.873  -5.709 -25.347  0.00  0.00    +0.011 C 
ENDBRANCH   2  18
BRANCH  13  25
ATOM     24  O   UNL     1      33.227 -14.818 -25.050  0.00  0.00    -0.245 OA
ATOM     25  C   UNL     1      33.649 -14.596 -23.910  0.00  0.00    +0.338 C 
BRANCH  25  26
ATOM     26  O   UNL     1      34.734 -15.241 -23.402  0.00  0.00    -0.477 OA
ATOM     27  H   UNL     1      34.721 -15.557 -22.519  0.00  0.00    +0.295 HD
ENDBRANCH  25  26
ENDBRANCH  13  25
TORSDOF 3
ENDMDL
