MODEL 1
REMARK VINA RESULT:     -11.9      0.000      0.000
REMARK  Name = 24871491
REMARK  6 active torsions:
REMARK  status: ('A' for Active; 'I' for Inactive)
REMARK    1  A    between atoms: N_1  and  C_11
REMARK    2  A    between atoms: N_2  and  C_18
REMARK    3  A    between atoms: C_6  and  C_31
REMARK    4  A    between atoms: C_19  and  C_24
REMARK    5  A    between atoms: C_24  and  C_26
REMARK    6  A    between atoms: C_26  and  O_27
REMARK                            x       y       z     vdW  Elec       q    Type
REMARK                         _______ _______ _______ _____ _____    ______ ____
ROOT
ATOM      1  N   UNL     1      31.844 -23.040 -16.335  0.00  0.00    -0.287 N 
ATOM      2  N   UNL     1      33.423 -24.259 -12.064  0.00  0.00    -0.247 N 
ATOM      3  N   UNL     1      32.650 -23.653 -14.192  0.00  0.00    -0.322 NA
ATOM      4  N   UNL     1      31.115 -23.984 -12.365  0.00  0.00    -0.169 NA
ATOM      5  C   UNL     1      31.593 -23.363 -14.979  0.00  0.00    +0.202 C 
ATOM      6  C   UNL     1      30.286 -23.362 -14.536  0.00  0.00    +0.118 C 
ATOM      7  C   UNL     1      32.343 -23.951 -12.915  0.00  0.00    +0.150 C 
ATOM      8  C   UNL     1      30.104 -23.684 -13.207  0.00  0.00    +0.120 C 
ATOM      9  H   UNL     1      31.112 -23.288 -16.944  0.00  0.00    +0.155 HD
ATOM     10  H   UNL     1      33.152 -24.469 -11.141  0.00  0.00    +0.165 HD
ENDROOT
BRANCH   1  11
ATOM     11  C   UNL     1      32.935 -22.435 -16.979  0.00  0.00    +0.050 C 
ATOM     12  C   UNL     1      34.145 -22.276 -16.301  0.00  0.00    +0.010 C 
ATOM     13  C   UNL     1      35.228 -21.675 -16.942  0.00  0.00    -0.021 C 
ATOM     14  C   UNL     1      32.811 -21.994 -18.296  0.00  0.00    +0.015 C 
ATOM     15  C   UNL     1      35.104 -21.234 -18.259  0.00  0.00    -0.004 C 
ATOM     16  C   UNL     1      33.895 -21.393 -18.936  0.00  0.00    +0.001 C 
ATOM     17  C   UNL     1      36.521 -21.503 -16.217  0.00  0.00    +0.031 C 
ENDBRANCH   1  11
BRANCH   2  18
ATOM     18  C   UNL     1      34.816 -24.326 -12.273  0.00  0.00    +0.058 C 
ATOM     19  C   UNL     1      37.571 -24.458 -12.687  0.00  0.00    -0.011 C 
ATOM     20  C   UNL     1      35.552 -25.378 -11.731  0.00  0.00    +0.015 C 
ATOM     21  C   UNL     1      35.457 -23.338 -13.022  0.00  0.00    +0.015 C 
ATOM     22  C   UNL     1      36.931 -25.444 -11.938  0.00  0.00    -0.002 C 
ATOM     23  C   UNL     1      36.834 -23.404 -13.229  0.00  0.00    -0.002 C 
BRANCH  19  24
ATOM     24  C   UNL     1      39.044 -24.529 -12.908  0.00  0.00    +0.136 C 
BRANCH  24  26
ATOM     25  O   UNL     1      40.248 -26.589 -13.395  0.00  0.00    -0.250 OA
ATOM     26  C   UNL     1      39.473 -25.713 -13.753  0.00  0.00    +0.318 C 
BRANCH  26  27
ATOM     27  O   UNL     1      38.890 -25.696 -14.981  0.00  0.00    -0.480 OA
ATOM     28  H   UNL     1      39.422 -25.718 -15.752  0.00  0.00    +0.295 HD
ENDBRANCH  26  27
ENDBRANCH  24  26
ENDBRANCH  19  24
ENDBRANCH   2  18
BRANCH   6  31
ATOM     29  O   UNL     1      29.161 -22.079 -16.161  0.00  0.00    -0.270 OA
ATOM     30  N   UNL     1      28.037 -23.887 -15.309  0.00  0.00    -0.325 N 
ATOM     31  C   UNL     1      29.145 -23.050 -15.383  0.00  0.00    +0.248 C 
ATOM     32  H   UNL     1      27.246 -23.707 -15.867  0.00  0.00    +0.145 HD
ATOM     33  H   UNL     1      28.042 -24.660 -14.699  0.00  0.00    +0.145 HD
ENDBRANCH   6  31
TORSDOF 6
ENDMDL
MODEL 2
REMARK VINA RESULT:     -11.6      2.020      7.348
REMARK  Name = 24871491
REMARK  6 active torsions:
REMARK  status: ('A' for Active; 'I' for Inactive)
REMARK    1  A    between atoms: N_1  and  C_11
REMARK    2  A    between atoms: N_2  and  C_18
REMARK    3  A    between atoms: C_6  and  C_31
REMARK    4  A    between atoms: C_19  and  C_24
REMARK    5  A    between atoms: C_24  and  C_26
REMARK    6  A    between atoms: C_26  and  O_27
REMARK                            x       y       z     vdW  Elec       q    Type
REMARK                         _______ _______ _______ _____ _____    ______ ____
ROOT
ATOM      1  N   UNL     1      34.779 -22.305 -14.710  0.00  0.00    -0.287 N 
ATOM      2  N   UNL     1      30.990 -24.325 -12.764  0.00  0.00    -0.247 N 
ATOM      3  N   UNL     1      32.866 -23.316 -13.741  0.00  0.00    -0.322 NA
ATOM      4  N   UNL     1      33.056 -24.554 -11.683  0.00  0.00    -0.169 NA
ATOM      5  C   UNL     1      34.192 -23.074 -13.675  0.00  0.00    +0.202 C 
ATOM      6  C   UNL     1      35.005 -23.532 -12.658  0.00  0.00    +0.118 C 
ATOM      7  C   UNL     1      32.371 -24.052 -12.727  0.00  0.00    +0.150 C 
ATOM      8  C   UNL     1      34.376 -24.274 -11.679  0.00  0.00    +0.120 C 
ATOM      9  H   UNL     1      35.559 -21.780 -14.421  0.00  0.00    +0.155 HD
ATOM     10  H   UNL     1      30.673 -24.865 -12.005  0.00  0.00    +0.165 HD
ENDROOT
BRANCH   1  11
ATOM     11  C   UNL     1      34.463 -22.148 -16.069  0.00  0.00    +0.050 C 
ATOM     12  C   UNL     1      35.331 -21.451 -16.911  0.00  0.00    +0.010 C 
ATOM     13  C   UNL     1      35.016 -21.295 -18.261  0.00  0.00    -0.021 C 
ATOM     14  C   UNL     1      33.282 -22.688 -16.578  0.00  0.00    +0.015 C 
ATOM     15  C   UNL     1      33.836 -21.836 -18.770  0.00  0.00    -0.004 C 
ATOM     16  C   UNL     1      32.968 -22.531 -17.928  0.00  0.00    +0.001 C 
ATOM     17  C   UNL     1      35.943 -20.550 -19.161  0.00  0.00    +0.031 C 
ENDBRANCH   1  11
BRANCH   2  18
ATOM     18  C   UNL     1      29.971 -23.977 -13.675  0.00  0.00    +0.058 C 
ATOM     19  C   UNL     1      27.956 -23.290 -15.477  0.00  0.00    -0.011 C 
ATOM     20  C   UNL     1      28.941 -24.877 -13.946  0.00  0.00    +0.015 C 
ATOM     21  C   UNL     1      29.994 -22.733 -14.306  0.00  0.00    +0.015 C 
ATOM     22  C   UNL     1      27.933 -24.533 -14.847  0.00  0.00    -0.002 C 
ATOM     23  C   UNL     1      28.987 -22.389 -15.207  0.00  0.00    -0.002 C 
BRANCH  19  24
ATOM     24  C   UNL     1      26.878 -22.922 -16.441  0.00  0.00    +0.136 C 
BRANCH  24  26
ATOM     25  O   UNL     1      25.663 -20.818 -16.603  0.00  0.00    -0.250 OA
ATOM     26  C   UNL     1      25.985 -21.801 -15.949  0.00  0.00    +0.318 C 
BRANCH  26  27
ATOM     27  O   UNL     1      25.569 -22.007 -14.671  0.00  0.00    -0.480 OA
ATOM     28  H   UNL     1      26.132 -22.440 -14.060  0.00  0.00    +0.295 HD
ENDBRANCH  26  27
ENDBRANCH  24  26
ENDBRANCH  19  24
ENDBRANCH   2  18
BRANCH   6  31
ATOM     29  O   UNL     1      37.157 -23.329 -13.594  0.00  0.00    -0.270 OA
ATOM     30  N   UNL     1      36.966 -22.934 -11.344  0.00  0.00    -0.325 N 
ATOM     31  C   UNL     1      36.433 -23.271 -12.584  0.00  0.00    +0.248 C 
ATOM     32  H   UNL     1      37.930 -22.751 -11.255  0.00  0.00    +0.145 HD
ATOM     33  H   UNL     1      36.380 -22.879 -10.555  0.00  0.00    +0.145 HD
ENDBRANCH   6  31
TORSDOF 6
ENDMDL
MODEL 3
REMARK VINA RESULT:     -11.5      1.164      2.013
REMARK  Name = 24871491
REMARK  6 active torsions:
REMARK  status: ('A' for Active; 'I' for Inactive)
REMARK    1  A    between atoms: N_1  and  C_11
REMARK    2  A    between atoms: N_2  and  C_18
REMARK    3  A    between atoms: C_6  and  C_31
REMARK    4  A    between atoms: C_19  and  C_24
REMARK    5  A    between atoms: C_24  and  C_26
REMARK    6  A    between atoms: C_26  and  O_27
REMARK                            x       y       z     vdW  Elec       q    Type
REMARK                         _______ _______ _______ _____ _____    ______ ____
ROOT
ATOM      1  N   UNL     1      31.189 -22.687 -16.734  0.00  0.00    -0.287 N 
ATOM      2  N   UNL     1      33.320 -24.376 -12.883  0.00  0.00    -0.247 N 
ATOM      3  N   UNL     1      32.272 -23.537 -14.805  0.00  0.00    -0.322 NA
ATOM      4  N   UNL     1      31.017 -23.953 -12.790  0.00  0.00    -0.169 NA
ATOM      5  C   UNL     1      31.128 -23.120 -15.387  0.00  0.00    +0.202 C 
ATOM      6  C   UNL     1      29.908 -23.090 -14.744  0.00  0.00    +0.118 C 
ATOM      7  C   UNL     1      32.145 -23.934 -13.524  0.00  0.00    +0.150 C 
ATOM      8  C   UNL     1      29.911 -23.523 -13.434  0.00  0.00    +0.120 C 
ATOM      9  H   UNL     1      30.357 -22.839 -17.238  0.00  0.00    +0.155 HD
ATOM     10  H   UNL     1      33.180 -24.655 -11.950  0.00  0.00    +0.165 HD
ENDROOT
BRANCH   1  11
ATOM     11  C   UNL     1      32.207 -22.084 -17.491  0.00  0.00    +0.050 C 
ATOM     12  C   UNL     1      31.880 -21.203 -18.523  0.00  0.00    +0.010 C 
ATOM     13  C   UNL     1      32.891 -20.605 -19.274  0.00  0.00    -0.021 C 
ATOM     14  C   UNL     1      33.544 -22.365 -17.212  0.00  0.00    +0.015 C 
ATOM     15  C   UNL     1      34.228 -20.885 -18.995  0.00  0.00    -0.004 C 
ATOM     16  C   UNL     1      34.555 -21.767 -17.964  0.00  0.00    +0.001 C 
ATOM     17  C   UNL     1      32.542 -19.664 -20.377  0.00  0.00    +0.031 C 
ENDBRANCH   1  11
BRANCH   2  18
ATOM     18  C   UNL     1      34.657 -24.497 -13.316  0.00  0.00    +0.058 C 
ATOM     19  C   UNL     1      37.300 -24.736 -14.173  0.00  0.00    -0.011 C 
ATOM     20  C   UNL     1      35.445 -23.358 -13.471  0.00  0.00    +0.015 C 
ATOM     21  C   UNL     1      35.189 -25.757 -13.591  0.00  0.00    +0.015 C 
ATOM     22  C   UNL     1      36.768 -23.477 -13.899  0.00  0.00    -0.002 C 
ATOM     23  C   UNL     1      36.511 -25.876 -14.020  0.00  0.00    -0.002 C 
BRANCH  19  24
ATOM     24  C   UNL     1      38.714 -24.864 -14.632  0.00  0.00    +0.136 C 
BRANCH  24  26
ATOM     25  O   UNL     1      40.196 -26.437 -13.510  0.00  0.00    -0.250 OA
ATOM     26  C   UNL     1      39.661 -25.337 -13.547  0.00  0.00    +0.318 C 
BRANCH  26  27
ATOM     27  O   UNL     1      39.856 -24.387 -12.595  0.00  0.00    -0.480 OA
ATOM     28  H   UNL     1      39.378 -24.425 -11.790  0.00  0.00    +0.295 HD
ENDBRANCH  26  27
ENDBRANCH  24  26
ENDBRANCH  19  24
ENDBRANCH   2  18
BRANCH   6  31
ATOM     29  O   UNL     1      28.656 -21.668 -16.143  0.00  0.00    -0.270 OA
ATOM     30  N   UNL     1      27.511 -23.352 -15.090  0.00  0.00    -0.325 N 
ATOM     31  C   UNL     1      28.674 -22.642 -15.370  0.00  0.00    +0.248 C 
ATOM     32  H   UNL     1      26.657 -23.077 -15.495  0.00  0.00    +0.145 HD
ATOM     33  H   UNL     1      27.542 -24.129 -14.486  0.00  0.00    +0.145 HD
ENDBRANCH   6  31
TORSDOF 6
ENDMDL
MODEL 4
REMARK VINA RESULT:     -11.4      2.087      7.095
REMARK  Name = 24871491
REMARK  6 active torsions:
REMARK  status: ('A' for Active; 'I' for Inactive)
REMARK    1  A    between atoms: N_1  and  C_11
REMARK    2  A    between atoms: N_2  and  C_18
REMARK    3  A    between atoms: C_6  and  C_31
REMARK    4  A    between atoms: C_19  and  C_24
REMARK    5  A    between atoms: C_24  and  C_26
REMARK    6  A    between atoms: C_26  and  O_27
REMARK                            x       y       z     vdW  Elec       q    Type
REMARK                         _______ _______ _______ _____ _____    ______ ____
ROOT
ATOM      1  N   UNL     1      35.132 -22.360 -15.817  0.00  0.00    -0.287 N 
ATOM      2  N   UNL     1      32.070 -24.613 -13.029  0.00  0.00    -0.247 N 
ATOM      3  N   UNL     1      33.582 -23.486 -14.421  0.00  0.00    -0.322 NA
ATOM      4  N   UNL     1      34.353 -25.081 -12.787  0.00  0.00    -0.169 NA
ATOM      5  C   UNL     1      34.868 -23.290 -14.781  0.00  0.00    +0.202 C 
ATOM      6  C   UNL     1      35.935 -23.943 -14.200  0.00  0.00    +0.118 C 
ATOM      7  C   UNL     1      33.400 -24.382 -13.431  0.00  0.00    +0.150 C 
ATOM      8  C   UNL     1      35.615 -24.836 -13.197  0.00  0.00    +0.120 C 
ATOM      9  H   UNL     1      36.006 -21.914 -15.736  0.00  0.00    +0.155 HD
ATOM     10  H   UNL     1      31.985 -25.274 -12.306  0.00  0.00    +0.165 HD
ENDROOT
BRANCH   1  11
ATOM     11  C   UNL     1      34.389 -21.952 -16.936  0.00  0.00    +0.050 C 
ATOM     12  C   UNL     1      34.994 -21.183 -17.932  0.00  0.00    +0.010 C 
ATOM     13  C   UNL     1      34.255 -20.778 -19.043  0.00  0.00    -0.021 C 
ATOM     14  C   UNL     1      33.048 -22.315 -17.053  0.00  0.00    +0.015 C 
ATOM     15  C   UNL     1      32.914 -21.141 -19.161  0.00  0.00    -0.004 C 
ATOM     16  C   UNL     1      32.309 -21.908 -18.165  0.00  0.00    +0.001 C 
ATOM     17  C   UNL     1      34.900 -19.956 -20.107  0.00  0.00    +0.031 C 
ENDBRANCH   1  11
BRANCH   2  18
ATOM     18  C   UNL     1      30.836 -24.082 -13.459  0.00  0.00    +0.058 C 
ATOM     19  C   UNL     1      28.396 -23.032 -14.309  0.00  0.00    -0.011 C 
ATOM     20  C   UNL     1      30.723 -22.722 -13.743  0.00  0.00    +0.015 C 
ATOM     21  C   UNL     1      29.728 -24.918 -13.599  0.00  0.00    +0.015 C 
ATOM     22  C   UNL     1      29.503 -22.196 -14.168  0.00  0.00    -0.002 C 
ATOM     23  C   UNL     1      28.508 -24.393 -14.024  0.00  0.00    -0.002 C 
BRANCH  19  24
ATOM     24  C   UNL     1      27.090 -22.471 -14.763  0.00  0.00    +0.136 C 
BRANCH  24  26
ATOM     25  O   UNL     1      27.347 -23.297 -17.040  0.00  0.00    -0.250 OA
ATOM     26  C   UNL     1      26.939 -22.436 -16.271  0.00  0.00    +0.318 C 
BRANCH  26  27
ATOM     27  O   UNL     1      26.289 -21.318 -16.690  0.00  0.00    -0.480 OA
ATOM     28  H   UNL     1      25.473 -21.077 -16.297  0.00  0.00    +0.295 HD
ENDBRANCH  26  27
ENDBRANCH  24  26
ENDBRANCH  19  24
ENDBRANCH   2  18
BRANCH   6  31
ATOM     29  O   UNL     1      37.713 -22.637 -15.025  0.00  0.00    -0.270 OA
ATOM     30  N   UNL     1      38.205 -24.796 -14.431  0.00  0.00    -0.325 N 
ATOM     31  C   UNL     1      37.321 -23.733 -14.586  0.00  0.00    +0.248 C 
ATOM     32  H   UNL     1      39.151 -24.690 -14.683  0.00  0.00    +0.145 HD
ATOM     33  H   UNL     1      37.885 -25.654 -14.071  0.00  0.00    +0.145 HD
ENDBRANCH   6  31
TORSDOF 6
ENDMDL
MODEL 5
REMARK VINA RESULT:     -11.4      3.131      6.599
REMARK  Name = 24871491
REMARK  6 active torsions:
REMARK  status: ('A' for Active; 'I' for Inactive)
REMARK    1  A    between atoms: N_1  and  C_11
REMARK    2  A    between atoms: N_2  and  C_18
REMARK    3  A    between atoms: C_6  and  C_31
REMARK    4  A    between atoms: C_19  and  C_24
REMARK    5  A    between atoms: C_24  and  C_26
REMARK    6  A    between atoms: C_26  and  O_27
REMARK                            x       y       z     vdW  Elec       q    Type
REMARK                         _______ _______ _______ _____ _____    ______ ____
ROOT
ATOM      1  N   UNL     1      33.430 -23.251 -13.735  0.00  0.00    -0.287 N 
ATOM      2  N   UNL     1      31.328 -21.918 -17.738  0.00  0.00    -0.247 N 
ATOM      3  N   UNL     1      32.384 -22.575 -15.752  0.00  0.00    -0.322 NA
ATOM      4  N   UNL     1      30.046 -23.025 -16.118  0.00  0.00    -0.169 NA
ATOM      5  C   UNL     1      32.273 -23.174 -14.547  0.00  0.00    +0.202 C 
ATOM      6  C   UNL     1      31.098 -23.716 -14.067  0.00  0.00    +0.118 C 
ATOM      7  C   UNL     1      31.248 -22.536 -16.474  0.00  0.00    +0.150 C 
ATOM      8  C   UNL     1      30.005 -23.610 -14.903  0.00  0.00    +0.120 C 
ATOM      9  H   UNL     1      33.238 -23.247 -12.769  0.00  0.00    +0.155 HD
ATOM     10  H   UNL     1      30.475 -21.913 -18.230  0.00  0.00    +0.165 HD
ENDROOT
BRANCH   1  11
ATOM     11  C   UNL     1      34.799 -23.331 -14.039  0.00  0.00    +0.050 C 
ATOM     12  C   UNL     1      35.549 -24.421 -13.597  0.00  0.00    +0.010 C 
ATOM     13  C   UNL     1      36.908 -24.500 -13.900  0.00  0.00    -0.021 C 
ATOM     14  C   UNL     1      35.408 -22.321 -14.784  0.00  0.00    +0.015 C 
ATOM     15  C   UNL     1      37.517 -23.490 -14.645  0.00  0.00    -0.004 C 
ATOM     16  C   UNL     1      36.767 -22.400 -15.086  0.00  0.00    +0.001 C 
ATOM     17  C   UNL     1      37.711 -25.664 -13.426  0.00  0.00    +0.031 C 
ENDBRANCH   1  11
BRANCH   2  18
ATOM     18  C   UNL     1      32.388 -21.305 -18.437  0.00  0.00    +0.058 C 
ATOM     19  C   UNL     1      34.485 -20.092 -19.819  0.00  0.00    -0.011 C 
ATOM     20  C   UNL     1      32.117 -20.365 -19.430  0.00  0.00    +0.015 C 
ATOM     21  C   UNL     1      33.708 -21.639 -18.134  0.00  0.00    +0.015 C 
ATOM     22  C   UNL     1      33.165 -19.758 -20.122  0.00  0.00    -0.002 C 
ATOM     23  C   UNL     1      34.757 -21.033 -18.826  0.00  0.00    -0.002 C 
BRANCH  19  24
ATOM     24  C   UNL     1      35.606 -19.443 -20.559  0.00  0.00    +0.136 C 
BRANCH  24  26
ATOM     25  O   UNL     1      34.863 -17.148 -20.232  0.00  0.00    -0.250 OA
ATOM     26  C   UNL     1      35.313 -18.014 -20.969  0.00  0.00    +0.318 C 
BRANCH  26  27
ATOM     27  O   UNL     1      35.610 -17.791 -22.277  0.00  0.00    -0.480 OA
ATOM     28  H   UNL     1      35.949 -18.487 -22.805  0.00  0.00    +0.295 HD
ENDBRANCH  26  27
ENDBRANCH  24  26
ENDBRANCH  19  24
ENDBRANCH   2  18
BRANCH   6  31
ATOM     29  O   UNL     1      31.972 -24.586 -12.060  0.00  0.00    -0.270 OA
ATOM     30  N   UNL     1      29.699 -24.704 -12.335  0.00  0.00    -0.325 N 
ATOM     31  C   UNL     1      30.975 -24.361 -12.769  0.00  0.00    +0.248 C 
ATOM     32  H   UNL     1      29.577 -25.142 -11.462  0.00  0.00    +0.145 HD
ATOM     33  H   UNL     1      28.917 -24.508 -12.901  0.00  0.00    +0.145 HD
ENDBRANCH   6  31
TORSDOF 6
ENDMDL
MODEL 6
REMARK VINA RESULT:     -11.1      2.316      7.279
REMARK  Name = 24871491
REMARK  6 active torsions:
REMARK  status: ('A' for Active; 'I' for Inactive)
REMARK    1  A    between atoms: N_1  and  C_11
REMARK    2  A    between atoms: N_2  and  C_18
REMARK    3  A    between atoms: C_6  and  C_31
REMARK    4  A    between atoms: C_19  and  C_24
REMARK    5  A    between atoms: C_24  and  C_26
REMARK    6  A    between atoms: C_26  and  O_27
REMARK                            x       y       z     vdW  Elec       q    Type
REMARK                         _______ _______ _______ _____ _____    ______ ____
ROOT
ATOM      1  N   UNL     1      35.391 -22.282 -13.988  0.00  0.00    -0.287 N 
ATOM      2  N   UNL     1      31.552 -24.540 -12.445  0.00  0.00    -0.247 N 
ATOM      3  N   UNL     1      33.454 -23.411 -13.222  0.00  0.00    -0.322 NA
ATOM      4  N   UNL     1      33.543 -24.763 -11.229  0.00  0.00    -0.169 NA
ATOM      5  C   UNL     1      34.762 -23.129 -13.044  0.00  0.00    +0.202 C 
ATOM      6  C   UNL     1      35.516 -23.620 -11.998  0.00  0.00    +0.118 C 
ATOM      7  C   UNL     1      32.916 -24.223 -12.291  0.00  0.00    +0.150 C 
ATOM      8  C   UNL     1      34.848 -24.440 -11.112  0.00  0.00    +0.120 C 
ATOM      9  H   UNL     1      36.129 -21.749 -13.613  0.00  0.00    +0.155 HD
ATOM     10  H   UNL     1      31.203 -25.135 -11.743  0.00  0.00    +0.165 HD
ENDROOT
BRANCH   1  11
ATOM     11  C   UNL     1      35.168 -22.054 -15.355  0.00  0.00    +0.050 C 
ATOM     12  C   UNL     1      33.932 -22.367 -15.921  0.00  0.00    +0.010 C 
ATOM     13  C   UNL     1      33.710 -22.140 -17.280  0.00  0.00    -0.021 C 
ATOM     14  C   UNL     1      36.180 -21.513 -16.147  0.00  0.00    +0.015 C 
ATOM     15  C   UNL     1      34.723 -21.600 -18.072  0.00  0.00    -0.004 C 
ATOM     16  C   UNL     1      35.959 -21.287 -17.506  0.00  0.00    +0.001 C 
ATOM     17  C   UNL     1      32.389 -22.476 -17.886  0.00  0.00    +0.031 C 
ENDBRANCH   1  11
BRANCH   2  18
ATOM     18  C   UNL     1      30.588 -24.172 -13.407  0.00  0.00    +0.058 C 
ATOM     19  C   UNL     1      28.683 -23.445 -15.309  0.00  0.00    -0.011 C 
ATOM     20  C   UNL     1      30.744 -22.993 -14.134  0.00  0.00    +0.015 C 
ATOM     21  C   UNL     1      29.479 -24.988 -13.630  0.00  0.00    +0.015 C 
ATOM     22  C   UNL     1      29.791 -22.629 -15.086  0.00  0.00    -0.002 C 
ATOM     23  C   UNL     1      28.526 -24.625 -14.581  0.00  0.00    -0.002 C 
BRANCH  19  24
ATOM     24  C   UNL     1      27.664 -23.056 -16.327  0.00  0.00    +0.136 C 
BRANCH  24  26
ATOM     25  O   UNL     1      26.432 -21.850 -14.607  0.00  0.00    -0.250 OA
ATOM     26  C   UNL     1      26.597 -22.124 -15.788  0.00  0.00    +0.318 C 
BRANCH  26  27
ATOM     27  O   UNL     1      25.822 -21.613 -16.782  0.00  0.00    -0.480 OA
ATOM     28  H   UNL     1      25.861 -21.981 -17.642  0.00  0.00    +0.295 HD
ENDBRANCH  26  27
ENDBRANCH  24  26
ENDBRANCH  19  24
ENDBRANCH   2  18
BRANCH   6  31
ATOM     29  O   UNL     1      37.294 -22.226 -11.333  0.00  0.00    -0.270 OA
ATOM     30  N   UNL     1      37.851 -24.296 -12.146  0.00  0.00    -0.325 N 
ATOM     31  C   UNL     1      36.925 -23.316 -11.804  0.00  0.00    +0.248 C 
ATOM     32  H   UNL     1      38.814 -24.126 -12.029  0.00  0.00    +0.145 HD
ATOM     33  H   UNL     1      37.545 -25.159 -12.506  0.00  0.00    +0.145 HD
ENDBRANCH   6  31
TORSDOF 6
ENDMDL
MODEL 7
REMARK VINA RESULT:      -9.7     12.618     15.579
REMARK  Name = 24871491
REMARK  6 active torsions:
REMARK  status: ('A' for Active; 'I' for Inactive)
REMARK    1  A    between atoms: N_1  and  C_11
REMARK    2  A    between atoms: N_2  and  C_18
REMARK    3  A    between atoms: C_6  and  C_31
REMARK    4  A    between atoms: C_19  and  C_24
REMARK    5  A    between atoms: C_24  and  C_26
REMARK    6  A    between atoms: C_26  and  O_27
REMARK                            x       y       z     vdW  Elec       q    Type
REMARK                         _______ _______ _______ _____ _____    ______ ____
ROOT
ATOM      1  N   UNL     1      31.586  -7.685 -21.367  0.00  0.00    -0.287 N 
ATOM      2  N   UNL     1      31.456 -12.008 -19.490  0.00  0.00    -0.247 N 
ATOM      3  N   UNL     1      31.525  -9.864 -20.435  0.00  0.00    -0.322 NA
ATOM      4  N   UNL     1      30.709 -10.205 -18.194  0.00  0.00    -0.169 NA
ATOM      5  C   UNL     1      31.285  -8.544 -20.282  0.00  0.00    +0.202 C 
ATOM      6  C   UNL     1      30.766  -7.988 -19.130  0.00  0.00    +0.118 C 
ATOM      7  C   UNL     1      31.218 -10.625 -19.367  0.00  0.00    +0.150 C 
ATOM      8  C   UNL     1      30.493  -8.875 -18.109  0.00  0.00    +0.120 C 
ATOM      9  H   UNL     1      31.010  -6.889 -21.414  0.00  0.00    +0.155 HD
ATOM     10  H   UNL     1      31.218 -12.523 -18.686  0.00  0.00    +0.165 HD
ENDROOT
BRANCH   1  11
ATOM     11  C   UNL     1      32.548  -7.749 -22.388  0.00  0.00    +0.050 C 
ATOM     12  C   UNL     1      32.843  -8.972 -22.993  0.00  0.00    +0.010 C 
ATOM     13  C   UNL     1      33.798  -9.035 -24.007  0.00  0.00    -0.021 C 
ATOM     14  C   UNL     1      33.206  -6.591 -22.800  0.00  0.00    +0.015 C 
ATOM     15  C   UNL     1      34.457  -7.876 -24.419  0.00  0.00    -0.004 C 
ATOM     16  C   UNL     1      34.162  -6.654 -23.814  0.00  0.00    +0.001 C 
ATOM     17  C   UNL     1      34.115 -10.341 -24.653  0.00  0.00    +0.031 C 
ENDBRANCH   1  11
BRANCH   2  18
ATOM     18  C   UNL     1      31.968 -12.799 -20.539  0.00  0.00    +0.058 C 
ATOM     19  C   UNL     1      32.983 -14.364 -22.613  0.00  0.00    -0.011 C 
ATOM     20  C   UNL     1      32.881 -13.815 -20.263  0.00  0.00    +0.015 C 
ATOM     21  C   UNL     1      31.562 -12.564 -21.853  0.00  0.00    +0.015 C 
ATOM     22  C   UNL     1      33.389 -14.599 -21.300  0.00  0.00    -0.002 C 
ATOM     23  C   UNL     1      32.070 -13.346 -22.890  0.00  0.00    -0.002 C 
BRANCH  19  24
ATOM     24  C   UNL     1      33.525 -15.201 -23.722  0.00  0.00    +0.136 C 
BRANCH  24  26
ATOM     25  O   UNL     1      32.758 -14.409 -25.894  0.00  0.00    -0.250 OA
ATOM     26  C   UNL     1      32.655 -15.197 -24.963  0.00  0.00    +0.318 C 
BRANCH  26  27
ATOM     27  O   UNL     1      31.723 -16.187 -24.931  0.00  0.00    -0.480 OA
ATOM     28  H   UNL     1      30.828 -15.993 -25.129  0.00  0.00    +0.295 HD
ENDBRANCH  26  27
ENDBRANCH  24  26
ENDBRANCH  19  24
ENDBRANCH   2  18
BRANCH   6  31
ATOM     29  O   UNL     1      30.035  -5.881 -19.889  0.00  0.00    -0.270 OA
ATOM     30  N   UNL     1      30.783  -5.999 -17.725  0.00  0.00    -0.325 N 
ATOM     31  C   UNL     1      30.506  -6.567 -18.964  0.00  0.00    +0.248 C 
ATOM     32  H   UNL     1      30.620  -5.040 -17.575  0.00  0.00    +0.145 HD
ATOM     33  H   UNL     1      31.144  -6.556 -16.997  0.00  0.00    +0.145 HD
ENDBRANCH   6  31
TORSDOF 6
ENDMDL
