MODEL 1
REMARK VINA RESULT:     -12.4      0.000      0.000
REMARK  Name = 448890
REMARK  6 active torsions:
REMARK  status: ('A' for Active; 'I' for Inactive)
REMARK    1  A    between atoms: C_1  and  C_2
REMARK    2  A    between atoms: C_1  and  C_17
REMARK    3  A    between atoms: C_2  and  C_3
REMARK    4  A    between atoms: C_3  and  N_4
REMARK    5  A    between atoms: C_8  and  C_11
REMARK    6  A    between atoms: C_17  and  N_21
REMARK                            x       y       z     vdW  Elec       q    Type
REMARK                         _______ _______ _______ _____ _____    ______ ____
ROOT
ATOM      1  C   UNL     1      32.455 -13.837 -24.315  0.00  0.00    +0.022 C 
ENDROOT
BRANCH   1   2
ATOM      2  C   UNL     1      32.703 -15.349 -24.331  0.00  0.00    -0.021 C 
BRANCH   2   3
ATOM      3  C   UNL     1      34.189 -15.665 -24.163  0.00  0.00    -0.077 C 
BRANCH   3   4
ATOM      4  N   UNL     1      34.370 -16.749 -23.199  0.00  0.00    +0.390 N 
ATOM      5  C   UNL     1      34.164 -16.276 -21.827  0.00  0.00    -0.072 C 
ATOM      6  C   UNL     1      33.468 -17.870 -23.502  0.00  0.00    -0.051 C 
ATOM      7  C   UNL     1      34.523 -17.390 -20.832  0.00  0.00    +0.003 C 
ATOM      8  C   UNL     1      33.901 -18.721 -21.187  0.00  0.00    -0.031 C 
ATOM      9  C   UNL     1      33.416 -18.923 -22.428  0.00  0.00    -0.053 C 
ATOM     10  H   UNL     1      35.332 -17.079 -23.276  0.00  0.00    -0.079 HD
BRANCH   8  11
ATOM     11  C   UNL     1      33.850 -19.775 -20.145  0.00  0.00    -0.004 C 
ATOM     12  C   UNL     1      32.619 -20.265 -19.703  0.00  0.00    -0.000 C 
ATOM     13  C   UNL     1      35.033 -20.281 -19.602  0.00  0.00    -0.000 C 
ATOM     14  C   UNL     1      32.572 -21.256 -18.723  0.00  0.00    -0.000 C 
ATOM     15  C   UNL     1      34.985 -21.273 -18.622  0.00  0.00    -0.000 C 
ATOM     16  C   UNL     1      33.755 -21.760 -18.182  0.00  0.00    -0.000 C 
ENDBRANCH   8  11
ENDBRANCH   3   4
ENDBRANCH   2   3
ENDBRANCH   1   2
BRANCH   1  17
ATOM     17  C   UNL     1      33.377 -13.102 -23.346  0.00  0.00    +0.110 C 
BRANCH  17  21
ATOM     18  F   UNL     1      30.349  -8.871 -20.084  0.00  0.00    -0.204 F 
ATOM     19  O   UNL     1      33.928 -10.805 -24.878  0.00  0.00    -0.246 OA
ATOM     20  O   UNL     1      31.545  -8.017 -22.144  0.00  0.00    -0.267 OA
ATOM     21  N   UNL     1      32.890 -11.763 -23.024  0.00  0.00    -0.281 N 
ATOM     22  N   UNL     1      32.731  -9.449 -23.492  0.00  0.00    -0.274 N 
ATOM     23  C   UNL     1      32.079 -11.576 -21.862  0.00  0.00    +0.071 A 
ATOM     24  C   UNL     1      33.232 -10.695 -23.865  0.00  0.00    +0.330 A 
ATOM     25  C   UNL     1      31.604 -10.299 -21.536  0.00  0.00    +0.099 A 
ATOM     26  C   UNL     1      31.734 -12.643 -21.015  0.00  0.00    +0.018 C 
ATOM     27  C   UNL     1      31.941  -9.151 -22.395  0.00  0.00    +0.265 A 
ATOM     28  C   UNL     1      30.808 -10.090 -20.402  0.00  0.00    +0.146 C 
ATOM     29  C   UNL     1      30.940 -12.437 -19.884  0.00  0.00    +0.004 C 
ATOM     30  C   UNL     1      30.477 -11.161 -19.577  0.00  0.00    +0.030 C 
ATOM     31  H   UNL     1      32.966  -8.693 -24.077  0.00  0.00    +0.173 HD
ENDBRANCH  17  21
ENDBRANCH   1  17
TORSDOF 6
ENDMDL
MODEL 2
REMARK VINA RESULT:     -12.1      1.521      2.702
REMARK  Name = 448890
REMARK  6 active torsions:
REMARK  status: ('A' for Active; 'I' for Inactive)
REMARK    1  A    between atoms: C_1  and  C_2
REMARK    2  A    between atoms: C_1  and  C_17
REMARK    3  A    between atoms: C_2  and  C_3
REMARK    4  A    between atoms: C_3  and  N_4
REMARK    5  A    between atoms: C_8  and  C_11
REMARK    6  A    between atoms: C_17  and  N_21
REMARK                            x       y       z     vdW  Elec       q    Type
REMARK                         _______ _______ _______ _____ _____    ______ ____
ROOT
ATOM      1  C   UNL     1      32.692 -13.616 -24.072  0.00  0.00    +0.022 C 
ENDROOT
BRANCH   1   2
ATOM      2  C   UNL     1      32.755 -15.147 -24.081  0.00  0.00    -0.021 C 
BRANCH   2   3
ATOM      3  C   UNL     1      34.202 -15.638 -24.112  0.00  0.00    -0.077 C 
BRANCH   3   4
ATOM      4  N   UNL     1      34.387 -16.730 -23.158  0.00  0.00    +0.390 N 
ATOM      5  C   UNL     1      34.187 -16.268 -21.781  0.00  0.00    -0.072 C 
ATOM      6  C   UNL     1      33.484 -17.849 -23.466  0.00  0.00    -0.051 C 
ATOM      7  C   UNL     1      34.550 -17.390 -20.797  0.00  0.00    +0.003 C 
ATOM      8  C   UNL     1      33.926 -18.718 -21.159  0.00  0.00    -0.031 C 
ATOM      9  C   UNL     1      33.436 -18.910 -22.400  0.00  0.00    -0.053 C 
ATOM     10  H   UNL     1      35.349 -17.060 -23.242  0.00  0.00    -0.079 HD
BRANCH   8  11
ATOM     11  C   UNL     1      33.879 -19.780 -20.126  0.00  0.00    -0.004 C 
ATOM     12  C   UNL     1      35.064 -20.297 -19.598  0.00  0.00    -0.000 C 
ATOM     13  C   UNL     1      32.649 -20.265 -19.674  0.00  0.00    -0.000 C 
ATOM     14  C   UNL     1      35.020 -21.296 -18.625  0.00  0.00    -0.000 C 
ATOM     15  C   UNL     1      32.605 -21.264 -18.701  0.00  0.00    -0.000 C 
ATOM     16  C   UNL     1      33.790 -21.780 -18.177  0.00  0.00    -0.000 C 
ENDBRANCH   8  11
ENDBRANCH   3   4
ENDBRANCH   2   3
ENDBRANCH   1   2
BRANCH   1  17
ATOM     17  C   UNL     1      33.312 -13.011 -22.816  0.00  0.00    +0.110 C 
BRANCH  17  21
ATOM     18  F   UNL     1      32.020  -7.008 -22.770  0.00  0.00    -0.204 F 
ATOM     19  O   UNL     1      31.300 -12.951 -20.847  0.00  0.00    -0.246 OA
ATOM     20  O   UNL     1      30.680  -8.430 -21.161  0.00  0.00    -0.267 OA
ATOM     21  N   UNL     1      32.621 -11.799 -22.383  0.00  0.00    -0.281 N 
ATOM     22  N   UNL     1      31.021 -10.697 -21.033  0.00  0.00    -0.274 N 
ATOM     23  C   UNL     1      32.968 -10.547 -22.980  0.00  0.00    +0.071 A 
ATOM     24  C   UNL     1      31.634 -11.896 -21.392  0.00  0.00    +0.330 A 
ATOM     25  C   UNL     1      32.317  -9.375 -22.578  0.00  0.00    +0.099 A 
ATOM     26  C   UNL     1      33.957 -10.445 -23.974  0.00  0.00    +0.018 C 
ATOM     27  C   UNL     1      31.274  -9.434 -21.539  0.00  0.00    +0.265 A 
ATOM     28  C   UNL     1      32.639  -8.135 -23.149  0.00  0.00    +0.146 C 
ATOM     29  C   UNL     1      34.279  -9.210 -24.544  0.00  0.00    +0.004 C 
ATOM     30  C   UNL     1      33.621  -8.056 -24.131  0.00  0.00    +0.030 C 
ATOM     31  H   UNL     1      30.327 -10.755 -20.338  0.00  0.00    +0.173 HD
ENDBRANCH  17  21
ENDBRANCH   1  17
TORSDOF 6
ENDMDL
MODEL 3
REMARK VINA RESULT:     -11.6      7.996     12.802
REMARK  Name = 448890
REMARK  6 active torsions:
REMARK  status: ('A' for Active; 'I' for Inactive)
REMARK    1  A    between atoms: C_1  and  C_2
REMARK    2  A    between atoms: C_1  and  C_17
REMARK    3  A    between atoms: C_2  and  C_3
REMARK    4  A    between atoms: C_3  and  N_4
REMARK    5  A    between atoms: C_8  and  C_11
REMARK    6  A    between atoms: C_17  and  N_21
REMARK                            x       y       z     vdW  Elec       q    Type
REMARK                         _______ _______ _______ _____ _____    ______ ____
ROOT
ATOM      1  C   UNL     1      32.460 -23.161 -15.420  0.00  0.00    +0.022 C 
ENDROOT
BRANCH   1   2
ATOM      2  C   UNL     1      32.401 -22.577 -16.836  0.00  0.00    -0.021 C 
BRANCH   2   3
ATOM      3  C   UNL     1      33.779 -22.600 -17.497  0.00  0.00    -0.077 C 
BRANCH   3   4
ATOM      4  N   UNL     1      33.778 -21.764 -18.697  0.00  0.00    +0.390 N 
ATOM      5  C   UNL     1      32.630 -20.852 -18.705  0.00  0.00    -0.072 C 
ATOM      6  C   UNL     1      35.037 -21.014 -18.809  0.00  0.00    -0.051 C 
ATOM      7  C   UNL     1      32.563 -20.110 -20.048  0.00  0.00    +0.003 C 
ATOM      8  C   UNL     1      33.893 -19.523 -20.465  0.00  0.00    -0.031 C 
ATOM      9  C   UNL     1      35.027 -19.954 -19.878  0.00  0.00    -0.053 C 
ATOM     10  H   UNL     1      33.696 -22.379 -19.507  0.00  0.00    -0.079 HD
BRANCH   8  11
ATOM     11  C   UNL     1      33.904 -18.486 -21.523  0.00  0.00    -0.004 C 
ATOM     12  C   UNL     1      34.357 -17.196 -21.237  0.00  0.00    -0.000 C 
ATOM     13  C   UNL     1      33.462 -18.794 -22.812  0.00  0.00    -0.000 C 
ATOM     14  C   UNL     1      34.367 -16.220 -22.233  0.00  0.00    -0.000 C 
ATOM     15  C   UNL     1      33.472 -17.818 -23.808  0.00  0.00    -0.000 C 
ATOM     16  C   UNL     1      33.925 -16.531 -23.519  0.00  0.00    -0.000 C 
ENDBRANCH   8  11
ENDBRANCH   3   4
ENDBRANCH   2   3
ENDBRANCH   1   2
BRANCH   1  17
ATOM     17  C   UNL     1      33.433 -22.410 -14.516  0.00  0.00    +0.110 C 
BRANCH  17  21
ATOM     18  F   UNL     1      38.142 -25.564 -12.153  0.00  0.00    -0.204 F 
ATOM     19  O   UNL     1      32.175 -23.586 -12.289  0.00  0.00    -0.246 OA
ATOM     20  O   UNL     1      35.953 -25.759 -10.898  0.00  0.00    -0.267 OA
ATOM     21  N   UNL     1      34.103 -23.293 -13.565  0.00  0.00    -0.281 N 
ATOM     22  N   UNL     1      34.078 -24.652 -11.629  0.00  0.00    -0.274 N 
ATOM     23  C   UNL     1      35.487 -23.598 -13.752  0.00  0.00    +0.071 A 
ATOM     24  C   UNL     1      33.370 -23.818 -12.492  0.00  0.00    +0.330 A 
ATOM     25  C   UNL     1      36.147 -24.442 -12.850  0.00  0.00    +0.099 A 
ATOM     26  C   UNL     1      36.227 -23.073 -14.825  0.00  0.00    +0.018 C 
ATOM     27  C   UNL     1      35.411 -25.016 -11.710  0.00  0.00    +0.265 A 
ATOM     28  C   UNL     1      37.503 -24.756 -13.011  0.00  0.00    +0.146 C 
ATOM     29  C   UNL     1      37.579 -23.386 -14.988  0.00  0.00    +0.004 C 
ATOM     30  C   UNL     1      38.217 -24.227 -14.082  0.00  0.00    +0.030 C 
ATOM     31  H   UNL     1      33.571 -25.026 -10.872  0.00  0.00    +0.173 HD
ENDBRANCH  17  21
ENDBRANCH   1  17
TORSDOF 6
ENDMDL
MODEL 4
REMARK VINA RESULT:     -11.5      8.013     12.813
REMARK  Name = 448890
REMARK  6 active torsions:
REMARK  status: ('A' for Active; 'I' for Inactive)
REMARK    1  A    between atoms: C_1  and  C_2
REMARK    2  A    between atoms: C_1  and  C_17
REMARK    3  A    between atoms: C_2  and  C_3
REMARK    4  A    between atoms: C_3  and  N_4
REMARK    5  A    between atoms: C_8  and  C_11
REMARK    6  A    between atoms: C_17  and  N_21
REMARK                            x       y       z     vdW  Elec       q    Type
REMARK                         _______ _______ _______ _____ _____    ______ ____
ROOT
ATOM      1  C   UNL     1      32.864 -23.185 -15.630  0.00  0.00    +0.022 C 
ENDROOT
BRANCH   1   2
ATOM      2  C   UNL     1      32.815 -22.456 -16.976  0.00  0.00    -0.021 C 
BRANCH   2   3
ATOM      3  C   UNL     1      34.218 -22.073 -17.446  0.00  0.00    -0.077 C 
BRANCH   3   4
ATOM      4  N   UNL     1      34.157 -20.910 -18.330  0.00  0.00    +0.390 N 
ATOM      5  C   UNL     1      35.316 -20.866 -19.226  0.00  0.00    -0.072 C 
ATOM      6  C   UNL     1      32.905 -20.908 -19.101  0.00  0.00    -0.051 C 
ATOM      7  C   UNL     1      35.310 -19.553 -20.022  0.00  0.00    +0.003 C 
ATOM      8  C   UNL     1      33.967 -19.245 -20.643  0.00  0.00    -0.031 C 
ATOM      9  C   UNL     1      32.865 -19.884 -20.203  0.00  0.00    -0.053 C 
ATOM     10  H   UNL     1      34.178 -20.072 -17.748  0.00  0.00    -0.079 HD
BRANCH   8  11
ATOM     11  C   UNL     1      33.906 -18.232 -21.723  0.00  0.00    -0.004 C 
ATOM     12  C   UNL     1      33.502 -18.600 -23.008  0.00  0.00    -0.000 C 
ATOM     13  C   UNL     1      34.251 -16.904 -21.459  0.00  0.00    -0.000 C 
ATOM     14  C   UNL     1      33.445 -17.646 -24.025  0.00  0.00    -0.000 C 
ATOM     15  C   UNL     1      34.194 -15.950 -22.476  0.00  0.00    -0.000 C 
ATOM     16  C   UNL     1      33.791 -16.321 -23.759  0.00  0.00    -0.000 C 
ENDBRANCH   8  11
ENDBRANCH   3   4
ENDBRANCH   2   3
ENDBRANCH   1   2
BRANCH   1  17
ATOM     17  C   UNL     1      33.670 -22.426 -14.580  0.00  0.00    +0.110 C 
BRANCH  17  21
ATOM     18  F   UNL     1      38.236 -25.693 -12.094  0.00  0.00    -0.204 F 
ATOM     19  O   UNL     1      32.336 -23.536 -12.363  0.00  0.00    -0.246 OA
ATOM     20  O   UNL     1      36.019 -25.806 -10.878  0.00  0.00    -0.267 OA
ATOM     21  N   UNL     1      34.295 -23.317 -13.607  0.00  0.00    -0.281 N 
ATOM     22  N   UNL     1      34.193 -24.652 -11.656  0.00  0.00    -0.274 N 
ATOM     23  C   UNL     1      35.672 -23.667 -13.764  0.00  0.00    +0.071 A 
ATOM     24  C   UNL     1      33.527 -23.808 -12.542  0.00  0.00    +0.330 A 
ATOM     25  C   UNL     1      36.289 -24.520 -12.841  0.00  0.00    +0.099 A 
ATOM     26  C   UNL     1      36.447 -23.178 -14.830  0.00  0.00    +0.018 C 
ATOM     27  C   UNL     1      35.515 -25.057 -11.708  0.00  0.00    +0.265 A 
ATOM     28  C   UNL     1      37.638 -24.877 -12.973  0.00  0.00    +0.146 C 
ATOM     29  C   UNL     1      37.792 -23.533 -14.964  0.00  0.00    +0.004 C 
ATOM     30  C   UNL     1      38.388 -24.382 -14.037  0.00  0.00    +0.030 C 
ATOM     31  H   UNL     1      33.661 -25.001 -10.905  0.00  0.00    +0.173 HD
ENDBRANCH  17  21
ENDBRANCH   1  17
TORSDOF 6
ENDMDL
MODEL 5
REMARK VINA RESULT:     -11.3      7.436     12.479
REMARK  Name = 448890
REMARK  6 active torsions:
REMARK  status: ('A' for Active; 'I' for Inactive)
REMARK    1  A    between atoms: C_1  and  C_2
REMARK    2  A    between atoms: C_1  and  C_17
REMARK    3  A    between atoms: C_2  and  C_3
REMARK    4  A    between atoms: C_3  and  N_4
REMARK    5  A    between atoms: C_8  and  C_11
REMARK    6  A    between atoms: C_17  and  N_21
REMARK                            x       y       z     vdW  Elec       q    Type
REMARK                         _______ _______ _______ _____ _____    ______ ____
ROOT
ATOM      1  C   UNL     1      32.992 -23.191 -14.871  0.00  0.00    +0.022 C 
ENDROOT
BRANCH   1   2
ATOM      2  C   UNL     1      32.342 -22.614 -16.133  0.00  0.00    -0.021 C 
BRANCH   2   3
ATOM      3  C   UNL     1      33.205 -22.878 -17.366  0.00  0.00    -0.077 C 
BRANCH   3   4
ATOM      4  N   UNL     1      33.420 -21.638 -18.109  0.00  0.00    +0.390 N 
ATOM      5  C   UNL     1      34.562 -21.759 -19.020  0.00  0.00    -0.072 C 
ATOM      6  C   UNL     1      32.206 -21.256 -18.848  0.00  0.00    -0.051 C 
ATOM      7  C   UNL     1      34.866 -20.396 -19.660  0.00  0.00    +0.003 C 
ATOM      8  C   UNL     1      33.633 -19.715 -20.211  0.00  0.00    -0.031 C 
ATOM      9  C   UNL     1      32.411 -20.130 -19.824  0.00  0.00    -0.053 C 
ATOM     10  H   UNL     1      33.631 -20.902 -17.436  0.00  0.00    -0.079 HD
BRANCH   8  11
ATOM     11  C   UNL     1      33.815 -18.597 -21.167  0.00  0.00    -0.004 C 
ATOM     12  C   UNL     1      33.514 -18.773 -22.519  0.00  0.00    -0.000 C 
ATOM     13  C   UNL     1      34.288 -17.361 -20.717  0.00  0.00    -0.000 C 
ATOM     14  C   UNL     1      33.684 -17.720 -23.417  0.00  0.00    -0.000 C 
ATOM     15  C   UNL     1      34.459 -16.308 -21.616  0.00  0.00    -0.000 C 
ATOM     16  C   UNL     1      34.157 -16.487 -22.966  0.00  0.00    -0.000 C 
ENDBRANCH   8  11
ENDBRANCH   3   4
ENDBRANCH   2   3
ENDBRANCH   1   2
BRANCH   1  17
ATOM     17  C   UNL     1      34.033 -22.253 -14.267  0.00  0.00    +0.110 C 
BRANCH  17  21
ATOM     18  F   UNL     1      38.706 -25.753 -12.364  0.00  0.00    -0.204 F 
ATOM     19  O   UNL     1      35.955 -21.622 -16.224  0.00  0.00    -0.246 OA
ATOM     20  O   UNL     1      39.143 -24.376 -14.442  0.00  0.00    -0.267 OA
ATOM     21  N   UNL     1      35.380 -22.817 -14.307  0.00  0.00    -0.281 N 
ATOM     22  N   UNL     1      37.516 -23.005 -15.305  0.00  0.00    -0.274 N 
ATOM     23  C   UNL     1      35.776 -23.751 -13.301  0.00  0.00    +0.071 A 
ATOM     24  C   UNL     1      36.250 -22.425 -15.334  0.00  0.00    +0.330 A 
ATOM     25  C   UNL     1      37.063 -24.302 -13.324  0.00  0.00    +0.099 A 
ATOM     26  C   UNL     1      34.908 -24.148 -12.270  0.00  0.00    +0.018 C 
ATOM     27  C   UNL     1      38.007 -23.916 -14.387  0.00  0.00    +0.265 A 
ATOM     28  C   UNL     1      37.475 -25.222 -12.349  0.00  0.00    +0.146 C 
ATOM     29  C   UNL     1      35.317 -25.064 -11.297  0.00  0.00    +0.004 C 
ATOM     30  C   UNL     1      36.599 -25.600 -11.336  0.00  0.00    +0.030 C 
ATOM     31  H   UNL     1      38.134 -22.735 -16.023  0.00  0.00    +0.173 HD
ENDBRANCH  17  21
ENDBRANCH   1  17
TORSDOF 6
ENDMDL
MODEL 6
REMARK VINA RESULT:     -11.3      7.359     11.703
REMARK  Name = 448890
REMARK  6 active torsions:
REMARK  status: ('A' for Active; 'I' for Inactive)
REMARK    1  A    between atoms: C_1  and  C_2
REMARK    2  A    between atoms: C_1  and  C_17
REMARK    3  A    between atoms: C_2  and  C_3
REMARK    4  A    between atoms: C_3  and  N_4
REMARK    5  A    between atoms: C_8  and  C_11
REMARK    6  A    between atoms: C_17  and  N_21
REMARK                            x       y       z     vdW  Elec       q    Type
REMARK                         _______ _______ _______ _____ _____    ______ ____
ROOT
ATOM      1  C   UNL     1      35.480 -21.754 -15.032  0.00  0.00    +0.022 C 
ENDROOT
BRANCH   1   2
ATOM      2  C   UNL     1      36.096 -21.151 -16.299  0.00  0.00    -0.021 C 
BRANCH   2   3
ATOM      3  C   UNL     1      35.392 -21.668 -17.553  0.00  0.00    -0.077 C 
BRANCH   3   4
ATOM      4  N   UNL     1      35.060 -20.556 -18.441  0.00  0.00    +0.390 N 
ATOM      5  C   UNL     1      36.147 -20.295 -19.390  0.00  0.00    -0.072 C 
ATOM      6  C   UNL     1      33.800 -20.818 -19.154  0.00  0.00    -0.051 C 
ATOM      7  C   UNL     1      35.842 -19.023 -20.195  0.00  0.00    +0.003 C 
ATOM      8  C   UNL     1      34.438 -19.001 -20.756  0.00  0.00    -0.031 C 
ATOM      9  C   UNL     1      33.508 -19.841 -20.261  0.00  0.00    -0.053 C 
ATOM     10  H   UNL     1      34.937 -19.722 -17.867  0.00  0.00    -0.079 HD
BRANCH   8  11
ATOM     11  C   UNL     1      34.128 -18.039 -21.840  0.00  0.00    -0.004 C 
ATOM     12  C   UNL     1      33.534 -18.483 -23.023  0.00  0.00    -0.000 C 
ATOM     13  C   UNL     1      34.427 -16.683 -21.680  0.00  0.00    -0.000 C 
ATOM     14  C   UNL     1      33.242 -17.577 -24.043  0.00  0.00    -0.000 C 
ATOM     15  C   UNL     1      34.134 -15.777 -22.700  0.00  0.00    -0.000 C 
ATOM     16  C   UNL     1      33.542 -16.224 -23.881  0.00  0.00    -0.000 C 
ENDBRANCH   8  11
ENDBRANCH   3   4
ENDBRANCH   2   3
ENDBRANCH   1   2
BRANCH   1  17
ATOM     17  C   UNL     1      35.064 -23.211 -15.218  0.00  0.00    +0.110 C 
BRANCH  17  21
ATOM     18  F   UNL     1      29.096 -23.616 -13.829  0.00  0.00    -0.204 F 
ATOM     19  O   UNL     1      35.222 -24.492 -12.716  0.00  0.00    -0.246 OA
ATOM     20  O   UNL     1      30.689 -24.572 -12.110  0.00  0.00    -0.267 OA
ATOM     21  N   UNL     1      33.906 -23.567 -14.403  0.00  0.00    -0.281 N 
ATOM     22  N   UNL     1      32.959 -24.512 -12.452  0.00  0.00    -0.274 N 
ATOM     23  C   UNL     1      32.595 -23.257 -14.879  0.00  0.00    +0.071 A 
ATOM     24  C   UNL     1      34.112 -24.204 -13.171  0.00  0.00    +0.330 A 
ATOM     25  C   UNL     1      31.472 -23.592 -14.112  0.00  0.00    +0.099 A 
ATOM     26  C   UNL     1      32.383 -22.619 -16.113  0.00  0.00    +0.018 C 
ATOM     27  C   UNL     1      31.646 -24.262 -12.812  0.00  0.00    +0.265 A 
ATOM     28  C   UNL     1      30.176 -23.299 -14.558  0.00  0.00    +0.146 C 
ATOM     29  C   UNL     1      31.091 -22.326 -16.560  0.00  0.00    +0.004 C 
ATOM     30  C   UNL     1      29.988 -22.666 -15.783  0.00  0.00    +0.030 C 
ATOM     31  H   UNL     1      33.094 -24.961 -11.585  0.00  0.00    +0.173 HD
ENDBRANCH  17  21
ENDBRANCH   1  17
TORSDOF 6
ENDMDL
MODEL 7
REMARK VINA RESULT:     -11.2      5.662     10.685
REMARK  Name = 448890
REMARK  6 active torsions:
REMARK  status: ('A' for Active; 'I' for Inactive)
REMARK    1  A    between atoms: C_1  and  C_2
REMARK    2  A    between atoms: C_1  and  C_17
REMARK    3  A    between atoms: C_2  and  C_3
REMARK    4  A    between atoms: C_3  and  N_4
REMARK    5  A    between atoms: C_8  and  C_11
REMARK    6  A    between atoms: C_17  and  N_21
REMARK                            x       y       z     vdW  Elec       q    Type
REMARK                         _______ _______ _______ _____ _____    ______ ____
ROOT
ATOM      1  C   UNL     1      33.875 -20.014 -19.594  0.00  0.00    +0.022 C 
ENDROOT
BRANCH   1   2
ATOM      2  C   UNL     1      34.728 -19.252 -20.614  0.00  0.00    -0.021 C 
BRANCH   2   3
ATOM      3  C   UNL     1      34.070 -19.256 -21.994  0.00  0.00    -0.077 C 
BRANCH   3   4
ATOM      4  N   UNL     1      33.614 -17.912 -22.341  0.00  0.00    +0.390 N 
ATOM      5  C   UNL     1      34.509 -16.891 -21.789  0.00  0.00    -0.072 C 
ATOM      6  C   UNL     1      33.494 -17.763 -23.799  0.00  0.00    -0.051 C 
ATOM      7  C   UNL     1      33.917 -15.493 -22.027  0.00  0.00    +0.003 C 
ATOM      8  C   UNL     1      33.451 -15.284 -23.450  0.00  0.00    -0.031 C 
ATOM      9  C   UNL     1      33.263 -16.347 -24.255  0.00  0.00    -0.053 C 
ATOM     10  H   UNL     1      32.691 -17.777 -21.927  0.00  0.00    -0.079 HD
BRANCH   8  11
ATOM     11  C   UNL     1      33.208 -13.897 -23.914  0.00  0.00    -0.004 C 
ATOM     12  C   UNL     1      33.454 -12.819 -23.061  0.00  0.00    -0.000 C 
ATOM     13  C   UNL     1      32.734 -13.664 -25.207  0.00  0.00    -0.000 C 
ATOM     14  C   UNL     1      33.225 -11.514 -23.498  0.00  0.00    -0.000 C 
ATOM     15  C   UNL     1      32.506 -12.359 -25.644  0.00  0.00    -0.000 C 
ATOM     16  C   UNL     1      32.751 -11.284 -24.790  0.00  0.00    -0.000 C 
ENDBRANCH   8  11
ENDBRANCH   3   4
ENDBRANCH   2   3
ENDBRANCH   1   2
BRANCH   1  17
ATOM     17  C   UNL     1      34.557 -21.282 -19.090  0.00  0.00    +0.110 C 
BRANCH  17  21
ATOM     18  F   UNL     1      34.205 -23.245 -13.282  0.00  0.00    -0.204 F 
ATOM     19  O   UNL     1      31.842 -22.018 -18.978  0.00  0.00    -0.246 OA
ATOM     20  O   UNL     1      32.056 -23.369 -14.613  0.00  0.00    -0.267 OA
ATOM     21  N   UNL     1      33.903 -21.832 -17.906  0.00  0.00    -0.281 N 
ATOM     22  N   UNL     1      31.990 -22.681 -16.803  0.00  0.00    -0.274 N 
ATOM     23  C   UNL     1      34.666 -22.022 -16.712  0.00  0.00    +0.071 A 
ATOM     24  C   UNL     1      32.542 -22.162 -17.972  0.00  0.00    +0.330 A 
ATOM     25  C   UNL     1      34.056 -22.547 -15.566  0.00  0.00    +0.099 A 
ATOM     26  C   UNL     1      36.030 -21.693 -16.640  0.00  0.00    +0.018 C 
ATOM     27  C   UNL     1      32.627 -22.906 -15.595  0.00  0.00    +0.265 A 
ATOM     28  C   UNL     1      34.781 -22.741 -14.383  0.00  0.00    +0.146 C 
ATOM     29  C   UNL     1      36.756 -21.886 -15.461  0.00  0.00    +0.004 C 
ATOM     30  C   UNL     1      36.133 -22.410 -14.333  0.00  0.00    +0.030 C 
ATOM     31  H   UNL     1      31.034 -22.915 -16.840  0.00  0.00    +0.173 HD
ENDBRANCH  17  21
ENDBRANCH   1  17
TORSDOF 6
ENDMDL
MODEL 8
REMARK VINA RESULT:     -11.0      3.662      6.550
REMARK  Name = 448890
REMARK  6 active torsions:
REMARK  status: ('A' for Active; 'I' for Inactive)
REMARK    1  A    between atoms: C_1  and  C_2
REMARK    2  A    between atoms: C_1  and  C_17
REMARK    3  A    between atoms: C_2  and  C_3
REMARK    4  A    between atoms: C_3  and  N_4
REMARK    5  A    between atoms: C_8  and  C_11
REMARK    6  A    between atoms: C_17  and  N_21
REMARK                            x       y       z     vdW  Elec       q    Type
REMARK                         _______ _______ _______ _____ _____    ______ ____
ROOT
ATOM      1  C   UNL     1      35.764 -18.665 -20.458  0.00  0.00    +0.022 C 
ENDROOT
BRANCH   1   2
ATOM      2  C   UNL     1      36.012 -19.623 -19.288  0.00  0.00    -0.021 C 
BRANCH   2   3
ATOM      3  C   UNL     1      35.266 -20.942 -19.490  0.00  0.00    -0.077 C 
BRANCH   3   4
ATOM      4  N   UNL     1      34.408 -21.219 -18.340  0.00  0.00    +0.390 N 
ATOM      5  C   UNL     1      33.345 -22.166 -18.691  0.00  0.00    -0.072 C 
ATOM      6  C   UNL     1      35.199 -21.724 -17.208  0.00  0.00    -0.051 C 
ATOM      7  C   UNL     1      32.365 -22.309 -17.516  0.00  0.00    +0.003 C 
ATOM      8  C   UNL     1      33.059 -22.535 -16.192  0.00  0.00    -0.031 C 
ATOM      9  C   UNL     1      34.372 -22.259 -16.071  0.00  0.00    -0.053 C 
ATOM     10  H   UNL     1      33.967 -20.343 -18.059  0.00  0.00    -0.079 HD
BRANCH   8  11
ATOM     11  C   UNL     1      32.258 -23.052 -15.057  0.00  0.00    -0.004 C 
ATOM     12  C   UNL     1      32.878 -23.764 -14.029  0.00  0.00    -0.000 C 
ATOM     13  C   UNL     1      30.880 -22.827 -15.011  0.00  0.00    -0.000 C 
ATOM     14  C   UNL     1      32.125 -24.250 -12.960  0.00  0.00    -0.000 C 
ATOM     15  C   UNL     1      30.127 -23.313 -13.943  0.00  0.00    -0.000 C 
ATOM     16  C   UNL     1      30.749 -24.025 -12.917  0.00  0.00    -0.000 C 
ENDBRANCH   8  11
ENDBRANCH   3   4
ENDBRANCH   2   3
ENDBRANCH   1   2
BRANCH   1  17
ATOM     17  C   UNL     1      34.283 -18.366 -20.668  0.00  0.00    +0.110 C 
BRANCH  17  21
ATOM     18  F   UNL     1      33.187 -13.182 -23.772  0.00  0.00    -0.204 F 
ATOM     19  O   UNL     1      34.187 -19.371 -23.296  0.00  0.00    -0.246 OA
ATOM     20  O   UNL     1      33.378 -15.280 -25.175  0.00  0.00    -0.267 OA
ATOM     21  N   UNL     1      34.043 -17.547 -21.853  0.00  0.00    -0.281 N 
ATOM     22  N   UNL     1      33.785 -17.316 -24.193  0.00  0.00    -0.274 N 
ATOM     23  C   UNL     1      33.840 -16.140 -21.700  0.00  0.00    +0.071 A 
ATOM     24  C   UNL     1      34.019 -18.163 -23.112  0.00  0.00    +0.330 A 
ATOM     25  C   UNL     1      33.610 -15.338 -22.824  0.00  0.00    +0.099 A 
ATOM     26  C   UNL     1      33.865 -15.517 -20.440  0.00  0.00    +0.018 C 
ATOM     27  C   UNL     1      33.576 -15.948 -24.165  0.00  0.00    +0.265 A 
ATOM     28  C   UNL     1      33.409 -13.957 -22.700  0.00  0.00    +0.146 C 
ATOM     29  C   UNL     1      33.664 -14.140 -20.314  0.00  0.00    +0.004 C 
ATOM     30  C   UNL     1      33.436 -13.360 -21.443  0.00  0.00    +0.030 C 
ATOM     31  H   UNL     1      33.766 -17.740 -25.082  0.00  0.00    +0.173 HD
ENDBRANCH  17  21
ENDBRANCH   1  17
TORSDOF 6
ENDMDL
MODEL 9
REMARK VINA RESULT:     -11.0      2.538      4.317
REMARK  Name = 448890
REMARK  6 active torsions:
REMARK  status: ('A' for Active; 'I' for Inactive)
REMARK    1  A    between atoms: C_1  and  C_2
REMARK    2  A    between atoms: C_1  and  C_17
REMARK    3  A    between atoms: C_2  and  C_3
REMARK    4  A    between atoms: C_3  and  N_4
REMARK    5  A    between atoms: C_8  and  C_11
REMARK    6  A    between atoms: C_17  and  N_21
REMARK                            x       y       z     vdW  Elec       q    Type
REMARK                         _______ _______ _______ _____ _____    ______ ____
ROOT
ATOM      1  C   UNL     1      33.907  -8.686 -23.595  0.00  0.00    +0.022 C 
ENDROOT
BRANCH   1   2
ATOM      2  C   UNL     1      34.154  -9.931 -24.453  0.00  0.00    -0.021 C 
BRANCH   2   3
ATOM      3  C   UNL     1      32.954 -10.877 -24.408  0.00  0.00    -0.077 C 
BRANCH   3   4
ATOM      4  N   UNL     1      33.398 -12.245 -24.146  0.00  0.00    +0.390 N 
ATOM      5  C   UNL     1      33.235 -12.591 -22.731  0.00  0.00    -0.072 C 
ATOM      6  C   UNL     1      32.675 -13.199 -25.000  0.00  0.00    -0.051 C 
ATOM      7  C   UNL     1      33.861 -13.967 -22.456  0.00  0.00    +0.003 C 
ATOM      8  C   UNL     1      33.443 -15.017 -23.459  0.00  0.00    -0.031 C 
ATOM      9  C   UNL     1      32.894 -14.641 -24.631  0.00  0.00    -0.053 C 
ATOM     10  H   UNL     1      34.391 -12.301 -24.371  0.00  0.00    -0.079 HD
BRANCH   8  11
ATOM     11  C   UNL     1      33.660 -16.443 -23.118  0.00  0.00    -0.004 C 
ATOM     12  C   UNL     1      34.301 -16.789 -21.927  0.00  0.00    -0.000 C 
ATOM     13  C   UNL     1      33.223 -17.447 -23.986  0.00  0.00    -0.000 C 
ATOM     14  C   UNL     1      34.506 -18.131 -21.605  0.00  0.00    -0.000 C 
ATOM     15  C   UNL     1      33.428 -18.788 -23.665  0.00  0.00    -0.000 C 
ATOM     16  C   UNL     1      34.069 -19.131 -22.475  0.00  0.00    -0.000 C 
ENDBRANCH   8  11
ENDBRANCH   3   4
ENDBRANCH   2   3
ENDBRANCH   1   2
BRANCH   1  17
ATOM     17  C   UNL     1      32.424  -8.361 -23.446  0.00  0.00    +0.110 C 
BRANCH  17  21
ATOM     18  F   UNL     1      30.330  -8.471 -17.674  0.00  0.00    -0.204 F 
ATOM     19  O   UNL     1      32.886  -5.686 -22.699  0.00  0.00    -0.246 OA
ATOM     20  O   UNL     1      31.224  -6.242 -18.473  0.00  0.00    -0.267 OA
ATOM     21  N   UNL     1      32.105  -7.808 -22.132  0.00  0.00    -0.281 N 
ATOM     22  N   UNL     1      32.050  -6.004 -20.603  0.00  0.00    -0.274 N 
ATOM     23  C   UNL     1      31.519  -8.655 -21.141  0.00  0.00    +0.071 A 
ATOM     24  C   UNL     1      32.382  -6.457 -21.877  0.00  0.00    +0.330 A 
ATOM     25  C   UNL     1      31.207  -8.143 -19.876  0.00  0.00    +0.099 A 
ATOM     26  C   UNL     1      31.239 -10.010 -21.391  0.00  0.00    +0.018 C 
ATOM     27  C   UNL     1      31.482  -6.729 -19.569  0.00  0.00    +0.265 A 
ATOM     28  C   UNL     1      30.633  -8.954 -18.887  0.00  0.00    +0.146 C 
ATOM     29  C   UNL     1      30.666 -10.820 -20.407  0.00  0.00    +0.004 C 
ATOM     30  C   UNL     1      30.363 -10.293 -19.156  0.00  0.00    +0.030 C 
ATOM     31  H   UNL     1      32.241  -5.056 -20.415  0.00  0.00    +0.173 HD
ENDBRANCH  17  21
ENDBRANCH   1  17
TORSDOF 6
ENDMDL
