MODEL 1
REMARK VINA RESULT:     -11.7      0.000      0.000
REMARK  Name = 445770
REMARK  5 active torsions:
REMARK  status: ('A' for Active; 'I' for Inactive)
REMARK    1  A    between atoms: N_2  and  C_17
REMARK    2  A    between atoms: C_3  and  C_5
REMARK    3  A    between atoms: C_6  and  S_11
REMARK    4  A    between atoms: S_11  and  N_14
REMARK    5  A    between atoms: C_17  and  C_23
REMARK                            x       y       z     vdW  Elec       q    Type
REMARK                         _______ _______ _______ _____ _____    ______ ____
ROOT
ATOM      1  O   UNL     1      36.199 -18.363 -21.154  0.00  0.00    -0.270 OA
ATOM      2  N   UNL     1      34.073 -17.827 -21.906  0.00  0.00    -0.297 N 
ATOM      3  C   UNL     1      34.970 -18.543 -21.105  0.00  0.00    +0.246 C 
ATOM      4  H   UNL     1      33.111 -18.020 -21.817  0.00  0.00    +0.150 HD
ENDROOT
BRANCH   3   5
ATOM      5  C   UNL     1      34.404 -19.545 -20.215  0.00  0.00    +0.053 C 
ATOM      6  C   UNL     1      33.321 -21.465 -18.506  0.00  0.00    +0.122 C 
ATOM      7  C   UNL     1      33.022 -19.714 -20.144  0.00  0.00    +0.006 C 
ATOM      8  C   UNL     1      35.246 -20.335 -19.431  0.00  0.00    +0.006 C 
ATOM      9  C   UNL     1      32.480 -20.674 -19.289  0.00  0.00    +0.020 C 
ATOM     10  C   UNL     1      34.703 -21.296 -18.577  0.00  0.00    +0.020 C 
BRANCH   6  11
ATOM     11  S   UNL     1      32.643 -22.668 -17.438  0.00  0.00    +0.057 S 
ATOM     12  O   UNL     1      32.720 -23.966 -18.094  0.00  0.00    -0.153 OA
ATOM     13  O   UNL     1      31.361 -22.180 -16.950  0.00  0.00    -0.153 OA
BRANCH  11  14
ATOM     14  N   UNL     1      33.769 -22.635 -16.154  0.00  0.00    -0.203 NA
ATOM     15  H   UNL     1      34.023 -23.589 -15.899  0.00  0.00    +0.144 HD
ATOM     16  H   UNL     1      33.353 -22.167 -15.348  0.00  0.00    +0.144 HD
ENDBRANCH  11  14
ENDBRANCH   6  11
ENDBRANCH   3   5
BRANCH   2  17
ATOM     17  C   UNL     1      34.482 -16.817 -22.857  0.00  0.00    +0.121 C 
BRANCH  17  23
ATOM     18  F   UNL     1      34.159 -15.681 -20.292  0.00  0.00    -0.202 F 
ATOM     19  F   UNL     1      33.360 -15.302 -24.957  0.00  0.00    -0.202 F 
ATOM     20  F   UNL     1      32.069 -12.937 -24.536  0.00  0.00    -0.199 F 
ATOM     21  F   UNL     1      32.871 -13.314 -19.884  0.00  0.00    -0.199 F 
ATOM     22  F   UNL     1      31.823 -11.939 -22.004  0.00  0.00    -0.199 F 
ATOM     23  C   UNL     1      33.770 -15.511 -22.628  0.00  0.00    +0.057 A 
ATOM     24  C   UNL     1      33.651 -15.014 -21.337  0.00  0.00    +0.170 A 
ATOM     25  C   UNL     1      33.244 -14.821 -23.711  0.00  0.00    +0.170 A 
ATOM     26  C   UNL     1      32.584 -13.610 -23.499  0.00  0.00    +0.197 A 
ATOM     27  C   UNL     1      32.991 -13.804 -21.125  0.00  0.00    +0.197 A 
ATOM     28  C   UNL     1      32.457 -13.101 -22.206  0.00  0.00    +0.199 A 
ENDBRANCH  17  23
ENDBRANCH   2  17
TORSDOF 5
ENDMDL
MODEL 2
REMARK VINA RESULT:     -11.7      0.015      2.129
REMARK  Name = 445770
REMARK  5 active torsions:
REMARK  status: ('A' for Active; 'I' for Inactive)
REMARK    1  A    between atoms: N_2  and  C_17
REMARK    2  A    between atoms: C_3  and  C_5
REMARK    3  A    between atoms: C_6  and  S_11
REMARK    4  A    between atoms: S_11  and  N_14
REMARK    5  A    between atoms: C_17  and  C_23
REMARK                            x       y       z     vdW  Elec       q    Type
REMARK                         _______ _______ _______ _____ _____    ______ ____
ROOT
ATOM      1  O   UNL     1      36.198 -18.350 -21.145  0.00  0.00    -0.270 OA
ATOM      2  N   UNL     1      34.075 -17.820 -21.908  0.00  0.00    -0.297 N 
ATOM      3  C   UNL     1      34.969 -18.533 -21.103  0.00  0.00    +0.246 C 
ATOM      4  H   UNL     1      33.113 -18.016 -21.825  0.00  0.00    +0.150 HD
ENDROOT
BRANCH   3   5
ATOM      5  C   UNL     1      34.402 -19.537 -20.216  0.00  0.00    +0.053 C 
ATOM      6  C   UNL     1      33.315 -21.462 -18.515  0.00  0.00    +0.122 C 
ATOM      7  C   UNL     1      33.019 -19.710 -20.151  0.00  0.00    +0.006 C 
ATOM      8  C   UNL     1      35.241 -20.326 -19.429  0.00  0.00    +0.006 C 
ATOM      9  C   UNL     1      32.476 -20.672 -19.300  0.00  0.00    +0.020 C 
ATOM     10  C   UNL     1      34.697 -21.290 -18.579  0.00  0.00    +0.020 C 
BRANCH   6  11
ATOM     11  S   UNL     1      32.635 -22.668 -17.451  0.00  0.00    +0.057 S 
ATOM     12  O   UNL     1      32.721 -23.965 -18.106  0.00  0.00    -0.153 OA
ATOM     13  O   UNL     1      31.347 -22.184 -16.971  0.00  0.00    -0.153 OA
BRANCH  11  14
ATOM     14  N   UNL     1      33.753 -22.629 -16.159  0.00  0.00    -0.203 NA
ATOM     15  H   UNL     1      33.252 -22.501 -15.280  0.00  0.00    +0.144 HD
ATOM     16  H   UNL     1      34.403 -21.856 -16.295  0.00  0.00    +0.144 HD
ENDBRANCH  11  14
ENDBRANCH   6  11
ENDBRANCH   3   5
BRANCH   2  17
ATOM     17  C   UNL     1      34.485 -16.808 -22.857  0.00  0.00    +0.121 C 
BRANCH  17  23
ATOM     18  F   UNL     1      33.358 -15.286 -24.952  0.00  0.00    -0.202 F 
ATOM     19  F   UNL     1      34.171 -15.678 -20.290  0.00  0.00    -0.202 F 
ATOM     20  F   UNL     1      32.885 -13.310 -19.874  0.00  0.00    -0.199 F 
ATOM     21  F   UNL     1      32.071 -12.921 -24.523  0.00  0.00    -0.199 F 
ATOM     22  F   UNL     1      31.833 -11.929 -21.985  0.00  0.00    -0.199 F 
ATOM     23  C   UNL     1      33.775 -15.501 -22.625  0.00  0.00    +0.057 A 
ATOM     24  C   UNL     1      33.245 -14.808 -23.705  0.00  0.00    +0.170 A 
ATOM     25  C   UNL     1      33.659 -15.008 -21.333  0.00  0.00    +0.170 A 
ATOM     26  C   UNL     1      33.001 -13.797 -21.116  0.00  0.00    +0.197 A 
ATOM     27  C   UNL     1      32.588 -13.598 -23.488  0.00  0.00    +0.197 A 
ATOM     28  C   UNL     1      32.465 -13.092 -22.194  0.00  0.00    +0.199 A 
ENDBRANCH  17  23
ENDBRANCH   2  17
TORSDOF 5
ENDMDL
MODEL 3
REMARK VINA RESULT:     -10.5      6.055      9.505
REMARK  Name = 445770
REMARK  5 active torsions:
REMARK  status: ('A' for Active; 'I' for Inactive)
REMARK    1  A    between atoms: N_2  and  C_17
REMARK    2  A    between atoms: C_3  and  C_5
REMARK    3  A    between atoms: C_6  and  S_11
REMARK    4  A    between atoms: S_11  and  N_14
REMARK    5  A    between atoms: C_17  and  C_23
REMARK                            x       y       z     vdW  Elec       q    Type
REMARK                         _______ _______ _______ _____ _____    ______ ____
ROOT
ATOM      1  O   UNL     1      32.709 -23.969 -17.891  0.00  0.00    -0.270 OA
ATOM      2  N   UNL     1      32.654 -22.501 -16.098  0.00  0.00    -0.297 N 
ATOM      3  C   UNL     1      32.885 -22.824 -17.440  0.00  0.00    +0.246 C 
ATOM      4  H   UNL     1      32.815 -21.573 -15.808  0.00  0.00    +0.150 HD
ENDROOT
BRANCH   3   5
ATOM      5  C   UNL     1      33.374 -21.758 -18.301  0.00  0.00    +0.053 C 
ATOM      6  C   UNL     1      34.312 -19.715 -19.952  0.00  0.00    +0.122 C 
ATOM      7  C   UNL     1      32.474 -20.992 -19.041  0.00  0.00    +0.006 C 
ATOM      8  C   UNL     1      34.743 -21.505 -18.387  0.00  0.00    +0.006 C 
ATOM      9  C   UNL     1      32.943 -19.970 -19.867  0.00  0.00    +0.020 C 
ATOM     10  C   UNL     1      35.212 -20.482 -19.213  0.00  0.00    +0.020 C 
BRANCH   6  11
ATOM     11  S   UNL     1      34.899 -18.436 -20.985  0.00  0.00    +0.057 S 
ATOM     12  O   UNL     1      34.487 -17.159 -20.419  0.00  0.00    -0.153 OA
ATOM     13  O   UNL     1      34.555 -18.761 -22.362  0.00  0.00    -0.153 OA
BRANCH  11  14
ATOM     14  N   UNL     1      36.588 -18.605 -20.785  0.00  0.00    -0.203 NA
ATOM     15  H   UNL     1      36.798 -18.776 -19.802  0.00  0.00    +0.144 HD
ATOM     16  H   UNL     1      37.054 -17.750 -21.089  0.00  0.00    +0.144 HD
ENDBRANCH  11  14
ENDBRANCH   6  11
ENDBRANCH   3   5
BRANCH   2  17
ATOM     17  C   UNL     1      32.191 -23.454 -15.115  0.00  0.00    +0.121 C 
BRANCH  17  23
ATOM     18  F   UNL     1      30.788 -25.224 -13.419  0.00  0.00    -0.202 F 
ATOM     19  F   UNL     1      30.548 -21.684 -16.573  0.00  0.00    -0.202 F 
ATOM     20  F   UNL     1      27.830 -21.688 -16.361  0.00  0.00    -0.199 F 
ATOM     21  F   UNL     1      28.070 -25.217 -13.212  0.00  0.00    -0.199 F 
ATOM     22  F   UNL     1      26.587 -23.450 -14.682  0.00  0.00    -0.199 F 
ATOM     23  C   UNL     1      30.690 -23.454 -14.998  0.00  0.00    +0.057 A 
ATOM     24  C   UNL     1      30.070 -24.354 -14.142  0.00  0.00    +0.170 A 
ATOM     25  C   UNL     1      29.948 -22.553 -15.748  0.00  0.00    +0.170 A 
ATOM     26  C   UNL     1      28.557 -22.551 -15.641  0.00  0.00    +0.197 A 
ATOM     27  C   UNL     1      28.679 -24.353 -14.036  0.00  0.00    +0.197 A 
ATOM     28  C   UNL     1      27.922 -23.452 -14.784  0.00  0.00    +0.199 A 
ENDBRANCH  17  23
ENDBRANCH   2  17
TORSDOF 5
ENDMDL
MODEL 4
REMARK VINA RESULT:     -10.5      6.213     10.254
REMARK  Name = 445770
REMARK  5 active torsions:
REMARK  status: ('A' for Active; 'I' for Inactive)
REMARK    1  A    between atoms: N_2  and  C_17
REMARK    2  A    between atoms: C_3  and  C_5
REMARK    3  A    between atoms: C_6  and  S_11
REMARK    4  A    between atoms: S_11  and  N_14
REMARK    5  A    between atoms: C_17  and  C_23
REMARK                            x       y       z     vdW  Elec       q    Type
REMARK                         _______ _______ _______ _____ _____    ______ ____
ROOT
ATOM      1  O   UNL     1      32.680 -23.647 -18.199  0.00  0.00    -0.270 OA
ATOM      2  N   UNL     1      33.178 -22.349 -16.345  0.00  0.00    -0.297 N 
ATOM      3  C   UNL     1      33.092 -22.574 -17.723  0.00  0.00    +0.246 C 
ATOM      4  H   UNL     1      33.514 -21.476 -16.035  0.00  0.00    +0.150 HD
ENDROOT
BRANCH   3   5
ATOM      5  C   UNL     1      33.534 -21.499 -18.597  0.00  0.00    +0.053 C 
ATOM      6  C   UNL     1      34.381 -19.437 -20.273  0.00  0.00    +0.122 C 
ATOM      7  C   UNL     1      34.895 -21.230 -18.738  0.00  0.00    +0.006 C 
ATOM      8  C   UNL     1      32.596 -20.737 -19.294  0.00  0.00    +0.006 C 
ATOM      9  C   UNL     1      35.319 -20.199 -19.576  0.00  0.00    +0.020 C 
ATOM     10  C   UNL     1      33.020 -19.706 -20.133  0.00  0.00    +0.020 C 
BRANCH   6  11
ATOM     11  S   UNL     1      34.912 -18.147 -21.324  0.00  0.00    +0.057 S 
ATOM     12  O   UNL     1      34.528 -16.876 -20.726  0.00  0.00    -0.153 OA
ATOM     13  O   UNL     1      34.496 -18.461 -22.683  0.00  0.00    -0.153 OA
BRANCH  11  14
ATOM     14  N   UNL     1      36.609 -18.315 -21.214  0.00  0.00    -0.203 NA
ATOM     15  H   UNL     1      36.981 -18.598 -22.120  0.00  0.00    +0.144 HD
ATOM     16  H   UNL     1      36.836 -19.025 -20.517  0.00  0.00    +0.144 HD
ENDBRANCH  11  14
ENDBRANCH   6  11
ENDBRANCH   3   5
BRANCH   2  17
ATOM     17  C   UNL     1      32.800 -23.327 -15.349  0.00  0.00    +0.121 C 
BRANCH  17  23
ATOM     18  F   UNL     1      35.528 -22.815 -15.870  0.00  0.00    -0.202 F 
ATOM     19  F   UNL     1      32.259 -24.233 -12.732  0.00  0.00    -0.202 F 
ATOM     20  F   UNL     1      34.215 -24.584 -10.864  0.00  0.00    -0.199 F 
ATOM     21  F   UNL     1      37.474 -23.165 -13.993  0.00  0.00    -0.199 F 
ATOM     22  F   UNL     1      36.821 -24.051 -11.489  0.00  0.00    -0.199 F 
ATOM     23  C   UNL     1      33.878 -23.521 -14.316  0.00  0.00    +0.057 A 
ATOM     24  C   UNL     1      35.199 -23.247 -14.645  0.00  0.00    +0.170 A 
ATOM     25  C   UNL     1      33.535 -23.969 -13.048  0.00  0.00    +0.170 A 
ATOM     26  C   UNL     1      34.533 -24.149 -12.090  0.00  0.00    +0.197 A 
ATOM     27  C   UNL     1      36.196 -23.428 -13.687  0.00  0.00    +0.197 A 
ATOM     28  C   UNL     1      35.864 -23.878 -12.409  0.00  0.00    +0.199 A 
ENDBRANCH  17  23
ENDBRANCH   2  17
TORSDOF 5
ENDMDL
MODEL 5
REMARK VINA RESULT:     -10.5      6.208     10.079
REMARK  Name = 445770
REMARK  5 active torsions:
REMARK  status: ('A' for Active; 'I' for Inactive)
REMARK    1  A    between atoms: N_2  and  C_17
REMARK    2  A    between atoms: C_3  and  C_5
REMARK    3  A    between atoms: C_6  and  S_11
REMARK    4  A    between atoms: S_11  and  N_14
REMARK    5  A    between atoms: C_17  and  C_23
REMARK                            x       y       z     vdW  Elec       q    Type
REMARK                         _______ _______ _______ _____ _____    ______ ____
ROOT
ATOM      1  O   UNL     1      32.684 -23.652 -18.200  0.00  0.00    -0.270 OA
ATOM      2  N   UNL     1      33.166 -22.349 -16.345  0.00  0.00    -0.297 N 
ATOM      3  C   UNL     1      33.088 -22.577 -17.723  0.00  0.00    +0.246 C 
ATOM      4  H   UNL     1      33.496 -21.473 -16.035  0.00  0.00    +0.150 HD
ENDROOT
BRANCH   3   5
ATOM      5  C   UNL     1      33.529 -21.501 -18.597  0.00  0.00    +0.053 C 
ATOM      6  C   UNL     1      34.377 -19.439 -20.273  0.00  0.00    +0.122 C 
ATOM      7  C   UNL     1      32.592 -20.739 -19.293  0.00  0.00    +0.006 C 
ATOM      8  C   UNL     1      34.891 -21.234 -18.739  0.00  0.00    +0.006 C 
ATOM      9  C   UNL     1      33.016 -19.708 -20.131  0.00  0.00    +0.020 C 
ATOM     10  C   UNL     1      35.315 -20.201 -19.577  0.00  0.00    +0.020 C 
BRANCH   6  11
ATOM     11  S   UNL     1      34.908 -18.147 -21.320  0.00  0.00    +0.057 S 
ATOM     12  O   UNL     1      34.521 -16.877 -20.722  0.00  0.00    -0.153 OA
ATOM     13  O   UNL     1      34.497 -18.460 -22.681  0.00  0.00    -0.153 OA
BRANCH  11  14
ATOM     14  N   UNL     1      36.605 -18.312 -21.206  0.00  0.00    -0.203 NA
ATOM     15  H   UNL     1      37.003 -18.387 -22.142  0.00  0.00    +0.144 HD
ATOM     16  H   UNL     1      36.830 -19.152 -20.673  0.00  0.00    +0.144 HD
ENDBRANCH  11  14
ENDBRANCH   6  11
ENDBRANCH   3   5
BRANCH   2  17
ATOM     17  C   UNL     1      32.787 -23.327 -15.350  0.00  0.00    +0.121 C 
BRANCH  17  23
ATOM     18  F   UNL     1      32.244 -24.237 -12.732  0.00  0.00    -0.202 F 
ATOM     19  F   UNL     1      35.511 -22.799 -15.863  0.00  0.00    -0.202 F 
ATOM     20  F   UNL     1      37.454 -23.139 -13.981  0.00  0.00    -0.199 F 
ATOM     21  F   UNL     1      34.197 -24.578 -10.860  0.00  0.00    -0.199 F 
ATOM     22  F   UNL     1      36.803 -24.029 -11.480  0.00  0.00    -0.199 F 
ATOM     23  C   UNL     1      33.862 -23.515 -14.313  0.00  0.00    +0.057 A 
ATOM     24  C   UNL     1      33.519 -23.967 -13.045  0.00  0.00    +0.170 A 
ATOM     25  C   UNL     1      35.181 -23.235 -14.639  0.00  0.00    +0.170 A 
ATOM     26  C   UNL     1      36.178 -23.409 -13.679  0.00  0.00    +0.197 A 
ATOM     27  C   UNL     1      34.515 -24.141 -12.086  0.00  0.00    +0.197 A 
ATOM     28  C   UNL     1      35.846 -23.862 -12.402  0.00  0.00    +0.199 A 
ENDBRANCH  17  23
ENDBRANCH   2  17
TORSDOF 5
ENDMDL
MODEL 6
REMARK VINA RESULT:     -10.5      6.888     10.765
REMARK  Name = 445770
REMARK  5 active torsions:
REMARK  status: ('A' for Active; 'I' for Inactive)
REMARK    1  A    between atoms: N_2  and  C_17
REMARK    2  A    between atoms: C_3  and  C_5
REMARK    3  A    between atoms: C_6  and  S_11
REMARK    4  A    between atoms: S_11  and  N_14
REMARK    5  A    between atoms: C_17  and  C_23
REMARK                            x       y       z     vdW  Elec       q    Type
REMARK                         _______ _______ _______ _____ _____    ______ ____
ROOT
ATOM      1  O   UNL     1      32.481 -23.629 -17.358  0.00  0.00    -0.270 OA
ATOM      2  N   UNL     1      33.909 -22.743 -15.761  0.00  0.00    -0.297 N 
ATOM      3  C   UNL     1      33.326 -22.777 -17.033  0.00  0.00    +0.246 C 
ATOM      4  H   UNL     1      34.572 -22.040 -15.571  0.00  0.00    +0.150 HD
ENDROOT
BRANCH   3   5
ATOM      5  C   UNL     1      33.771 -21.776 -17.990  0.00  0.00    +0.053 C 
ATOM      6  C   UNL     1      34.626 -19.857 -19.825  0.00  0.00    +0.122 C 
ATOM      7  C   UNL     1      32.844 -21.136 -18.812  0.00  0.00    +0.006 C 
ATOM      8  C   UNL     1      35.126 -21.458 -18.086  0.00  0.00    +0.006 C 
ATOM      9  C   UNL     1      33.272 -20.177 -19.730  0.00  0.00    +0.020 C 
ATOM     10  C   UNL     1      35.554 -20.497 -19.003  0.00  0.00    +0.020 C 
BRANCH   6  11
ATOM     11  S   UNL     1      35.161 -18.655 -20.973  0.00  0.00    +0.057 S 
ATOM     12  O   UNL     1      34.517 -18.917 -22.252  0.00  0.00    -0.153 OA
ATOM     13  O   UNL     1      36.613 -18.564 -20.900  0.00  0.00    -0.153 OA
BRANCH  11  14
ATOM     14  N   UNL     1      34.486 -17.238 -20.299  0.00  0.00    -0.203 NA
ATOM     15  H   UNL     1      34.288 -16.569 -21.042  0.00  0.00    +0.144 HD
ATOM     16  H   UNL     1      35.146 -16.828 -19.638  0.00  0.00    +0.144 HD
ENDBRANCH  11  14
ENDBRANCH   6  11
ENDBRANCH   3   5
BRANCH   2  17
ATOM     17  C   UNL     1      33.589 -23.683 -14.710  0.00  0.00    +0.121 C 
BRANCH  17  23
ATOM     18  F   UNL     1      34.755 -26.192 -15.281  0.00  0.00    -0.202 F 
ATOM     19  F   UNL     1      34.931 -22.195 -12.724  0.00  0.00    -0.202 F 
ATOM     20  F   UNL     1      37.168 -23.109 -11.461  0.00  0.00    -0.199 F 
ATOM     21  F   UNL     1      36.994 -27.093 -14.014  0.00  0.00    -0.199 F 
ATOM     22  F   UNL     1      38.203 -25.555 -12.103  0.00  0.00    -0.199 F 
ATOM     23  C   UNL     1      34.825 -24.186 -14.013  0.00  0.00    +0.057 A 
ATOM     24  C   UNL     1      35.341 -25.430 -14.347  0.00  0.00    +0.170 A 
ATOM     25  C   UNL     1      35.431 -23.396 -13.045  0.00  0.00    +0.170 A 
ATOM     26  C   UNL     1      36.576 -23.860 -12.398  0.00  0.00    +0.197 A 
ATOM     27  C   UNL     1      36.486 -25.895 -13.699  0.00  0.00    +0.197 A 
ATOM     28  C   UNL     1      37.104 -25.110 -12.725  0.00  0.00    +0.199 A 
ENDBRANCH  17  23
ENDBRANCH   2  17
TORSDOF 5
ENDMDL
MODEL 7
REMARK VINA RESULT:     -10.5      6.793     10.635
REMARK  Name = 445770
REMARK  5 active torsions:
REMARK  status: ('A' for Active; 'I' for Inactive)
REMARK    1  A    between atoms: N_2  and  C_17
REMARK    2  A    between atoms: C_3  and  C_5
REMARK    3  A    between atoms: C_6  and  S_11
REMARK    4  A    between atoms: S_11  and  N_14
REMARK    5  A    between atoms: C_17  and  C_23
REMARK                            x       y       z     vdW  Elec       q    Type
REMARK                         _______ _______ _______ _____ _____    ______ ____
ROOT
ATOM      1  O   UNL     1      32.535 -23.775 -17.546  0.00  0.00    -0.270 OA
ATOM      2  N   UNL     1      33.787 -22.785 -15.865  0.00  0.00    -0.297 N 
ATOM      3  C   UNL     1      33.276 -22.851 -17.166  0.00  0.00    +0.246 C 
ATOM      4  H   UNL     1      34.369 -22.026 -15.631  0.00  0.00    +0.150 HD
ENDROOT
BRANCH   3   5
ATOM      5  C   UNL     1      33.671 -21.795 -18.085  0.00  0.00    +0.053 C 
ATOM      6  C   UNL     1      34.428 -19.770 -19.848  0.00  0.00    +0.122 C 
ATOM      7  C   UNL     1      35.017 -21.453 -18.216  0.00  0.00    +0.006 C 
ATOM      8  C   UNL     1      32.704 -21.126 -18.834  0.00  0.00    +0.006 C 
ATOM      9  C   UNL     1      35.395 -20.440 -19.098  0.00  0.00    +0.020 C 
ATOM     10  C   UNL     1      33.083 -20.113 -19.716  0.00  0.00    +0.020 C 
BRANCH   6  11
ATOM     11  S   UNL     1      34.902 -18.504 -20.952  0.00  0.00    +0.057 S 
ATOM     12  O   UNL     1      34.447 -17.228 -20.416  0.00  0.00    -0.153 OA
ATOM     13  O   UNL     1      34.517 -18.901 -22.299  0.00  0.00    -0.153 OA
BRANCH  11  14
ATOM     14  N   UNL     1      36.604 -18.578 -20.821  0.00  0.00    -0.203 NA
ATOM     15  H   UNL     1      36.879 -19.495 -20.471  0.00  0.00    +0.144 HD
ATOM     16  H   UNL     1      36.927 -17.857 -20.176  0.00  0.00    +0.144 HD
ENDBRANCH  11  14
ENDBRANCH   6  11
ENDBRANCH   3   5
BRANCH   2  17
ATOM     17  C   UNL     1      33.506 -23.771 -14.845  0.00  0.00    +0.121 C 
BRANCH  17  23
ATOM     18  F   UNL     1      34.758 -22.108 -12.935  0.00  0.00    -0.202 F 
ATOM     19  F   UNL     1      34.779 -26.257 -15.244  0.00  0.00    -0.202 F 
ATOM     20  F   UNL     1      37.034 -26.988 -13.895  0.00  0.00    -0.199 F 
ATOM     21  F   UNL     1      37.010 -22.851 -11.590  0.00  0.00    -0.199 F 
ATOM     22  F   UNL     1      38.151 -25.290 -12.068  0.00  0.00    -0.199 F 
ATOM     23  C   UNL     1      34.750 -24.177 -14.100  0.00  0.00    +0.057 A 
ATOM     24  C   UNL     1      35.309 -23.306 -13.175  0.00  0.00    +0.170 A 
ATOM     25  C   UNL     1      35.320 -25.417 -14.350  0.00  0.00    +0.170 A 
ATOM     26  C   UNL     1      36.473 -25.795 -13.661  0.00  0.00    +0.197 A 
ATOM     27  C   UNL     1      36.462 -23.683 -12.487  0.00  0.00    +0.197 A 
ATOM     28  C   UNL     1      37.045 -24.927 -12.729  0.00  0.00    +0.199 A 
ENDBRANCH  17  23
ENDBRANCH   2  17
TORSDOF 5
ENDMDL
MODEL 8
REMARK VINA RESULT:     -10.0      1.583      2.530
REMARK  Name = 445770
REMARK  5 active torsions:
REMARK  status: ('A' for Active; 'I' for Inactive)
REMARK    1  A    between atoms: N_2  and  C_17
REMARK    2  A    between atoms: C_3  and  C_5
REMARK    3  A    between atoms: C_6  and  S_11
REMARK    4  A    between atoms: S_11  and  N_14
REMARK    5  A    between atoms: C_17  and  C_23
REMARK                            x       y       z     vdW  Elec       q    Type
REMARK                         _______ _______ _______ _____ _____    ______ ____
ROOT
ATOM      1  O   UNL     1      36.363 -18.704 -20.999  0.00  0.00    -0.270 OA
ATOM      2  N   UNL     1      34.313 -17.660 -21.277  0.00  0.00    -0.297 N 
ATOM      3  C   UNL     1      35.144 -18.659 -20.759  0.00  0.00    +0.246 C 
ATOM      4  H   UNL     1      33.355 -17.684 -21.047  0.00  0.00    +0.150 HD
ENDROOT
BRANCH   3   5
ATOM      5  C   UNL     1      34.515 -19.679 -19.935  0.00  0.00    +0.053 C 
ATOM      6  C   UNL     1      33.310 -21.637 -18.354  0.00  0.00    +0.122 C 
ATOM      7  C   UNL     1      33.128 -19.825 -19.943  0.00  0.00    +0.006 C 
ATOM      8  C   UNL     1      35.300 -20.511 -19.136  0.00  0.00    +0.006 C 
ATOM      9  C   UNL     1      32.526 -20.804 -19.152  0.00  0.00    +0.020 C 
ATOM     10  C   UNL     1      34.697 -21.491 -18.346  0.00  0.00    +0.020 C 
BRANCH   6  11
ATOM     11  S   UNL     1      32.556 -22.862 -17.366  0.00  0.00    +0.057 S 
ATOM     12  O   UNL     1      32.650 -24.139 -18.060  0.00  0.00    -0.153 OA
ATOM     13  O   UNL     1      31.257 -22.369 -16.933  0.00  0.00    -0.153 OA
BRANCH  11  14
ATOM     14  N   UNL     1      33.610 -22.890 -16.021  0.00  0.00    -0.203 NA
ATOM     15  H   UNL     1      34.510 -22.489 -16.286  0.00  0.00    +0.144 HD
ATOM     16  H   UNL     1      33.745 -23.854 -15.714  0.00  0.00    +0.144 HD
ENDBRANCH  11  14
ENDBRANCH   6  11
ENDBRANCH   3   5
BRANCH   2  17
ATOM     17  C   UNL     1      34.783 -16.592 -22.131  0.00  0.00    +0.121 C 
BRANCH  17  23
ATOM     18  F   UNL     1      33.118 -18.500 -23.380  0.00  0.00    -0.202 F 
ATOM     19  F   UNL     1      34.389 -13.941 -23.013  0.00  0.00    -0.202 F 
ATOM     20  F   UNL     1      32.552 -13.282 -24.917  0.00  0.00    -0.199 F 
ATOM     21  F   UNL     1      31.281 -17.829 -25.280  0.00  0.00    -0.199 F 
ATOM     22  F   UNL     1      30.996 -15.221 -26.052  0.00  0.00    -0.199 F 
ATOM     23  C   UNL     1      33.768 -16.226 -23.181  0.00  0.00    +0.057 A 
ATOM     24  C   UNL     1      32.984 -17.220 -23.751  0.00  0.00    +0.170 A 
ATOM     25  C   UNL     1      33.631 -14.899 -23.564  0.00  0.00    +0.170 A 
ATOM     26  C   UNL     1      32.691 -14.558 -24.537  0.00  0.00    +0.197 A 
ATOM     27  C   UNL     1      32.045 -16.879 -24.724  0.00  0.00    +0.197 A 
ATOM     28  C   UNL     1      31.898 -15.549 -25.117  0.00  0.00    +0.199 A 
ENDBRANCH  17  23
ENDBRANCH   2  17
TORSDOF 5
ENDMDL
MODEL 9
REMARK VINA RESULT:      -9.9      1.474      2.315
REMARK  Name = 445770
REMARK  5 active torsions:
REMARK  status: ('A' for Active; 'I' for Inactive)
REMARK    1  A    between atoms: N_2  and  C_17
REMARK    2  A    between atoms: C_3  and  C_5
REMARK    3  A    between atoms: C_6  and  S_11
REMARK    4  A    between atoms: S_11  and  N_14
REMARK    5  A    between atoms: C_17  and  C_23
REMARK                            x       y       z     vdW  Elec       q    Type
REMARK                         _______ _______ _______ _____ _____    ______ ____
ROOT
ATOM      1  O   UNL     1      36.255 -18.462 -21.489  0.00  0.00    -0.270 OA
ATOM      2  N   UNL     1      34.335 -17.187 -21.248  0.00  0.00    -0.297 N 
ATOM      3  C   UNL     1      35.114 -18.326 -21.014  0.00  0.00    +0.246 C 
ATOM      4  H   UNL     1      33.438 -17.144 -20.841  0.00  0.00    +0.150 HD
ENDROOT
BRANCH   3   5
ATOM      5  C   UNL     1      34.521 -19.377 -20.202  0.00  0.00    +0.053 C 
ATOM      6  C   UNL     1      33.385 -21.393 -18.646  0.00  0.00    +0.122 C 
ATOM      7  C   UNL     1      33.138 -19.558 -20.198  0.00  0.00    +0.006 C 
ATOM      8  C   UNL     1      35.337 -20.203 -19.429  0.00  0.00    +0.006 C 
ATOM      9  C   UNL     1      32.570 -20.566 -19.419  0.00  0.00    +0.020 C 
ATOM     10  C   UNL     1      34.768 -21.212 -18.650  0.00  0.00    +0.020 C 
BRANCH   6  11
ATOM     11  S   UNL     1      32.674 -22.656 -17.672  0.00  0.00    +0.057 S 
ATOM     12  O   UNL     1      32.800 -23.919 -18.387  0.00  0.00    -0.153 OA
ATOM     13  O   UNL     1      31.363 -22.208 -17.223  0.00  0.00    -0.153 OA
BRANCH  11  14
ATOM     14  N   UNL     1      33.737 -22.674 -16.335  0.00  0.00    -0.203 NA
ATOM     15  H   UNL     1      33.351 -22.100 -15.586  0.00  0.00    +0.144 HD
ATOM     16  H   UNL     1      34.644 -22.301 -16.617  0.00  0.00    +0.144 HD
ENDBRANCH  11  14
ENDBRANCH   6  11
ENDBRANCH   3   5
BRANCH   2  17
ATOM     17  C   UNL     1      34.774 -16.069 -22.052  0.00  0.00    +0.121 C 
BRANCH  17  23
ATOM     18  F   UNL     1      34.197 -13.401 -22.777  0.00  0.00    -0.202 F 
ATOM     19  F   UNL     1      33.303 -18.011 -23.476  0.00  0.00    -0.202 F 
ATOM     20  F   UNL     1      31.476 -17.359 -25.392  0.00  0.00    -0.199 F 
ATOM     21  F   UNL     1      32.371 -12.761 -24.697  0.00  0.00    -0.199 F 
ATOM     22  F   UNL     1      31.007 -14.737 -26.007  0.00  0.00    -0.199 F 
ATOM     23  C   UNL     1      33.765 -15.711 -23.111  0.00  0.00    +0.057 A 
ATOM     24  C   UNL     1      33.535 -14.376 -23.414  0.00  0.00    +0.170 A 
ATOM     25  C   UNL     1      33.080 -16.722 -23.770  0.00  0.00    +0.170 A 
ATOM     26  C   UNL     1      32.145 -16.392 -24.751  0.00  0.00    +0.197 A 
ATOM     27  C   UNL     1      32.600 -14.046 -24.395  0.00  0.00    +0.197 A 
ATOM     28  C   UNL     1      31.905 -15.053 -25.064  0.00  0.00    +0.199 A 
ENDBRANCH  17  23
ENDBRANCH   2  17
TORSDOF 5
ENDMDL
