MODEL 1
REMARK VINA RESULT:     -12.3      0.000      0.000
REMARK  Name = 100472
REMARK  3 active torsions:
REMARK  status: ('A' for Active; 'I' for Inactive)
REMARK    1  A    between atoms: C_1  and  C_13
REMARK    2  A    between atoms: C_2  and  C_7
REMARK    3  A    between atoms: C_13  and  C_16
REMARK                            x       y       z     vdW  Elec       q    Type
REMARK                         _______ _______ _______ _____ _____    ______ ____
ROOT
ATOM      1  C   UNL     1      33.806 -21.283 -18.641  0.00  0.00    -0.013 C 
ATOM      2  C   UNL     1      33.858 -19.339 -20.642  0.00  0.00    -0.000 C 
ATOM      3  C   UNL     1      35.026 -20.783 -19.096  0.00  0.00    -0.004 C 
ATOM      4  C   UNL     1      32.612 -20.811 -19.186  0.00  0.00    -0.004 C 
ATOM      5  C   UNL     1      35.052 -19.811 -20.096  0.00  0.00    -0.000 C 
ATOM      6  C   UNL     1      32.638 -19.839 -20.186  0.00  0.00    -0.000 C 
ENDROOT
BRANCH   2   7
ATOM      7  C   UNL     1      33.885 -18.331 -21.680  0.00  0.00    -0.000 C 
ATOM      8  C   UNL     1      33.451 -18.645 -22.967  0.00  0.00    -0.000 C 
ATOM      9  C   UNL     1      34.346 -17.047 -21.392  0.00  0.00    -0.000 C 
ATOM     10  C   UNL     1      33.477 -17.673 -23.968  0.00  0.00    +0.000 C 
ATOM     11  C   UNL     1      34.371 -16.074 -22.392  0.00  0.00    +0.000 C 
ATOM     12  C   UNL     1      33.936 -16.388 -23.680  0.00  0.00    +0.000 C 
ENDBRANCH   2   7
BRANCH   1  13
ATOM     13  C   UNL     1      33.778 -22.322 -17.571  0.00  0.00    +0.112 C 
BRANCH  13  16
ATOM     14  O   UNL     1      31.380 -22.108 -17.453  0.00  0.00    -0.274 OA
ATOM     15  N   UNL     1      32.529 -23.144 -15.686  0.00  0.00    -0.269 N 
ATOM     16  C   UNL     1      32.411 -22.500 -16.916  0.00  0.00    +0.232 C 
ATOM     17  H   UNL     1      33.441 -23.389 -15.409  0.00  0.00    +0.156 HD
ATOM     18  N   UNL     1      31.825 -24.109 -13.645  0.00  0.00    -0.229 NA
ATOM     19  C   UNL     1      31.490 -23.485 -14.788  0.00  0.00    +0.134 C 
ATOM     20  C   UNL     1      30.206 -23.150 -15.164  0.00  0.00    +0.034 C 
ATOM     21  C   UNL     1      29.179 -23.482 -14.289  0.00  0.00    +0.004 C 
ATOM     22  C   UNL     1      29.472 -24.128 -13.093  0.00  0.00    +0.021 C 
ATOM     23  C   UNL     1      30.799 -24.417 -12.821  0.00  0.00    +0.100 C 
ENDBRANCH  13  16
ENDBRANCH   1  13
TORSDOF 3
ENDMDL
MODEL 2
REMARK VINA RESULT:     -12.2      3.632      9.128
REMARK  Name = 100472
REMARK  3 active torsions:
REMARK  status: ('A' for Active; 'I' for Inactive)
REMARK    1  A    between atoms: C_1  and  C_13
REMARK    2  A    between atoms: C_2  and  C_7
REMARK    3  A    between atoms: C_13  and  C_16
REMARK                            x       y       z     vdW  Elec       q    Type
REMARK                         _______ _______ _______ _____ _____    ______ ____
ROOT
ATOM      1  C   UNL     1      34.068 -20.062 -20.203  0.00  0.00    -0.013 C 
ATOM      2  C   UNL     1      33.220 -21.501 -17.968  0.00  0.00    -0.000 C 
ATOM      3  C   UNL     1      35.004 -20.694 -19.384  0.00  0.00    -0.004 C 
ATOM      4  C   UNL     1      32.708 -20.149 -19.904  0.00  0.00    -0.004 C 
ATOM      5  C   UNL     1      34.580 -21.414 -18.267  0.00  0.00    -0.000 C 
ATOM      6  C   UNL     1      32.284 -20.869 -18.787  0.00  0.00    -0.000 C 
ENDROOT
BRANCH   2   7
ATOM      7  C   UNL     1      32.780 -22.247 -16.809  0.00  0.00    -0.000 C 
ATOM      8  C   UNL     1      33.716 -22.761 -15.913  0.00  0.00    -0.000 C 
ATOM      9  C   UNL     1      31.418 -22.452 -16.588  0.00  0.00    -0.000 C 
ATOM     10  C   UNL     1      33.292 -23.480 -14.795  0.00  0.00    +0.000 C 
ATOM     11  C   UNL     1      30.993 -23.171 -15.470  0.00  0.00    +0.000 C 
ATOM     12  C   UNL     1      31.931 -23.684 -14.574  0.00  0.00    +0.000 C 
ENDBRANCH   2   7
BRANCH   1  13
ATOM     13  C   UNL     1      34.521 -19.292 -21.397  0.00  0.00    +0.112 C 
BRANCH  13  16
ATOM     14  O   UNL     1      34.566 -17.191 -20.218  0.00  0.00    -0.274 OA
ATOM     15  N   UNL     1      33.898 -17.231 -22.469  0.00  0.00    -0.269 N 
ATOM     16  C   UNL     1      34.338 -17.783 -21.268  0.00  0.00    +0.232 C 
ATOM     17  H   UNL     1      33.766 -17.860 -23.215  0.00  0.00    +0.156 HD
ATOM     18  N   UNL     1      33.201 -15.549 -23.979  0.00  0.00    -0.229 NA
ATOM     19  C   UNL     1      33.618 -15.870 -22.741  0.00  0.00    +0.134 C 
ATOM     20  C   UNL     1      33.800 -14.977 -21.707  0.00  0.00    +0.034 C 
ATOM     21  C   UNL     1      33.529 -13.639 -21.965  0.00  0.00    +0.004 C 
ATOM     22  C   UNL     1      33.094 -13.254 -23.229  0.00  0.00    +0.021 C 
ATOM     23  C   UNL     1      32.948 -14.239 -24.192  0.00  0.00    +0.100 C 
ENDBRANCH  13  16
ENDBRANCH   1  13
TORSDOF 3
ENDMDL
MODEL 3
REMARK VINA RESULT:     -12.0      2.862      3.693
REMARK  Name = 100472
REMARK  3 active torsions:
REMARK  status: ('A' for Active; 'I' for Inactive)
REMARK    1  A    between atoms: C_1  and  C_13
REMARK    2  A    between atoms: C_2  and  C_7
REMARK    3  A    between atoms: C_13  and  C_16
REMARK                            x       y       z     vdW  Elec       q    Type
REMARK                         _______ _______ _______ _____ _____    ______ ____
ROOT
ATOM      1  C   UNL     1      32.789 -22.200 -17.398  0.00  0.00    -0.013 C 
ATOM      2  C   UNL     1      33.765 -20.479 -19.367  0.00  0.00    -0.000 C 
ATOM      3  C   UNL     1      31.901 -21.495 -18.212  0.00  0.00    -0.004 C 
ATOM      4  C   UNL     1      34.165 -22.044 -17.569  0.00  0.00    -0.004 C 
ATOM      5  C   UNL     1      32.389 -20.635 -19.196  0.00  0.00    -0.000 C 
ATOM      6  C   UNL     1      34.653 -21.184 -18.553  0.00  0.00    -0.000 C 
ENDROOT
BRANCH   2   7
ATOM      7  C   UNL     1      34.272 -19.587 -20.387  0.00  0.00    -0.000 C 
ATOM      8  C   UNL     1      33.457 -19.216 -21.456  0.00  0.00    -0.000 C 
ATOM      9  C   UNL     1      35.575 -19.098 -20.300  0.00  0.00    -0.000 C 
ATOM     10  C   UNL     1      33.946 -18.355 -22.439  0.00  0.00    +0.000 C 
ATOM     11  C   UNL     1      36.064 -18.236 -21.282  0.00  0.00    +0.000 C 
ATOM     12  C   UNL     1      35.248 -17.865 -22.352  0.00  0.00    +0.000 C 
ENDBRANCH   2   7
BRANCH   1  13
ATOM     13  C   UNL     1      32.267 -23.119 -16.347  0.00  0.00    +0.112 C 
BRANCH  13  16
ATOM     14  O   UNL     1      33.254 -22.398 -14.269  0.00  0.00    -0.274 OA
ATOM     15  N   UNL     1      33.888 -24.465 -15.185  0.00  0.00    -0.269 N 
ATOM     16  C   UNL     1      33.187 -23.263 -15.137  0.00  0.00    +0.232 C 
ATOM     17  H   UNL     1      33.708 -25.043 -15.962  0.00  0.00    +0.156 HD
ATOM     18  N   UNL     1      35.395 -26.149 -14.488  0.00  0.00    -0.229 NA
ATOM     19  C   UNL     1      34.829 -24.953 -14.248  0.00  0.00    +0.134 C 
ATOM     20  C   UNL     1      35.089 -24.156 -13.154  0.00  0.00    +0.034 C 
ATOM     21  C   UNL     1      36.012 -24.627 -12.227  0.00  0.00    +0.004 C 
ATOM     22  C   UNL     1      36.626 -25.858 -12.428  0.00  0.00    +0.021 C 
ATOM     23  C   UNL     1      36.285 -26.574 -13.564  0.00  0.00    +0.100 C 
ENDBRANCH  13  16
ENDBRANCH   1  13
TORSDOF 3
ENDMDL
MODEL 4
REMARK VINA RESULT:     -11.8      2.431      2.902
REMARK  Name = 100472
REMARK  3 active torsions:
REMARK  status: ('A' for Active; 'I' for Inactive)
REMARK    1  A    between atoms: C_1  and  C_13
REMARK    2  A    between atoms: C_2  and  C_7
REMARK    3  A    between atoms: C_13  and  C_16
REMARK                            x       y       z     vdW  Elec       q    Type
REMARK                         _______ _______ _______ _____ _____    ______ ____
ROOT
ATOM      1  C   UNL     1      33.231 -21.734 -18.091  0.00  0.00    -0.013 C 
ATOM      2  C   UNL     1      33.612 -19.826 -20.091  0.00  0.00    -0.000 C 
ATOM      3  C   UNL     1      34.521 -21.429 -18.529  0.00  0.00    -0.004 C 
ATOM      4  C   UNL     1      32.132 -21.084 -18.653  0.00  0.00    -0.004 C 
ATOM      5  C   UNL     1      34.710 -20.476 -19.529  0.00  0.00    -0.000 C 
ATOM      6  C   UNL     1      32.322 -20.130 -19.653  0.00  0.00    -0.000 C 
ENDROOT
BRANCH   2   7
ATOM      7  C   UNL     1      33.808 -18.837 -21.129  0.00  0.00    -0.000 C 
ATOM      8  C   UNL     1      33.424 -19.115 -22.440  0.00  0.00    -0.000 C 
ATOM      9  C   UNL     1      34.383 -17.605 -20.817  0.00  0.00    -0.000 C 
ATOM     10  C   UNL     1      33.613 -18.161 -23.440  0.00  0.00    +0.000 C 
ATOM     11  C   UNL     1      34.572 -16.650 -21.817  0.00  0.00    +0.000 C 
ATOM     12  C   UNL     1      34.187 -16.929 -23.128  0.00  0.00    +0.000 C 
ENDBRANCH   2   7
BRANCH   1  13
ATOM     13  C   UNL     1      33.028 -22.753 -17.022  0.00  0.00    +0.112 C 
BRANCH  13  16
ATOM     14  O   UNL     1      35.202 -22.259 -16.104  0.00  0.00    -0.274 OA
ATOM     15  N   UNL     1      33.561 -23.214 -14.721  0.00  0.00    -0.269 N 
ATOM     16  C   UNL     1      34.075 -22.704 -15.911  0.00  0.00    +0.232 C 
ATOM     17  H   UNL     1      32.629 -23.529 -14.749  0.00  0.00    +0.156 HD
ATOM     18  N   UNL     1      33.539 -23.858 -12.446  0.00  0.00    -0.229 NA
ATOM     19  C   UNL     1      34.225 -23.332 -13.477  0.00  0.00    +0.134 C 
ATOM     20  C   UNL     1      35.530 -22.893 -13.422  0.00  0.00    +0.034 C 
ATOM     21  C   UNL     1      36.190 -23.005 -12.204  0.00  0.00    +0.004 C 
ATOM     22  C   UNL     1      35.526 -23.541 -11.106  0.00  0.00    +0.021 C 
ATOM     23  C   UNL     1      34.213 -23.949 -11.278  0.00  0.00    +0.100 C 
ENDBRANCH  13  16
ENDBRANCH   1  13
TORSDOF 3
ENDMDL
MODEL 5
REMARK VINA RESULT:     -11.8      4.999      8.948
REMARK  Name = 100472
REMARK  3 active torsions:
REMARK  status: ('A' for Active; 'I' for Inactive)
REMARK    1  A    between atoms: C_1  and  C_13
REMARK    2  A    between atoms: C_2  and  C_7
REMARK    3  A    between atoms: C_13  and  C_16
REMARK                            x       y       z     vdW  Elec       q    Type
REMARK                         _______ _______ _______ _____ _____    ______ ____
ROOT
ATOM      1  C   UNL     1      34.064 -16.809 -22.831  0.00  0.00    -0.013 C 
ATOM      2  C   UNL     1      33.895 -18.856 -20.943  0.00  0.00    -0.000 C 
ATOM      3  C   UNL     1      34.593 -16.625 -21.553  0.00  0.00    -0.004 C 
ATOM      4  C   UNL     1      33.451 -18.017 -23.165  0.00  0.00    -0.004 C 
ATOM      5  C   UNL     1      34.508 -17.649 -20.609  0.00  0.00    -0.000 C 
ATOM      6  C   UNL     1      33.366 -19.040 -22.221  0.00  0.00    -0.000 C 
ENDROOT
BRANCH   2   7
ATOM      7  C   UNL     1      33.806 -19.918 -19.964  0.00  0.00    -0.000 C 
ATOM      8  C   UNL     1      32.558 -20.383 -19.550  0.00  0.00    -0.000 C 
ATOM      9  C   UNL     1      34.969 -20.476 -19.434  0.00  0.00    -0.000 C 
ATOM     10  C   UNL     1      32.473 -21.407 -18.606  0.00  0.00    +0.000 C 
ATOM     11  C   UNL     1      34.885 -21.500 -18.490  0.00  0.00    +0.000 C 
ATOM     12  C   UNL     1      33.636 -21.965 -18.077  0.00  0.00    +0.000 C 
ENDBRANCH   2   7
BRANCH   1  13
ATOM     13  C   UNL     1      34.155 -15.715 -23.840  0.00  0.00    +0.112 C 
BRANCH  13  16
ATOM     14  O   UNL     1      33.226 -13.526 -24.238  0.00  0.00    -0.274 OA
ATOM     15  N   UNL     1      33.012 -14.496 -22.110  0.00  0.00    -0.269 N 
ATOM     16  C   UNL     1      33.414 -14.442 -23.442  0.00  0.00    +0.232 C 
ATOM     17  H   UNL     1      33.249 -15.314 -21.617  0.00  0.00    +0.156 HD
ATOM     18  N   UNL     1      32.012 -13.767 -20.094  0.00  0.00    -0.229 NA
ATOM     19  C   UNL     1      32.302 -13.511 -21.382  0.00  0.00    +0.134 C 
ATOM     20  C   UNL     1      31.960 -12.361 -22.060  0.00  0.00    +0.034 C 
ATOM     21  C   UNL     1      31.262 -11.388 -21.354  0.00  0.00    +0.004 C 
ATOM     22  C   UNL     1      30.937 -11.603 -20.019  0.00  0.00    +0.021 C 
ATOM     23  C   UNL     1      31.331 -12.799 -19.441  0.00  0.00    +0.100 C 
ENDBRANCH  13  16
ENDBRANCH   1  13
TORSDOF 3
ENDMDL
MODEL 6
REMARK VINA RESULT:     -11.6      2.166      4.124
REMARK  Name = 100472
REMARK  3 active torsions:
REMARK  status: ('A' for Active; 'I' for Inactive)
REMARK    1  A    between atoms: C_1  and  C_13
REMARK    2  A    between atoms: C_2  and  C_7
REMARK    3  A    between atoms: C_13  and  C_16
REMARK                            x       y       z     vdW  Elec       q    Type
REMARK                         _______ _______ _______ _____ _____    ______ ____
ROOT
ATOM      1  C   UNL     1      34.568 -18.444 -21.311  0.00  0.00    -0.013 C 
ATOM      2  C   UNL     1      33.800 -16.139 -22.683  0.00  0.00    -0.000 C 
ATOM      3  C   UNL     1      34.579 -17.209 -20.662  0.00  0.00    -0.004 C 
ATOM      4  C   UNL     1      34.172 -18.526 -22.646  0.00  0.00    -0.004 C 
ATOM      5  C   UNL     1      34.196 -16.057 -21.347  0.00  0.00    -0.000 C 
ATOM      6  C   UNL     1      33.789 -17.374 -23.332  0.00  0.00    -0.000 C 
ENDROOT
BRANCH   2   7
ATOM      7  C   UNL     1      33.403 -14.944 -23.395  0.00  0.00    -0.000 C 
ATOM      8  C   UNL     1      33.527 -13.696 -22.786  0.00  0.00    -0.000 C 
ATOM      9  C   UNL     1      32.895 -15.041 -24.690  0.00  0.00    -0.000 C 
ATOM     10  C   UNL     1      33.145 -12.543 -23.473  0.00  0.00    +0.000 C 
ATOM     11  C   UNL     1      32.513 -13.889 -25.378  0.00  0.00    +0.000 C 
ATOM     12  C   UNL     1      32.638 -12.640 -24.768  0.00  0.00    +0.000 C 
ENDBRANCH   2   7
BRANCH   1  13
ATOM     13  C   UNL     1      34.978 -19.676 -20.577  0.00  0.00    +0.112 C 
BRANCH  13  16
ATOM     14  O   UNL     1      32.679 -20.152 -20.029  0.00  0.00    -0.274 OA
ATOM     15  N   UNL     1      34.387 -21.021 -18.672  0.00  0.00    -0.269 N 
ATOM     16  C   UNL     1      33.863 -20.301 -19.742  0.00  0.00    +0.232 C 
ATOM     17  H   UNL     1      35.368 -21.033 -18.594  0.00  0.00    +0.156 HD
ATOM     18  N   UNL     1      34.380 -22.369 -16.728  0.00  0.00    -0.229 NA
ATOM     19  C   UNL     1      33.672 -21.737 -17.682  0.00  0.00    +0.134 C 
ATOM     20  C   UNL     1      32.297 -21.732 -17.779  0.00  0.00    +0.034 C 
ATOM     21  C   UNL     1      31.587 -22.433 -16.812  0.00  0.00    +0.004 C 
ATOM     22  C   UNL     1      32.271 -23.104 -15.804  0.00  0.00    +0.021 C 
ATOM     23  C   UNL     1      33.655 -23.041 -15.807  0.00  0.00    +0.100 C 
ENDBRANCH  13  16
ENDBRANCH   1  13
TORSDOF 3
ENDMDL
MODEL 7
REMARK VINA RESULT:     -11.6      1.445      2.073
REMARK  Name = 100472
REMARK  3 active torsions:
REMARK  status: ('A' for Active; 'I' for Inactive)
REMARK    1  A    between atoms: C_1  and  C_13
REMARK    2  A    between atoms: C_2  and  C_7
REMARK    3  A    between atoms: C_13  and  C_16
REMARK                            x       y       z     vdW  Elec       q    Type
REMARK                         _______ _______ _______ _____ _____    ______ ____
ROOT
ATOM      1  C   UNL     1      33.553 -21.852 -18.507  0.00  0.00    -0.013 C 
ATOM      2  C   UNL     1      33.777 -19.640 -20.194  0.00  0.00    -0.000 C 
ATOM      3  C   UNL     1      34.813 -21.368 -18.860  0.00  0.00    -0.004 C 
ATOM      4  C   UNL     1      32.405 -21.229 -18.998  0.00  0.00    -0.004 C 
ATOM      5  C   UNL     1      34.925 -20.263 -19.702  0.00  0.00    -0.000 C 
ATOM      6  C   UNL     1      32.517 -20.124 -19.841  0.00  0.00    -0.000 C 
ENDROOT
BRANCH   2   7
ATOM      7  C   UNL     1      33.893 -18.494 -21.069  0.00  0.00    -0.000 C 
ATOM      8  C   UNL     1      34.287 -17.260 -20.553  0.00  0.00    -0.000 C 
ATOM      9  C   UNL     1      33.611 -18.624 -22.428  0.00  0.00    -0.000 C 
ATOM     10  C   UNL     1      34.400 -16.155 -21.397  0.00  0.00    +0.000 C 
ATOM     11  C   UNL     1      33.724 -17.519 -23.273  0.00  0.00    +0.000 C 
ATOM     12  C   UNL     1      34.118 -16.285 -22.756  0.00  0.00    +0.000 C 
ENDBRANCH   2   7
BRANCH   1  13
ATOM     13  C   UNL     1      33.433 -23.034 -17.606  0.00  0.00    +0.112 C 
BRANCH  13  16
ATOM     14  O   UNL     1      33.046 -22.655 -15.257  0.00  0.00    -0.274 OA
ATOM     15  N   UNL     1      31.214 -22.746 -16.722  0.00  0.00    -0.269 N 
ATOM     16  C   UNL     1      32.562 -22.790 -16.376  0.00  0.00    +0.232 C 
ATOM     17  H   UNL     1      31.005 -22.875 -17.676  0.00  0.00    +0.156 HD
ATOM     18  N   UNL     1      28.879 -22.535 -16.408  0.00  0.00    -0.229 NA
ATOM     19  C   UNL     1      30.108 -22.540 -15.863  0.00  0.00    +0.134 C 
ATOM     20  C   UNL     1      30.385 -22.355 -14.525  0.00  0.00    +0.034 C 
ATOM     21  C   UNL     1      29.307 -22.151 -13.673  0.00  0.00    +0.004 C 
ATOM     22  C   UNL     1      28.014 -22.137 -14.186  0.00  0.00    +0.021 C 
ATOM     23  C   UNL     1      27.856 -22.331 -15.549  0.00  0.00    +0.100 C 
ENDBRANCH  13  16
ENDBRANCH   1  13
TORSDOF 3
ENDMDL
MODEL 8
REMARK VINA RESULT:     -11.5      3.358      4.401
REMARK  Name = 100472
REMARK  3 active torsions:
REMARK  status: ('A' for Active; 'I' for Inactive)
REMARK    1  A    between atoms: C_1  and  C_13
REMARK    2  A    between atoms: C_2  and  C_7
REMARK    3  A    between atoms: C_13  and  C_16
REMARK                            x       y       z     vdW  Elec       q    Type
REMARK                         _______ _______ _______ _____ _____    ______ ____
ROOT
ATOM      1  C   UNL     1      33.256 -22.497 -16.686  0.00  0.00    -0.013 C 
ATOM      2  C   UNL     1      34.023 -20.844 -18.799  0.00  0.00    -0.000 C 
ATOM      3  C   UNL     1      32.306 -22.055 -17.607  0.00  0.00    -0.004 C 
ATOM      4  C   UNL     1      34.590 -22.111 -16.822  0.00  0.00    -0.004 C 
ATOM      5  C   UNL     1      32.689 -21.229 -18.663  0.00  0.00    -0.000 C 
ATOM      6  C   UNL     1      34.973 -21.285 -17.878  0.00  0.00    -0.000 C 
ENDROOT
BRANCH   2   7
ATOM      7  C   UNL     1      34.420 -19.986 -19.894  0.00  0.00    -0.000 C 
ATOM      8  C   UNL     1      35.721 -19.486 -19.952  0.00  0.00    -0.000 C 
ATOM      9  C   UNL     1      33.502 -19.659 -20.892  0.00  0.00    -0.000 C 
ATOM     10  C   UNL     1      36.104 -18.660 -21.009  0.00  0.00    +0.000 C 
ATOM     11  C   UNL     1      33.886 -18.833 -21.949  0.00  0.00    +0.000 C 
ATOM     12  C   UNL     1      35.187 -18.334 -22.007  0.00  0.00    +0.000 C 
ENDBRANCH   2   7
BRANCH   1  13
ATOM     13  C   UNL     1      32.846 -23.380 -15.556  0.00  0.00    +0.112 C 
BRANCH  13  16
ATOM     14  O   UNL     1      34.517 -25.065 -15.131  0.00  0.00    -0.274 OA
ATOM     15  N   UNL     1      34.395 -23.187 -13.726  0.00  0.00    -0.269 N 
ATOM     16  C   UNL     1      34.017 -23.996 -14.795  0.00  0.00    +0.232 C 
ATOM     17  H   UNL     1      33.879 -22.357 -13.604  0.00  0.00    +0.156 HD
ATOM     18  N   UNL     1      35.634 -22.502 -11.831  0.00  0.00    -0.229 NA
ATOM     19  C   UNL     1      35.435 -23.419 -12.795  0.00  0.00    +0.134 C 
ATOM     20  C   UNL     1      36.169 -24.575 -12.954  0.00  0.00    +0.034 C 
ATOM     21  C   UNL     1      37.193 -24.812 -12.045  0.00  0.00    +0.004 C 
ATOM     22  C   UNL     1      37.439 -23.894 -11.029  0.00  0.00    +0.021 C 
ATOM     23  C   UNL     1      36.639 -22.765 -10.967  0.00  0.00    +0.100 C 
ENDBRANCH  13  16
ENDBRANCH   1  13
TORSDOF 3
ENDMDL
MODEL 9
REMARK VINA RESULT:     -11.4      4.305      7.157
REMARK  Name = 100472
REMARK  3 active torsions:
REMARK  status: ('A' for Active; 'I' for Inactive)
REMARK    1  A    between atoms: C_1  and  C_13
REMARK    2  A    between atoms: C_2  and  C_7
REMARK    3  A    between atoms: C_13  and  C_16
REMARK                            x       y       z     vdW  Elec       q    Type
REMARK                         _______ _______ _______ _____ _____    ______ ____
ROOT
ATOM      1  C   UNL     1      33.788 -15.783 -22.546  0.00  0.00    -0.013 C 
ATOM      2  C   UNL     1      32.544 -13.483 -21.572  0.00  0.00    -0.000 C 
ATOM      3  C   UNL     1      33.050 -14.971 -23.407  0.00  0.00    -0.004 C 
ATOM      4  C   UNL     1      33.904 -15.445 -21.198  0.00  0.00    -0.004 C 
ATOM      5  C   UNL     1      32.429 -13.821 -22.920  0.00  0.00    -0.000 C 
ATOM      6  C   UNL     1      33.283 -14.296 -20.711  0.00  0.00    -0.000 C 
ENDROOT
BRANCH   2   7
ATOM      7  C   UNL     1      31.899 -12.291 -21.066  0.00  0.00    -0.000 C 
ATOM      8  C   UNL     1      31.317 -12.297 -19.799  0.00  0.00    -0.000 C 
ATOM      9  C   UNL     1      31.859 -11.136 -21.847  0.00  0.00    -0.000 C 
ATOM     10  C   UNL     1      30.696 -11.147 -19.311  0.00  0.00    +0.000 C 
ATOM     11  C   UNL     1      31.238  -9.986 -21.359  0.00  0.00    +0.000 C 
ATOM     12  C   UNL     1      30.656  -9.992 -20.091  0.00  0.00    +0.000 C 
ENDBRANCH   2   7
BRANCH   1  13
ATOM     13  C   UNL     1      34.453 -17.012 -23.067  0.00  0.00    +0.112 C 
BRANCH  13  16
ATOM     14  O   UNL     1      36.028 -18.197 -21.680  0.00  0.00    -0.274 OA
ATOM     15  N   UNL     1      33.732 -18.619 -21.429  0.00  0.00    -0.269 N 
ATOM     16  C   UNL     1      34.854 -18.007 -21.982  0.00  0.00    +0.232 C 
ATOM     17  H   UNL     1      32.860 -18.343 -21.796  0.00  0.00    +0.156 HD
ATOM     18  N   UNL     1      32.496 -20.055 -20.013  0.00  0.00    -0.229 NA
ATOM     19  C   UNL     1      33.697 -19.592 -20.402  0.00  0.00    +0.134 C 
ATOM     20  C   UNL     1      34.909 -19.987 -19.876  0.00  0.00    +0.034 C 
ATOM     21  C   UNL     1      34.886 -20.941 -18.866  0.00  0.00    +0.004 C 
ATOM     22  C   UNL     1      33.670 -21.453 -18.428  0.00  0.00    +0.021 C 
ATOM     23  C   UNL     1      32.514 -20.981 -19.028  0.00  0.00    +0.100 C 
ENDBRANCH  13  16
ENDBRANCH   1  13
TORSDOF 3
ENDMDL
