MODEL 1
REMARK VINA RESULT:     -12.0      0.000      0.000
REMARK  Name = 54766013
REMARK  5 active torsions:
REMARK  status: ('A' for Active; 'I' for Inactive)
REMARK    1  A    between atoms: C_3  and  C_11
REMARK    2  A    between atoms: C_4  and  C_18
REMARK    3  A    between atoms: C_5  and  C_24
REMARK    4  A    between atoms: C_24  and  N_25
REMARK    5  A    between atoms: N_25  and  C_28
REMARK                            x       y       z     vdW  Elec       q    Type
REMARK                         _______ _______ _______ _____ _____    ______ ____
ROOT
ATOM      1  N   UNL     1      31.893 -22.374 -16.884  0.00  0.00    -0.315 N 
ATOM      2  N   UNL     1      34.113 -22.372 -16.817  0.00  0.00    -0.317 N 
ATOM      3  C   UNL     1      33.607 -22.988 -15.700  0.00  0.00    +0.063 C 
ATOM      4  C   UNL     1      32.232 -23.001 -15.719  0.00  0.00    +0.085 C 
ATOM      5  C   UNL     1      33.054 -22.013 -17.510  0.00  0.00    +0.164 C 
ATOM      6  H   UNL     1      30.980 -22.211 -17.214  0.00  0.00    +0.148 HD
ATOM      7  H   UNL     1      35.059 -22.229 -17.048  0.00  0.00    +0.148 HD
ENDROOT
BRANCH   3  11
ATOM      8  N   UNL     1      35.924 -23.195 -12.781  0.00  0.00    -0.170 N 
ATOM      9  N   UNL     1      36.577 -22.515 -11.806  0.00  0.00    -0.150 NA
ATOM     10  N   UNL     1      37.061 -24.744 -11.664  0.00  0.00    -0.206 NA
ATOM     11  C   UNL     1      34.502 -23.536 -14.662  0.00  0.00    +0.031 C 
ATOM     12  C   UNL     1      35.067 -22.699 -13.766  0.00  0.00    +0.092 C 
ATOM     13  C   UNL     1      34.827 -24.961 -14.558  0.00  0.00    +0.006 C 
ATOM     14  C   UNL     1      36.238 -24.552 -12.671  0.00  0.00    +0.157 C 
ATOM     15  C   UNL     1      35.652 -25.441 -13.611  0.00  0.00    +0.036 C 
ATOM     16  C   UNL     1      37.235 -23.486 -11.175  0.00  0.00    +0.219 C 
ENDBRANCH   3  11
BRANCH   4  18
ATOM     17  N   UNL     1      29.977 -23.465 -15.240  0.00  0.00    -0.409 NA
ATOM     18  C   UNL     1      31.253 -23.519 -14.797  0.00  0.00    +0.127 C 
ATOM     19  C   UNL     1      31.625 -24.030 -13.564  0.00  0.00    +0.086 C 
ATOM     20  C   UNL     1      29.030 -23.945 -14.403  0.00  0.00    +0.109 C 
ATOM     21  C   UNL     1      30.622 -24.515 -12.731  0.00  0.00    -0.016 C 
ATOM     22  C   UNL     1      29.298 -24.476 -13.151  0.00  0.00    +0.023 C 
ATOM     23  C   UNL     1      27.619 -23.886 -14.886  0.00  0.00    +0.066 C 
ENDBRANCH   4  18
BRANCH   5  24
ATOM     24  C   UNL     1      33.042 -21.310 -18.805  0.00  0.00    +0.128 C 
BRANCH  24  25
ATOM     25  N   UNL     1      34.250 -20.523 -18.997  0.00  0.00    -0.328 N 
ATOM     26  H   UNL     1      34.956 -20.578 -18.314  0.00  0.00    +0.147 HD
BRANCH  25  28
ATOM     27  F   UNL     1      36.644 -19.177 -19.332  0.00  0.00    -0.203 F 
ATOM     28  C   UNL     1      34.456 -19.703 -20.088  0.00  0.00    +0.073 C 
ATOM     29  C   UNL     1      35.669 -19.032 -20.240  0.00  0.00    +0.153 C 
ATOM     30  C   UNL     1      33.446 -19.543 -21.039  0.00  0.00    +0.017 C 
ATOM     31  C   UNL     1      35.875 -18.203 -21.343  0.00  0.00    +0.031 C 
ATOM     32  C   UNL     1      33.653 -18.714 -22.142  0.00  0.00    +0.001 C 
ATOM     33  C   UNL     1      34.867 -18.044 -22.294  0.00  0.00    +0.002 C 
ENDBRANCH  25  28
ENDBRANCH  24  25
ENDBRANCH   5  24
TORSDOF 5
ENDMDL
MODEL 2
REMARK VINA RESULT:     -12.0      3.097      6.510
REMARK  Name = 54766013
REMARK  5 active torsions:
REMARK  status: ('A' for Active; 'I' for Inactive)
REMARK    1  A    between atoms: C_3  and  C_11
REMARK    2  A    between atoms: C_4  and  C_18
REMARK    3  A    between atoms: C_5  and  C_24
REMARK    4  A    between atoms: C_24  and  N_25
REMARK    5  A    between atoms: N_25  and  C_28
REMARK                            x       y       z     vdW  Elec       q    Type
REMARK                         _______ _______ _______ _____ _____    ______ ____
ROOT
ATOM      1  N   UNL     1      32.325 -22.591 -14.170  0.00  0.00    -0.315 N 
ATOM      2  N   UNL     1      33.084 -24.144 -12.777  0.00  0.00    -0.317 N 
ATOM      3  C   UNL     1      33.991 -23.929 -13.784  0.00  0.00    +0.063 C 
ATOM      4  C   UNL     1      33.542 -22.969 -14.660  0.00  0.00    +0.085 C 
ATOM      5  C   UNL     1      32.092 -23.322 -13.038  0.00  0.00    +0.164 C 
ATOM      6  H   UNL     1      31.724 -21.914 -14.559  0.00  0.00    +0.148 HD
ATOM      7  H   UNL     1      33.160 -24.774 -12.024  0.00  0.00    +0.148 HD
ENDROOT
BRANCH   3  11
ATOM      8  N   UNL     1      37.596 -24.808 -13.388  0.00  0.00    -0.170 N 
ATOM      9  N   UNL     1      38.814 -24.410 -12.942  0.00  0.00    -0.150 NA
ATOM     10  N   UNL     1      38.960 -26.498 -13.858  0.00  0.00    -0.206 NA
ATOM     11  C   UNL     1      35.261 -24.680 -13.838  0.00  0.00    +0.031 C 
ATOM     12  C   UNL     1      36.382 -24.118 -13.339  0.00  0.00    +0.092 C 
ATOM     13  C   UNL     1      35.373 -26.018 -14.424  0.00  0.00    +0.006 C 
ATOM     14  C   UNL     1      37.715 -26.085 -13.942  0.00  0.00    +0.157 C 
ATOM     15  C   UNL     1      36.541 -26.684 -14.472  0.00  0.00    +0.036 C 
ATOM     16  C   UNL     1      39.583 -25.454 -13.248  0.00  0.00    +0.219 C 
ENDBRANCH   3  11
BRANCH   4  18
ATOM     17  N   UNL     1      33.258 -22.293 -16.895  0.00  0.00    -0.409 NA
ATOM     18  C   UNL     1      34.114 -22.401 -15.855  0.00  0.00    +0.127 C 
ATOM     19  C   UNL     1      35.441 -22.003 -15.898  0.00  0.00    +0.086 C 
ATOM     20  C   UNL     1      33.758 -21.762 -18.032  0.00  0.00    +0.109 C 
ATOM     21  C   UNL     1      35.918 -21.460 -17.087  0.00  0.00    -0.016 C 
ATOM     22  C   UNL     1      35.068 -21.333 -18.178  0.00  0.00    +0.023 C 
ATOM     23  C   UNL     1      32.817 -21.642 -19.185  0.00  0.00    +0.066 C 
ENDBRANCH   4  18
BRANCH   5  24
ATOM     24  C   UNL     1      30.853 -23.154 -12.257  0.00  0.00    +0.128 C 
BRANCH  24  25
ATOM     25  N   UNL     1      29.797 -24.033 -12.734  0.00  0.00    -0.328 N 
ATOM     26  H   UNL     1      29.643 -24.879 -12.255  0.00  0.00    +0.147 HD
BRANCH  25  28
ATOM     27  F   UNL     1      28.695 -26.053 -14.271  0.00  0.00    -0.203 F 
ATOM     28  C   UNL     1      29.002 -23.741 -13.823  0.00  0.00    +0.073 C 
ATOM     29  C   UNL     1      28.455 -24.772 -14.587  0.00  0.00    +0.153 C 
ATOM     30  C   UNL     1      28.746 -22.411 -14.162  0.00  0.00    +0.017 C 
ATOM     31  C   UNL     1      27.652 -24.476 -15.687  0.00  0.00    +0.031 C 
ATOM     32  C   UNL     1      27.942 -22.115 -15.263  0.00  0.00    +0.001 C 
ATOM     33  C   UNL     1      27.395 -23.146 -16.026  0.00  0.00    +0.002 C 
ENDBRANCH  25  28
ENDBRANCH  24  25
ENDBRANCH   5  24
TORSDOF 5
ENDMDL
MODEL 3
REMARK VINA RESULT:     -11.9      1.376      5.054
REMARK  Name = 54766013
REMARK  5 active torsions:
REMARK  status: ('A' for Active; 'I' for Inactive)
REMARK    1  A    between atoms: C_3  and  C_11
REMARK    2  A    between atoms: C_4  and  C_18
REMARK    3  A    between atoms: C_5  and  C_24
REMARK    4  A    between atoms: C_24  and  N_25
REMARK    5  A    between atoms: N_25  and  C_28
REMARK                            x       y       z     vdW  Elec       q    Type
REMARK                         _______ _______ _______ _____ _____    ______ ____
ROOT
ATOM      1  N   UNL     1      35.913 -22.338 -15.990  0.00  0.00    -0.315 N 
ATOM      2  N   UNL     1      33.820 -22.103 -16.692  0.00  0.00    -0.317 N 
ATOM      3  C   UNL     1      33.848 -22.819 -15.522  0.00  0.00    +0.063 C 
ATOM      4  C   UNL     1      35.136 -22.978 -15.067  0.00  0.00    +0.085 C 
ATOM      5  C   UNL     1      35.080 -21.828 -16.947  0.00  0.00    +0.164 C 
ATOM      6  H   UNL     1      36.895 -22.257 -15.971  0.00  0.00    +0.148 HD
ATOM      7  H   UNL     1      33.030 -21.851 -17.224  0.00  0.00    +0.148 HD
ENDROOT
BRANCH   3  11
ATOM      8  N   UNL     1      30.232 -23.539 -14.944  0.00  0.00    -0.170 N 
ATOM      9  N   UNL     1      28.964 -23.403 -15.408  0.00  0.00    -0.150 NA
ATOM     10  N   UNL     1      28.955 -24.545 -13.429  0.00  0.00    -0.206 NA
ATOM     11  C   UNL     1      32.603 -23.316 -14.904  0.00  0.00    +0.031 C 
ATOM     12  C   UNL     1      31.423 -23.085 -15.516  0.00  0.00    +0.092 C 
ATOM     13  C   UNL     1      32.578 -24.047 -13.633  0.00  0.00    +0.006 C 
ATOM     14  C   UNL     1      30.196 -24.238 -13.735  0.00  0.00    +0.157 C 
ATOM     15  C   UNL     1      31.432 -24.484 -13.081  0.00  0.00    +0.036 C 
ATOM     16  C   UNL     1      28.251 -24.020 -14.467  0.00  0.00    +0.219 C 
ENDBRANCH   3  11
BRANCH   4  18
ATOM     17  N   UNL     1      35.741 -22.871 -12.797  0.00  0.00    -0.409 NA
ATOM     18  C   UNL     1      35.682 -23.638 -13.909  0.00  0.00    +0.127 C 
ATOM     19  C   UNL     1      36.101 -24.959 -13.963  0.00  0.00    +0.086 C 
ATOM     20  C   UNL     1      36.246 -23.458 -11.689  0.00  0.00    +0.109 C 
ATOM     21  C   UNL     1      36.613 -25.526 -12.802  0.00  0.00    -0.016 C 
ATOM     22  C   UNL     1      36.690 -24.769 -11.639  0.00  0.00    +0.023 C 
ATOM     23  C   UNL     1      36.315 -22.615 -10.459  0.00  0.00    +0.066 C 
ENDBRANCH   4  18
BRANCH   5  24
ATOM     24  C   UNL     1      35.605 -21.071 -18.098  0.00  0.00    +0.128 C 
BRANCH  24  25
ATOM     25  N   UNL     1      34.533 -20.599 -18.960  0.00  0.00    -0.328 N 
ATOM     26  H   UNL     1      33.620 -20.921 -18.787  0.00  0.00    +0.147 HD
BRANCH  25  28
ATOM     27  F   UNL     1      32.454 -19.906 -20.649  0.00  0.00    -0.203 F 
ATOM     28  C   UNL     1      34.733 -19.723 -20.008  0.00  0.00    +0.073 C 
ATOM     29  C   UNL     1      33.673 -19.386 -20.850  0.00  0.00    +0.153 C 
ATOM     30  C   UNL     1      35.998 -19.177 -20.227  0.00  0.00    +0.017 C 
ATOM     31  C   UNL     1      33.876 -18.501 -21.908  0.00  0.00    +0.031 C 
ATOM     32  C   UNL     1      36.201 -18.292 -21.286  0.00  0.00    +0.001 C 
ATOM     33  C   UNL     1      35.141 -17.954 -22.126  0.00  0.00    +0.002 C 
ENDBRANCH  25  28
ENDBRANCH  24  25
ENDBRANCH   5  24
TORSDOF 5
ENDMDL
MODEL 4
REMARK VINA RESULT:     -11.9      2.952      7.949
REMARK  Name = 54766013
REMARK  5 active torsions:
REMARK  status: ('A' for Active; 'I' for Inactive)
REMARK    1  A    between atoms: C_3  and  C_11
REMARK    2  A    between atoms: C_4  and  C_18
REMARK    3  A    between atoms: C_5  and  C_24
REMARK    4  A    between atoms: C_24  and  N_25
REMARK    5  A    between atoms: N_25  and  C_28
REMARK                            x       y       z     vdW  Elec       q    Type
REMARK                         _______ _______ _______ _____ _____    ______ ____
ROOT
ATOM      1  N   UNL     1      34.136 -23.140 -13.568  0.00  0.00    -0.315 N 
ATOM      2  N   UNL     1      32.347 -23.753 -12.404  0.00  0.00    -0.317 N 
ATOM      3  C   UNL     1      31.994 -23.474 -13.700  0.00  0.00    +0.063 C 
ATOM      4  C   UNL     1      33.088 -23.092 -14.442  0.00  0.00    +0.085 C 
ATOM      5  C   UNL     1      33.644 -23.542 -12.357  0.00  0.00    +0.164 C 
ATOM      6  H   UNL     1      35.076 -22.925 -13.772  0.00  0.00    +0.148 HD
ATOM      7  H   UNL     1      31.759 -24.046 -11.671  0.00  0.00    +0.148 HD
ENDROOT
BRANCH   3  11
ATOM      8  N   UNL     1      28.721 -22.698 -15.317  0.00  0.00    -0.170 N 
ATOM      9  N   UNL     1      28.008 -21.812 -16.057  0.00  0.00    -0.150 NA
ATOM     10  N   UNL     1      26.713 -23.623 -15.540  0.00  0.00    -0.206 NA
ATOM     11  C   UNL     1      30.594 -23.596 -14.151  0.00  0.00    +0.031 C 
ATOM     12  C   UNL     1      30.048 -22.606 -14.887  0.00  0.00    +0.092 C 
ATOM     13  C   UNL     1      29.748 -24.749 -13.826  0.00  0.00    +0.006 C 
ATOM     14  C   UNL     1      27.907 -23.792 -15.015  0.00  0.00    +0.157 C 
ATOM     15  C   UNL     1      28.471 -24.839 -14.239  0.00  0.00    +0.036 C 
ATOM     16  C   UNL     1      26.825 -22.416 -16.157  0.00  0.00    +0.219 C 
ENDBRANCH   3  11
BRANCH   4  18
ATOM     17  N   UNL     1      34.433 -22.151 -16.126  0.00  0.00    -0.409 NA
ATOM     18  C   UNL     1      33.238 -22.704 -15.822  0.00  0.00    +0.127 C 
ATOM     19  C   UNL     1      32.219 -22.901 -16.740  0.00  0.00    +0.086 C 
ATOM     20  C   UNL     1      34.612 -21.778 -17.412  0.00  0.00    +0.109 C 
ATOM     21  C   UNL     1      32.442 -22.504 -18.054  0.00  0.00    -0.016 C 
ATOM     22  C   UNL     1      33.658 -21.931 -18.405  0.00  0.00    +0.023 C 
ATOM     23  C   UNL     1      35.931 -21.165 -17.753  0.00  0.00    +0.066 C 
ENDBRANCH   4  18
BRANCH   5  24
ATOM     24  C   UNL     1      34.523 -23.698 -11.184  0.00  0.00    +0.128 C 
BRANCH  24  25
ATOM     25  N   UNL     1      35.249 -24.957 -11.224  0.00  0.00    -0.328 N 
ATOM     26  H   UNL     1      34.991 -25.665 -10.592  0.00  0.00    +0.147 HD
BRANCH  25  28
ATOM     27  F   UNL     1      37.705 -23.716 -10.929  0.00  0.00    -0.203 F 
ATOM     28  C   UNL     1      36.282 -25.210 -12.105  0.00  0.00    +0.073 C 
ATOM     29  C   UNL     1      37.513 -24.575 -11.940  0.00  0.00    +0.153 C 
ATOM     30  C   UNL     1      36.093 -26.101 -13.162  0.00  0.00    +0.017 C 
ATOM     31  C   UNL     1      38.555 -24.832 -12.830  0.00  0.00    +0.031 C 
ATOM     32  C   UNL     1      37.136 -26.358 -14.052  0.00  0.00    +0.001 C 
ATOM     33  C   UNL     1      38.367 -25.723 -13.887  0.00  0.00    +0.002 C 
ENDBRANCH  25  28
ENDBRANCH  24  25
ENDBRANCH   5  24
TORSDOF 5
ENDMDL
MODEL 5
REMARK VINA RESULT:     -11.5      1.384      1.664
REMARK  Name = 54766013
REMARK  5 active torsions:
REMARK  status: ('A' for Active; 'I' for Inactive)
REMARK    1  A    between atoms: C_3  and  C_11
REMARK    2  A    between atoms: C_4  and  C_18
REMARK    3  A    between atoms: C_5  and  C_24
REMARK    4  A    between atoms: C_24  and  N_25
REMARK    5  A    between atoms: N_25  and  C_28
REMARK                            x       y       z     vdW  Elec       q    Type
REMARK                         _______ _______ _______ _____ _____    ______ ____
ROOT
ATOM      1  N   UNL     1      31.483 -22.355 -17.113  0.00  0.00    -0.315 N 
ATOM      2  N   UNL     1      33.669 -22.448 -16.733  0.00  0.00    -0.317 N 
ATOM      3  C   UNL     1      32.986 -23.059 -15.712  0.00  0.00    +0.063 C 
ATOM      4  C   UNL     1      31.628 -23.015 -15.926  0.00  0.00    +0.085 C 
ATOM      5  C   UNL     1      32.735 -22.034 -17.561  0.00  0.00    +0.164 C 
ATOM      6  H   UNL     1      30.633 -22.149 -17.565  0.00  0.00    +0.148 HD
ATOM      7  H   UNL     1      34.644 -22.341 -16.825  0.00  0.00    +0.148 HD
ENDROOT
BRANCH   3  11
ATOM      8  N   UNL     1      34.121 -23.765 -12.228  0.00  0.00    -0.170 N 
ATOM      9  N   UNL     1      33.999 -23.450 -10.913  0.00  0.00    -0.150 NA
ATOM     10  N   UNL     1      35.547 -25.110 -11.181  0.00  0.00    -0.206 NA
ATOM     11  C   UNL     1      33.703 -23.660 -14.570  0.00  0.00    +0.031 C 
ATOM     12  C   UNL     1      33.448 -23.216 -13.322  0.00  0.00    +0.092 C 
ATOM     13  C   UNL     1      34.701 -24.723 -14.723  0.00  0.00    +0.006 C 
ATOM     14  C   UNL     1      35.073 -24.779 -12.361  0.00  0.00    +0.157 C 
ATOM     15  C   UNL     1      35.350 -25.253 -13.671  0.00  0.00    +0.036 C 
ATOM     16  C   UNL     1      34.870 -24.281 -10.342  0.00  0.00    +0.219 C 
ENDBRANCH   3  11
BRANCH   4  18
ATOM     17  N   UNL     1      29.334 -22.892 -15.427  0.00  0.00    -0.409 NA
ATOM     18  C   UNL     1      30.508 -23.506 -15.163  0.00  0.00    +0.127 C 
ATOM     19  C   UNL     1      30.659 -24.531 -14.242  0.00  0.00    +0.086 C 
ATOM     20  C   UNL     1      28.259 -23.328 -14.732  0.00  0.00    +0.109 C 
ATOM     21  C   UNL     1      29.530 -24.951 -13.547  0.00  0.00    -0.016 C 
ATOM     22  C   UNL     1      28.303 -24.345 -13.791  0.00  0.00    +0.023 C 
ATOM     23  C   UNL     1      26.959 -22.653 -15.019  0.00  0.00    +0.066 C 
ENDBRANCH   4  18
BRANCH   5  24
ATOM     24  C   UNL     1      32.935 -21.311 -18.829  0.00  0.00    +0.128 C 
BRANCH  24  25
ATOM     25  N   UNL     1      34.252 -20.699 -18.894  0.00  0.00    -0.328 N 
ATOM     26  H   UNL     1      34.908 -20.929 -18.197  0.00  0.00    +0.147 HD
BRANCH  25  28
ATOM     27  F   UNL     1      32.429 -19.807 -20.776  0.00  0.00    -0.203 F 
ATOM     28  C   UNL     1      34.628 -19.810 -19.881  0.00  0.00    +0.073 C 
ATOM     29  C   UNL     1      33.696 -19.372 -20.821  0.00  0.00    +0.153 C 
ATOM     30  C   UNL     1      35.945 -19.352 -19.938  0.00  0.00    +0.017 C 
ATOM     31  C   UNL     1      34.079 -18.475 -21.818  0.00  0.00    +0.031 C 
ATOM     32  C   UNL     1      36.328 -18.454 -20.936  0.00  0.00    +0.001 C 
ATOM     33  C   UNL     1      35.395 -18.016 -21.875  0.00  0.00    +0.002 C 
ENDBRANCH  25  28
ENDBRANCH  24  25
ENDBRANCH   5  24
TORSDOF 5
ENDMDL
MODEL 6
REMARK VINA RESULT:     -11.4      2.926      7.527
REMARK  Name = 54766013
REMARK  5 active torsions:
REMARK  status: ('A' for Active; 'I' for Inactive)
REMARK    1  A    between atoms: C_3  and  C_11
REMARK    2  A    between atoms: C_4  and  C_18
REMARK    3  A    between atoms: C_5  and  C_24
REMARK    4  A    between atoms: C_24  and  N_25
REMARK    5  A    between atoms: N_25  and  C_28
REMARK                            x       y       z     vdW  Elec       q    Type
REMARK                         _______ _______ _______ _____ _____    ______ ____
ROOT
ATOM      1  N   UNL     1      33.138 -24.548 -12.438  0.00  0.00    -0.315 N 
ATOM      2  N   UNL     1      32.246 -23.658 -14.267  0.00  0.00    -0.317 N 
ATOM      3  C   UNL     1      33.598 -23.430 -14.243  0.00  0.00    +0.063 C 
ATOM      4  C   UNL     1      34.174 -23.974 -13.118  0.00  0.00    +0.085 C 
ATOM      5  C   UNL     1      32.000 -24.334 -13.166  0.00  0.00    +0.164 C 
ATOM      6  H   UNL     1      33.198 -25.030 -11.582  0.00  0.00    +0.148 HD
ATOM      7  H   UNL     1      31.601 -23.377 -14.956  0.00  0.00    +0.148 HD
ENDROOT
BRANCH   3  11
ATOM      8  N   UNL     1      34.228 -21.804 -17.542  0.00  0.00    -0.170 N 
ATOM      9  N   UNL     1      33.736 -21.518 -18.774  0.00  0.00    -0.150 NA
ATOM     10  N   UNL     1      35.852 -20.681 -18.563  0.00  0.00    -0.206 NA
ATOM     11  C   UNL     1      34.264 -22.687 -15.330  0.00  0.00    +0.031 C 
ATOM     12  C   UNL     1      33.613 -22.497 -16.497  0.00  0.00    +0.092 C 
ATOM     13  C   UNL     1      35.622 -22.147 -15.214  0.00  0.00    +0.006 C 
ATOM     14  C   UNL     1      35.520 -21.283 -17.442  0.00  0.00    +0.157 C 
ATOM     15  C   UNL     1      36.216 -21.479 -16.219  0.00  0.00    +0.036 C 
ATOM     16  C   UNL     1      34.744 -20.851 -19.333  0.00  0.00    +0.219 C 
ENDBRANCH   3  11
BRANCH   4  18
ATOM     17  N   UNL     1      36.372 -24.770 -13.376  0.00  0.00    -0.409 NA
ATOM     18  C   UNL     1      35.534 -24.005 -12.641  0.00  0.00    +0.127 C 
ATOM     19  C   UNL     1      35.919 -23.291 -11.517  0.00  0.00    +0.086 C 
ATOM     20  C   UNL     1      37.657 -24.821 -12.961  0.00  0.00    +0.109 C 
ATOM     21  C   UNL     1      37.250 -23.370 -11.123  0.00  0.00    -0.016 C 
ATOM     22  C   UNL     1      38.142 -24.146 -11.852  0.00  0.00    +0.023 C 
ATOM     23  C   UNL     1      38.587 -25.667 -13.768  0.00  0.00    +0.066 C 
ENDBRANCH   4  18
BRANCH   5  24
ATOM     24  C   UNL     1      30.690 -24.831 -12.707  0.00  0.00    +0.128 C 
BRANCH  24  25
ATOM     25  N   UNL     1      29.670 -23.798 -12.783  0.00  0.00    -0.328 N 
ATOM     26  H   UNL     1      29.516 -23.235 -11.991  0.00  0.00    +0.147 HD
BRANCH  25  28
ATOM     27  F   UNL     1      28.136 -25.814 -13.899  0.00  0.00    -0.203 F 
ATOM     28  C   UNL     1      28.906 -23.567 -13.909  0.00  0.00    +0.073 C 
ATOM     29  C   UNL     1      28.139 -24.595 -14.458  0.00  0.00    +0.153 C 
ATOM     30  C   UNL     1      28.902 -22.303 -14.501  0.00  0.00    +0.017 C 
ATOM     31  C   UNL     1      27.368 -24.360 -15.596  0.00  0.00    +0.031 C 
ATOM     32  C   UNL     1      28.131 -22.068 -15.639  0.00  0.00    +0.001 C 
ATOM     33  C   UNL     1      27.364 -23.096 -16.187  0.00  0.00    +0.002 C 
ENDBRANCH  25  28
ENDBRANCH  24  25
ENDBRANCH   5  24
TORSDOF 5
ENDMDL
MODEL 7
REMARK VINA RESULT:     -11.2      1.466      4.980
REMARK  Name = 54766013
REMARK  5 active torsions:
REMARK  status: ('A' for Active; 'I' for Inactive)
REMARK    1  A    between atoms: C_3  and  C_11
REMARK    2  A    between atoms: C_4  and  C_18
REMARK    3  A    between atoms: C_5  and  C_24
REMARK    4  A    between atoms: C_24  and  N_25
REMARK    5  A    between atoms: N_25  and  C_28
REMARK                            x       y       z     vdW  Elec       q    Type
REMARK                         _______ _______ _______ _____ _____    ______ ____
ROOT
ATOM      1  N   UNL     1      35.731 -22.184 -16.676  0.00  0.00    -0.315 N 
ATOM      2  N   UNL     1      33.698 -21.870 -17.512  0.00  0.00    -0.317 N 
ATOM      3  C   UNL     1      33.614 -22.446 -16.270  0.00  0.00    +0.063 C 
ATOM      4  C   UNL     1      34.862 -22.650 -15.731  0.00  0.00    +0.085 C 
ATOM      5  C   UNL     1      34.988 -21.726 -17.727  0.00  0.00    +0.164 C 
ATOM      6  H   UNL     1      36.714 -22.179 -16.612  0.00  0.00    +0.148 HD
ATOM      7  H   UNL     1      32.958 -21.620 -18.111  0.00  0.00    +0.148 HD
ENDROOT
BRANCH   3  11
ATOM      8  N   UNL     1      29.927 -22.658 -15.734  0.00  0.00    -0.170 N 
ATOM      9  N   UNL     1      28.695 -22.342 -16.208  0.00  0.00    -0.150 NA
ATOM     10  N   UNL     1      28.506 -23.490 -14.241  0.00  0.00    -0.206 NA
ATOM     11  C   UNL     1      32.305 -22.769 -15.668  0.00  0.00    +0.031 C 
ATOM     12  C   UNL     1      31.176 -22.370 -16.290  0.00  0.00    +0.092 C 
ATOM     13  C   UNL     1      32.164 -23.501 -14.406  0.00  0.00    +0.006 C 
ATOM     14  C   UNL     1      29.780 -23.356 -14.532  0.00  0.00    +0.157 C 
ATOM     15  C   UNL     1      30.963 -23.779 -13.869  0.00  0.00    +0.036 C 
ATOM     16  C   UNL     1      27.893 -22.862 -15.281  0.00  0.00    +0.219 C 
ENDBRANCH   3  11
BRANCH   4  18
ATOM     17  N   UNL     1      35.578 -24.534 -14.519  0.00  0.00    -0.409 NA
ATOM     18  C   UNL     1      35.299 -23.213 -14.477  0.00  0.00    +0.127 C 
ATOM     19  C   UNL     1      35.416 -22.431 -13.339  0.00  0.00    +0.086 C 
ATOM     20  C   UNL     1      35.993 -25.097 -13.362  0.00  0.00    +0.109 C 
ATOM     21  C   UNL     1      35.847 -23.046 -12.169  0.00  0.00    -0.016 C 
ATOM     22  C   UNL     1      36.143 -24.404 -12.172  0.00  0.00    +0.023 C 
ATOM     23  C   UNL     1      36.301 -26.558 -13.402  0.00  0.00    +0.066 C 
ENDBRANCH   4  18
BRANCH   5  24
ATOM     24  C   UNL     1      35.625 -21.150 -18.926  0.00  0.00    +0.128 C 
BRANCH  24  25
ATOM     25  N   UNL     1      35.224 -19.768 -19.132  0.00  0.00    -0.328 N 
ATOM     26  H   UNL     1      35.264 -19.151 -18.367  0.00  0.00    +0.147 HD
BRANCH  25  28
ATOM     27  F   UNL     1      36.851 -18.146 -20.675  0.00  0.00    -0.203 F 
ATOM     28  C   UNL     1      34.790 -19.278 -20.347  0.00  0.00    +0.073 C 
ATOM     29  C   UNL     1      35.623 -18.461 -21.111  0.00  0.00    +0.153 C 
ATOM     30  C   UNL     1      33.513 -19.599 -20.811  0.00  0.00    +0.017 C 
ATOM     31  C   UNL     1      35.183 -17.966 -22.338  0.00  0.00    +0.031 C 
ATOM     32  C   UNL     1      33.072 -19.103 -22.038  0.00  0.00    +0.001 C 
ATOM     33  C   UNL     1      33.907 -18.287 -22.802  0.00  0.00    +0.002 C 
ENDBRANCH  25  28
ENDBRANCH  24  25
ENDBRANCH   5  24
TORSDOF 5
ENDMDL
MODEL 8
REMARK VINA RESULT:     -11.0      3.107      6.586
REMARK  Name = 54766013
REMARK  5 active torsions:
REMARK  status: ('A' for Active; 'I' for Inactive)
REMARK    1  A    between atoms: C_3  and  C_11
REMARK    2  A    between atoms: C_4  and  C_18
REMARK    3  A    between atoms: C_5  and  C_24
REMARK    4  A    between atoms: C_24  and  N_25
REMARK    5  A    between atoms: N_25  and  C_28
REMARK                            x       y       z     vdW  Elec       q    Type
REMARK                         _______ _______ _______ _____ _____    ______ ____
ROOT
ATOM      1  N   UNL     1      31.791 -23.681 -14.555  0.00  0.00    -0.315 N 
ATOM      2  N   UNL     1      32.768 -24.705 -12.844  0.00  0.00    -0.317 N 
ATOM      3  C   UNL     1      33.716 -24.140 -13.660  0.00  0.00    +0.063 C 
ATOM      4  C   UNL     1      33.134 -23.499 -14.728  0.00  0.00    +0.085 C 
ATOM      5  C   UNL     1      31.619 -24.411 -13.411  0.00  0.00    +0.164 C 
ATOM      6  H   UNL     1      31.077 -23.348 -15.146  0.00  0.00    +0.148 HD
ATOM      7  H   UNL     1      32.915 -25.218 -12.016  0.00  0.00    +0.148 HD
ENDROOT
BRANCH   3  11
ATOM      8  N   UNL     1      37.257 -25.319 -13.706  0.00  0.00    -0.170 N 
ATOM      9  N   UNL     1      38.153 -26.185 -14.243  0.00  0.00    -0.150 NA
ATOM     10  N   UNL     1      39.180 -24.855 -12.695  0.00  0.00    -0.206 NA
ATOM     11  C   UNL     1      35.154 -24.258 -13.350  0.00  0.00    +0.031 C 
ATOM     12  C   UNL     1      35.895 -25.186 -13.991  0.00  0.00    +0.092 C 
ATOM     13  C   UNL     1      35.829 -23.416 -12.357  0.00  0.00    +0.006 C 
ATOM     14  C   UNL     1      37.911 -24.521 -12.764  0.00  0.00    +0.157 C 
ATOM     15  C   UNL     1      37.139 -23.543 -12.082  0.00  0.00    +0.036 C 
ATOM     16  C   UNL     1      39.276 -25.862 -13.605  0.00  0.00    +0.219 C 
ENDBRANCH   3  11
BRANCH   4  18
ATOM     17  N   UNL     1      34.879 -22.183 -15.595  0.00  0.00    -0.409 NA
ATOM     18  C   UNL     1      33.687 -22.769 -15.841  0.00  0.00    +0.127 C 
ATOM     19  C   UNL     1      33.023 -22.698 -17.056  0.00  0.00    +0.086 C 
ATOM     20  C   UNL     1      35.431 -21.491 -16.617  0.00  0.00    +0.109 C 
ATOM     21  C   UNL     1      33.623 -21.977 -18.083  0.00  0.00    -0.016 C 
ATOM     22  C   UNL     1      34.849 -21.360 -17.868  0.00  0.00    +0.023 C 
ATOM     23  C   UNL     1      36.747 -20.840 -16.349  0.00  0.00    +0.066 C 
ENDBRANCH   4  18
BRANCH   5  24
ATOM     24  C   UNL     1      30.276 -24.784 -12.933  0.00  0.00    +0.128 C 
BRANCH  24  25
ATOM     25  N   UNL     1      29.334 -23.685 -13.075  0.00  0.00    -0.328 N 
ATOM     26  H   UNL     1      29.261 -23.035 -12.340  0.00  0.00    +0.147 HD
BRANCH  25  28
ATOM     27  F   UNL     1      28.312 -21.193 -13.710  0.00  0.00    -0.203 F 
ATOM     28  C   UNL     1      28.537 -23.508 -14.188  0.00  0.00    +0.073 C 
ATOM     29  C   UNL     1      28.030 -22.245 -14.493  0.00  0.00    +0.153 C 
ATOM     30  C   UNL     1      28.236 -24.596 -15.009  0.00  0.00    +0.017 C 
ATOM     31  C   UNL     1      27.225 -22.067 -15.617  0.00  0.00    +0.031 C 
ATOM     32  C   UNL     1      27.430 -24.419 -16.134  0.00  0.00    +0.001 C 
ATOM     33  C   UNL     1      26.924 -23.155 -16.438  0.00  0.00    +0.002 C 
ENDBRANCH  25  28
ENDBRANCH  24  25
ENDBRANCH   5  24
TORSDOF 5
ENDMDL
MODEL 9
REMARK VINA RESULT:     -10.9      2.678      6.839
REMARK  Name = 54766013
REMARK  5 active torsions:
REMARK  status: ('A' for Active; 'I' for Inactive)
REMARK    1  A    between atoms: C_3  and  C_11
REMARK    2  A    between atoms: C_4  and  C_18
REMARK    3  A    between atoms: C_5  and  C_24
REMARK    4  A    between atoms: C_24  and  N_25
REMARK    5  A    between atoms: N_25  and  C_28
REMARK                            x       y       z     vdW  Elec       q    Type
REMARK                         _______ _______ _______ _____ _____    ______ ____
ROOT
ATOM      1  N   UNL     1      32.544 -24.019 -12.006  0.00  0.00    -0.315 N 
ATOM      2  N   UNL     1      34.313 -23.215 -13.081  0.00  0.00    -0.317 N 
ATOM      3  C   UNL     1      33.225 -23.246 -13.917  0.00  0.00    +0.063 C 
ATOM      4  C   UNL     1      32.116 -23.740 -13.273  0.00  0.00    +0.085 C 
ATOM      5  C   UNL     1      33.869 -23.688 -11.937  0.00  0.00    +0.164 C 
ATOM      6  H   UNL     1      31.998 -24.391 -11.275  0.00  0.00    +0.148 HD
ATOM      7  H   UNL     1      35.224 -22.908 -13.291  0.00  0.00    +0.148 HD
ENDROOT
BRANCH   3  11
ATOM      8  N   UNL     1      34.612 -21.823 -17.077  0.00  0.00    -0.170 N 
ATOM      9  N   UNL     1      35.693 -21.284 -17.695  0.00  0.00    -0.150 NA
ATOM     10  N   UNL     1      33.933 -21.392 -19.148  0.00  0.00    -0.206 NA
ATOM     11  C   UNL     1      33.328 -22.785 -15.316  0.00  0.00    +0.031 C 
ATOM     12  C   UNL     1      34.495 -22.273 -15.759  0.00  0.00    +0.092 C 
ATOM     13  C   UNL     1      32.209 -22.843 -16.261  0.00  0.00    +0.006 C 
ATOM     14  C   UNL     1      33.553 -21.876 -17.986  0.00  0.00    +0.157 C 
ATOM     15  C   UNL     1      32.319 -22.411 -17.530  0.00  0.00    +0.036 C 
ATOM     16  C   UNL     1      35.229 -21.049 -18.921  0.00  0.00    +0.219 C 
ENDBRANCH   3  11
BRANCH   4  18
ATOM     17  N   UNL     1      30.050 -22.842 -13.948  0.00  0.00    -0.409 NA
ATOM     18  C   UNL     1      30.760 -23.966 -13.707  0.00  0.00    +0.127 C 
ATOM     19  C   UNL     1      30.258 -25.249 -13.860  0.00  0.00    +0.086 C 
ATOM     20  C   UNL     1      28.774 -23.015 -14.360  0.00  0.00    +0.109 C 
ATOM     21  C   UNL     1      28.941 -25.385 -14.287  0.00  0.00    -0.016 C 
ATOM     22  C   UNL     1      28.179 -24.252 -14.544  0.00  0.00    +0.023 C 
ATOM     23  C   UNL     1      27.984 -21.776 -14.625  0.00  0.00    +0.066 C 
ENDBRANCH   4  18
BRANCH   5  24
ATOM     24  C   UNL     1      34.641 -23.867 -10.695  0.00  0.00    +0.128 C 
BRANCH  24  25
ATOM     25  N   UNL     1      35.490 -25.045 -10.758  0.00  0.00    -0.328 N 
ATOM     26  H   UNL     1      35.431 -25.703 -10.029  0.00  0.00    +0.147 HD
BRANCH  25  28
ATOM     27  F   UNL     1      37.878 -23.658 -10.939  0.00  0.00    -0.203 F 
ATOM     28  C   UNL     1      36.376 -25.288 -11.789  0.00  0.00    +0.073 C 
ATOM     29  C   UNL     1      37.574 -24.579 -11.864  0.00  0.00    +0.153 C 
ATOM     30  C   UNL     1      36.069 -26.244 -12.759  0.00  0.00    +0.017 C 
ATOM     31  C   UNL     1      38.467 -24.825 -12.906  0.00  0.00    +0.031 C 
ATOM     32  C   UNL     1      36.963 -26.490 -13.802  0.00  0.00    +0.001 C 
ATOM     33  C   UNL     1      38.162 -25.781 -13.876  0.00  0.00    +0.002 C 
ENDBRANCH  25  28
ENDBRANCH  24  25
ENDBRANCH   5  24
TORSDOF 5
ENDMDL
