MODEL 1
REMARK VINA RESULT:     -12.4      0.000      0.000
REMARK  Name = 24808489
REMARK  4 active torsions:
REMARK  status: ('A' for Active; 'I' for Inactive)
REMARK    1  A    between atoms: N_1  and  C_10
REMARK    2  A    between atoms: N_1  and  C_21
REMARK    3  A    between atoms: C_18  and  C_24
REMARK    4  A    between atoms: C_24  and  N_25
REMARK                            x       y       z     vdW  Elec       q    Type
REMARK                         _______ _______ _______ _____ _____    ______ ____
ROOT
ATOM      1  N   UNL     1      33.851 -22.025 -17.911  0.00  0.00    -0.311 N 
ATOM      2  H   UNL     1      34.604 -22.626 -17.711  0.00  0.00    +0.152 HD
ENDROOT
BRANCH   1  10
ATOM      3 BR   UNL     1      27.214 -22.649 -16.035  0.00  0.00    -0.049 Br
ATOM      4  O   UNL     1      34.995 -22.803 -15.782  0.00  0.00    -0.270 OA
ATOM      5  O   UNL     1      32.607 -24.111 -12.088  0.00  0.00    -0.270 OA
ATOM      6  N   UNL     1      33.764 -23.449 -13.959  0.00  0.00    -0.248 N 
ATOM      7  C   UNL     1      32.602 -22.718 -15.959  0.00  0.00    +0.068 C 
ATOM      8  C   UNL     1      31.316 -22.957 -15.269  0.00  0.00    +0.010 C 
ATOM      9  C   UNL     1      31.324 -23.433 -13.947  0.00  0.00    +0.054 C 
ATOM     10  C   UNL     1      32.715 -22.265 -17.220  0.00  0.00    +0.066 C 
ATOM     11  C   UNL     1      33.898 -22.982 -15.258  0.00  0.00    +0.253 C 
ATOM     12  C   UNL     1      30.067 -22.729 -15.873  0.00  0.00    +0.007 C 
ATOM     13  C   UNL     1      32.599 -23.697 -13.243  0.00  0.00    +0.252 C 
ATOM     14  C   UNL     1      30.124 -23.672 -13.258  0.00  0.00    +0.005 C 
ATOM     15  C   UNL     1      28.872 -22.968 -15.186  0.00  0.00    +0.035 C 
ATOM     16  C   UNL     1      28.901 -23.439 -13.879  0.00  0.00    +0.007 C 
ATOM     17  H   UNL     1      34.606 -23.630 -13.481  0.00  0.00    +0.158 HD
ENDBRANCH   1  10
BRANCH   1  21
ATOM     18  C   UNL     1      34.601 -19.064 -20.790  0.00  0.00    -0.043 C 
ATOM     19  C   UNL     1      33.297 -19.510 -20.571  0.00  0.00    -0.005 C 
ATOM     20  C   UNL     1      35.656 -19.602 -20.053  0.00  0.00    -0.005 C 
ATOM     21  C   UNL     1      34.103 -21.032 -18.877  0.00  0.00    +0.048 C 
ATOM     22  C   UNL     1      33.049 -20.494 -19.615  0.00  0.00    +0.014 C 
ATOM     23  C   UNL     1      35.407 -20.586 -19.097  0.00  0.00    +0.014 C 
BRANCH  18  24
ATOM     24  C   UNL     1      34.867 -18.012 -21.814  0.00  0.00    -0.050 C 
BRANCH  24  25
ATOM     25  N   UNL     1      34.007 -16.850 -21.651  0.00  0.00    +0.390 N 
ATOM     26  C   UNL     1      34.220 -16.171 -20.373  0.00  0.00    -0.077 C 
ATOM     27  C   UNL     1      34.250 -15.828 -22.669  0.00  0.00    -0.077 C 
ATOM     28  C   UNL     1      33.541 -14.826 -20.583  0.00  0.00    -0.025 C 
ATOM     29  C   UNL     1      33.558 -14.602 -22.092  0.00  0.00    -0.025 C 
ATOM     30  H   UNL     1      33.062 -17.230 -21.720  0.00  0.00    -0.079 HD
ENDBRANCH  24  25
ENDBRANCH  18  24
ENDBRANCH   1  21
TORSDOF 4
ENDMDL
MODEL 2
REMARK VINA RESULT:     -12.4      0.665      1.359
REMARK  Name = 24808489
REMARK  4 active torsions:
REMARK  status: ('A' for Active; 'I' for Inactive)
REMARK    1  A    between atoms: N_1  and  C_10
REMARK    2  A    between atoms: N_1  and  C_21
REMARK    3  A    between atoms: C_18  and  C_24
REMARK    4  A    between atoms: C_24  and  N_25
REMARK                            x       y       z     vdW  Elec       q    Type
REMARK                         _______ _______ _______ _____ _____    ______ ____
ROOT
ATOM      1  N   UNL     1      33.589 -22.255 -18.126  0.00  0.00    -0.311 N 
ATOM      2  H   UNL     1      34.202 -23.025 -18.121  0.00  0.00    +0.152 HD
ENDROOT
BRANCH   1  10
ATOM      3 BR   UNL     1      27.013 -22.461 -15.963  0.00  0.00    -0.049 Br
ATOM      4  O   UNL     1      34.787 -22.911 -15.986  0.00  0.00    -0.270 OA
ATOM      5  O   UNL     1      32.501 -23.829 -12.113  0.00  0.00    -0.270 OA
ATOM      6  N   UNL     1      33.606 -23.362 -14.072  0.00  0.00    -0.248 N 
ATOM      7  C   UNL     1      32.394 -22.743 -16.080  0.00  0.00    +0.068 C 
ATOM      8  C   UNL     1      31.128 -22.875 -15.326  0.00  0.00    +0.010 C 
ATOM      9  C   UNL     1      31.171 -23.245 -13.972  0.00  0.00    +0.054 C 
ATOM     10  C   UNL     1      32.474 -22.394 -17.377  0.00  0.00    +0.066 C 
ATOM     11  C   UNL     1      33.706 -23.004 -15.409  0.00  0.00    +0.253 C 
ATOM     12  C   UNL     1      29.865 -22.644 -15.900  0.00  0.00    +0.007 C 
ATOM     13  C   UNL     1      32.462 -23.505 -13.296  0.00  0.00    +0.252 C 
ATOM     14  C   UNL     1      29.991 -23.381 -13.222  0.00  0.00    +0.005 C 
ATOM     15  C   UNL     1      28.691 -22.780 -15.153  0.00  0.00    +0.035 C 
ATOM     16  C   UNL     1      28.754 -23.148 -13.815  0.00  0.00    +0.007 C 
ATOM     17  H   UNL     1      34.459 -23.539 -13.613  0.00  0.00    +0.158 HD
ENDBRANCH   1  10
BRANCH   1  21
ATOM     18  C   UNL     1      34.797 -18.988 -20.469  0.00  0.00    -0.043 C 
ATOM     19  C   UNL     1      35.747 -19.739 -19.776  0.00  0.00    -0.005 C 
ATOM     20  C   UNL     1      33.445 -19.322 -20.382  0.00  0.00    -0.005 C 
ATOM     21  C   UNL     1      33.994 -21.159 -18.911  0.00  0.00    +0.048 C 
ATOM     22  C   UNL     1      35.345 -20.824 -18.998  0.00  0.00    +0.014 C 
ATOM     23  C   UNL     1      33.044 -20.407 -19.604  0.00  0.00    +0.014 C 
BRANCH  18  24
ATOM     24  C   UNL     1      35.226 -17.827 -21.300  0.00  0.00    -0.050 C 
BRANCH  24  25
ATOM     25  N   UNL     1      34.124 -17.243 -22.050  0.00  0.00    +0.390 N 
ATOM     26  C   UNL     1      34.244 -15.791 -22.180  0.00  0.00    -0.077 C 
ATOM     27  C   UNL     1      34.055 -17.744 -23.423  0.00  0.00    -0.077 C 
ATOM     28  C   UNL     1      33.252 -15.464 -23.286  0.00  0.00    -0.025 C 
ATOM     29  C   UNL     1      33.125 -16.748 -24.101  0.00  0.00    -0.025 C 
ATOM     30  H   UNL     1      33.296 -17.504 -21.514  0.00  0.00    -0.079 HD
ENDBRANCH  24  25
ENDBRANCH  18  24
ENDBRANCH   1  21
TORSDOF 4
ENDMDL
MODEL 3
REMARK VINA RESULT:     -11.9      2.634      3.598
REMARK  Name = 24808489
REMARK  4 active torsions:
REMARK  status: ('A' for Active; 'I' for Inactive)
REMARK    1  A    between atoms: N_1  and  C_10
REMARK    2  A    between atoms: N_1  and  C_21
REMARK    3  A    between atoms: C_18  and  C_24
REMARK    4  A    between atoms: C_24  and  N_25
REMARK                            x       y       z     vdW  Elec       q    Type
REMARK                         _______ _______ _______ _____ _____    ______ ____
ROOT
ATOM      1  N   UNL     1      32.843 -22.301 -17.751  0.00  0.00    -0.311 N 
ATOM      2  H   UNL     1      31.995 -22.714 -18.030  0.00  0.00    +0.152 HD
ENDROOT
BRANCH   1  10
ATOM      3 BR   UNL     1      37.046 -24.481 -12.696  0.00  0.00    -0.049 Br
ATOM      4  O   UNL     1      30.629 -22.268 -16.512  0.00  0.00    -0.270 OA
ATOM      5  O   UNL     1      30.304 -23.481 -12.097  0.00  0.00    -0.270 OA
ATOM      6  N   UNL     1      30.510 -22.882 -14.305  0.00  0.00    -0.248 N 
ATOM      7  C   UNL     1      32.662 -22.936 -15.424  0.00  0.00    +0.068 C 
ATOM      8  C   UNL     1      33.278 -23.405 -14.164  0.00  0.00    +0.010 C 
ATOM      9  C   UNL     1      32.467 -23.589 -13.031  0.00  0.00    +0.054 C 
ATOM     10  C   UNL     1      33.337 -22.726 -16.568  0.00  0.00    +0.066 C 
ATOM     11  C   UNL     1      31.192 -22.660 -15.493  0.00  0.00    +0.253 C 
ATOM     12  C   UNL     1      34.651 -23.681 -14.036  0.00  0.00    +0.007 C 
ATOM     13  C   UNL     1      31.013 -23.320 -13.086  0.00  0.00    +0.252 C 
ATOM     14  C   UNL     1      33.014 -24.032 -11.815  0.00  0.00    +0.005 C 
ATOM     15  C   UNL     1      35.194 -24.122 -12.825  0.00  0.00    +0.035 C 
ATOM     16  C   UNL     1      34.376 -24.298 -11.716  0.00  0.00    +0.007 C 
ATOM     17  H   UNL     1      29.542 -22.704 -14.330  0.00  0.00    +0.158 HD
ENDBRANCH   1  10
BRANCH   1  21
ATOM     18  C   UNL     1      34.439 -19.461 -20.400  0.00  0.00    -0.043 C 
ATOM     19  C   UNL     1      35.291 -20.266 -19.643  0.00  0.00    -0.005 C 
ATOM     20  C   UNL     1      33.057 -19.600 -20.276  0.00  0.00    -0.005 C 
ATOM     21  C   UNL     1      33.378 -21.347 -18.639  0.00  0.00    +0.048 C 
ATOM     22  C   UNL     1      34.760 -21.209 -18.763  0.00  0.00    +0.014 C 
ATOM     23  C   UNL     1      32.526 -20.543 -19.396  0.00  0.00    +0.014 C 
BRANCH  18  24
ATOM     24  C   UNL     1      35.006 -18.453 -21.340  0.00  0.00    -0.050 C 
BRANCH  24  25
ATOM     25  N   UNL     1      33.980 -17.802 -22.142  0.00  0.00    +0.390 N 
ATOM     26  C   UNL     1      34.337 -16.430 -22.499  0.00  0.00    -0.077 C 
ATOM     27  C   UNL     1      33.755 -18.481 -23.418  0.00  0.00    -0.077 C 
ATOM     28  C   UNL     1      33.357 -16.102 -23.616  0.00  0.00    -0.025 C 
ATOM     29  C   UNL     1      32.972 -17.450 -24.217  0.00  0.00    -0.025 C 
ATOM     30  H   UNL     1      33.149 -17.831 -21.550  0.00  0.00    -0.079 HD
ENDBRANCH  24  25
ENDBRANCH  18  24
ENDBRANCH   1  21
TORSDOF 4
ENDMDL
MODEL 4
REMARK VINA RESULT:     -11.2      3.983      9.789
REMARK  Name = 24808489
REMARK  4 active torsions:
REMARK  status: ('A' for Active; 'I' for Inactive)
REMARK    1  A    between atoms: N_1  and  C_10
REMARK    2  A    between atoms: N_1  and  C_21
REMARK    3  A    between atoms: C_18  and  C_24
REMARK    4  A    between atoms: C_24  and  N_25
REMARK                            x       y       z     vdW  Elec       q    Type
REMARK                         _______ _______ _______ _____ _____    ______ ____
ROOT
ATOM      1  N   UNL     1      34.831 -18.313 -20.580  0.00  0.00    -0.311 N 
ATOM      2  H   UNL     1      35.706 -18.416 -21.016  0.00  0.00    +0.152 HD
ENDROOT
BRANCH   1  10
ATOM      3 BR   UNL     1      31.818 -12.186 -19.412  0.00  0.00    -0.049 Br
ATOM      4  O   UNL     1      34.879 -18.313 -23.118  0.00  0.00    -0.270 OA
ATOM      5  O   UNL     1      33.209 -14.814 -25.574  0.00  0.00    -0.270 OA
ATOM      6  N   UNL     1      34.034 -16.544 -24.307  0.00  0.00    -0.248 N 
ATOM      7  C   UNL     1      33.955 -16.473 -21.884  0.00  0.00    +0.068 C 
ATOM      8  C   UNL     1      33.309 -15.145 -21.968  0.00  0.00    +0.010 C 
ATOM      9  C   UNL     1      33.056 -14.584 -23.232  0.00  0.00    +0.054 C 
ATOM     10  C   UNL     1      34.243 -17.105 -20.732  0.00  0.00    +0.066 C 
ATOM     11  C   UNL     1      34.338 -17.209 -23.129  0.00  0.00    +0.253 C 
ATOM     12  C   UNL     1      32.926 -14.404 -20.837  0.00  0.00    +0.007 C 
ATOM     13  C   UNL     1      33.430 -15.303 -24.470  0.00  0.00    +0.252 C 
ATOM     14  C   UNL     1      32.444 -13.325 -23.354  0.00  0.00    +0.005 C 
ATOM     15  C   UNL     1      32.317 -13.151 -20.960  0.00  0.00    +0.035 C 
ATOM     16  C   UNL     1      32.076 -12.612 -22.217  0.00  0.00    +0.007 C 
ATOM     17  H   UNL     1      34.279 -17.012 -25.138  0.00  0.00    +0.158 HD
ENDBRANCH   1  10
BRANCH   1  21
ATOM     18  C   UNL     1      33.426 -21.676 -18.498  0.00  0.00    -0.043 C 
ATOM     19  C   UNL     1      34.791 -21.392 -18.524  0.00  0.00    -0.005 C 
ATOM     20  C   UNL     1      32.527 -20.843 -19.164  0.00  0.00    -0.005 C 
ATOM     21  C   UNL     1      34.359 -19.441 -19.882  0.00  0.00    +0.048 C 
ATOM     22  C   UNL     1      35.257 -20.274 -19.216  0.00  0.00    +0.014 C 
ATOM     23  C   UNL     1      32.993 -19.725 -19.856  0.00  0.00    +0.014 C 
BRANCH  18  24
ATOM     24  C   UNL     1      32.927 -22.871 -17.758  0.00  0.00    -0.050 C 
BRANCH  24  25
ATOM     25  N   UNL     1      32.570 -22.563 -16.381  0.00  0.00    +0.390 N 
ATOM     26  C   UNL     1      31.147 -22.768 -16.114  0.00  0.00    -0.077 C 
ATOM     27  C   UNL     1      33.265 -23.418 -15.420  0.00  0.00    -0.077 C 
ATOM     28  C   UNL     1      31.082 -22.774 -14.594  0.00  0.00    -0.025 C 
ATOM     29  C   UNL     1      32.475 -23.198 -14.138  0.00  0.00    -0.025 C 
ATOM     30  H   UNL     1      32.834 -21.583 -16.271  0.00  0.00    -0.079 HD
ENDBRANCH  24  25
ENDBRANCH  18  24
ENDBRANCH   1  21
TORSDOF 4
ENDMDL
MODEL 5
REMARK VINA RESULT:     -11.2      8.262     13.220
REMARK  Name = 24808489
REMARK  4 active torsions:
REMARK  status: ('A' for Active; 'I' for Inactive)
REMARK    1  A    between atoms: N_1  and  C_10
REMARK    2  A    between atoms: N_1  and  C_21
REMARK    3  A    between atoms: C_18  and  C_24
REMARK    4  A    between atoms: C_24  and  N_25
REMARK                            x       y       z     vdW  Elec       q    Type
REMARK                         _______ _______ _______ _____ _____    ______ ____
ROOT
ATOM      1  N   UNL     1      30.912 -11.288 -20.735  0.00  0.00    -0.311 N 
ATOM      2  H   UNL     1      30.321 -11.521 -19.984  0.00  0.00    +0.152 HD
ENDROOT
BRANCH   1  10
ATOM      3 BR   UNL     1      29.970  -5.813 -24.870  0.00  0.00    -0.049 Br
ATOM      4  O   UNL     1      31.248 -10.117 -18.508  0.00  0.00    -0.270 OA
ATOM      5  O   UNL     1      31.130  -5.545 -18.133  0.00  0.00    -0.270 OA
ATOM      6  N   UNL     1      31.181  -7.830 -18.365  0.00  0.00    -0.248 N 
ATOM      7  C   UNL     1      30.849  -8.879 -20.526  0.00  0.00    +0.068 C 
ATOM      8  C   UNL     1      30.690  -7.537 -21.126  0.00  0.00    +0.010 C 
ATOM      9  C   UNL     1      30.787  -6.402 -20.303  0.00  0.00    +0.054 C 
ATOM     10  C   UNL     1      30.778 -10.032 -21.215  0.00  0.00    +0.066 C 
ATOM     11  C   UNL     1      31.109  -9.028 -19.060  0.00  0.00    +0.253 C 
ATOM     12  C   UNL     1      30.445  -7.331 -22.495  0.00  0.00    +0.007 C 
ATOM     13  C   UNL     1      31.044  -6.535 -18.852  0.00  0.00    +0.252 C 
ATOM     14  C   UNL     1      30.641  -5.110 -20.835  0.00  0.00    +0.005 C 
ATOM     15  C   UNL     1      30.300  -6.045 -23.023  0.00  0.00    +0.035 C 
ATOM     16  C   UNL     1      30.398  -4.935 -22.194  0.00  0.00    +0.007 C 
ATOM     17  H   UNL     1      31.350  -7.906 -17.397  0.00  0.00    +0.158 HD
ENDBRANCH   1  10
BRANCH   1  21
ATOM     18  C   UNL     1      33.512 -14.326 -22.014  0.00  0.00    -0.043 C 
ATOM     19  C   UNL     1      33.125 -13.320 -22.900  0.00  0.00    -0.005 C 
ATOM     20  C   UNL     1      33.035 -14.323 -20.704  0.00  0.00    -0.005 C 
ATOM     21  C   UNL     1      31.784 -12.308 -21.164  0.00  0.00    +0.048 C 
ATOM     22  C   UNL     1      32.261 -12.311 -22.475  0.00  0.00    +0.014 C 
ATOM     23  C   UNL     1      32.171 -13.314 -20.279  0.00  0.00    +0.014 C 
BRANCH  18  24
ATOM     24  C   UNL     1      34.435 -15.405 -22.469  0.00  0.00    -0.050 C 
BRANCH  24  25
ATOM     25  N   UNL     1      33.789 -16.708 -22.510  0.00  0.00    +0.390 N 
ATOM     26  C   UNL     1      33.654 -17.223 -23.872  0.00  0.00    -0.077 C 
ATOM     27  C   UNL     1      34.549 -17.730 -21.791  0.00  0.00    -0.077 C 
ATOM     28  C   UNL     1      33.337 -18.695 -23.651  0.00  0.00    -0.025 C 
ATOM     29  C   UNL     1      33.923 -19.027 -22.282  0.00  0.00    -0.025 C 
ATOM     30  H   UNL     1      32.879 -16.546 -22.079  0.00  0.00    -0.079 HD
ENDBRANCH  24  25
ENDBRANCH  18  24
ENDBRANCH   1  21
TORSDOF 4
ENDMDL
MODEL 6
REMARK VINA RESULT:     -10.8      7.585     12.828
REMARK  Name = 24808489
REMARK  4 active torsions:
REMARK  status: ('A' for Active; 'I' for Inactive)
REMARK    1  A    between atoms: N_1  and  C_10
REMARK    2  A    between atoms: N_1  and  C_21
REMARK    3  A    between atoms: C_18  and  C_24
REMARK    4  A    between atoms: C_24  and  N_25
REMARK                            x       y       z     vdW  Elec       q    Type
REMARK                         _______ _______ _______ _____ _____    ______ ____
ROOT
ATOM      1  N   UNL     1      31.234 -11.834 -20.880  0.00  0.00    -0.311 N 
ATOM      2  H   UNL     1      30.533 -12.018 -20.214  0.00  0.00    +0.152 HD
ENDROOT
BRANCH   1  10
ATOM      3 BR   UNL     1      31.680  -6.238 -24.936  0.00  0.00    -0.049 Br
ATOM      4  O   UNL     1      30.975 -10.725 -18.611  0.00  0.00    -0.270 OA
ATOM      5  O   UNL     1      30.920  -6.160 -18.137  0.00  0.00    -0.270 OA
ATOM      6  N   UNL     1      30.952  -8.440 -18.419  0.00  0.00    -0.248 N 
ATOM      7  C   UNL     1      31.201  -9.430 -20.620  0.00  0.00    +0.068 C 
ATOM      8  C   UNL     1      31.264  -8.069 -21.197  0.00  0.00    +0.010 C 
ATOM      9  C   UNL     1      31.167  -6.957 -20.344  0.00  0.00    +0.054 C 
ATOM     10  C   UNL     1      31.284 -10.564 -21.337  0.00  0.00    +0.066 C 
ATOM     11  C   UNL     1      31.035  -9.620 -19.144  0.00  0.00    +0.253 C 
ATOM     12  C   UNL     1      31.418  -7.825 -22.573  0.00  0.00    +0.007 C 
ATOM     13  C   UNL     1      31.003  -7.131 -18.883  0.00  0.00    +0.252 C 
ATOM     14  C   UNL     1      31.222  -5.649 -20.853  0.00  0.00    +0.005 C 
ATOM     15  C   UNL     1      31.472  -6.522 -23.079  0.00  0.00    +0.035 C 
ATOM     16  C   UNL     1      31.375  -5.435 -22.220  0.00  0.00    +0.007 C 
ATOM     17  H   UNL     1      30.841  -8.544 -17.446  0.00  0.00    +0.158 HD
ENDBRANCH   1  10
BRANCH   1  21
ATOM     18  C   UNL     1      33.664 -15.097 -21.914  0.00  0.00    -0.043 C 
ATOM     19  C   UNL     1      33.017 -14.365 -22.911  0.00  0.00    -0.005 C 
ATOM     20  C   UNL     1      33.503 -14.745 -20.575  0.00  0.00    -0.005 C 
ATOM     21  C   UNL     1      32.049 -12.929 -21.227  0.00  0.00    +0.048 C 
ATOM     22  C   UNL     1      32.209 -13.282 -22.566  0.00  0.00    +0.014 C 
ATOM     23  C   UNL     1      32.696 -13.661 -20.230  0.00  0.00    +0.014 C 
BRANCH  18  24
ATOM     24  C   UNL     1      34.527 -16.256 -22.283  0.00  0.00    -0.050 C 
BRANCH  24  25
ATOM     25  N   UNL     1      34.513 -17.302 -21.271  0.00  0.00    +0.390 N 
ATOM     26  C   UNL     1      33.668 -18.434 -21.648  0.00  0.00    -0.077 C 
ATOM     27  C   UNL     1      35.839 -17.877 -21.044  0.00  0.00    -0.077 C 
ATOM     28  C   UNL     1      34.103 -19.523 -20.679  0.00  0.00    -0.025 C 
ATOM     29  C   UNL     1      35.529 -19.156 -20.280  0.00  0.00    -0.025 C 
ATOM     30  H   UNL     1      34.160 -16.833 -20.436  0.00  0.00    -0.079 HD
ENDBRANCH  24  25
ENDBRANCH  18  24
ENDBRANCH   1  21
TORSDOF 4
ENDMDL
MODEL 7
REMARK VINA RESULT:     -10.8      3.314      4.528
REMARK  Name = 24808489
REMARK  4 active torsions:
REMARK  status: ('A' for Active; 'I' for Inactive)
REMARK    1  A    between atoms: N_1  and  C_10
REMARK    2  A    between atoms: N_1  and  C_21
REMARK    3  A    between atoms: C_18  and  C_24
REMARK    4  A    between atoms: C_24  and  N_25
REMARK                            x       y       z     vdW  Elec       q    Type
REMARK                         _______ _______ _______ _____ _____    ______ ____
ROOT
ATOM      1  N   UNL     1      33.692 -22.304 -16.469  0.00  0.00    -0.311 N 
ATOM      2  H   UNL     1      32.776 -22.333 -16.112  0.00  0.00    +0.152 HD
ENDROOT
BRANCH   1  10
ATOM      3 BR   UNL     1      39.546 -25.272 -14.259  0.00  0.00    -0.049 Br
ATOM      4  O   UNL     1      32.255 -22.542 -14.390  0.00  0.00    -0.270 OA
ATOM      5  O   UNL     1      33.831 -24.538 -10.570  0.00  0.00    -0.270 OA
ATOM      6  N   UNL     1      33.082 -23.546 -12.502  0.00  0.00    -0.248 N 
ATOM      7  C   UNL     1      34.514 -23.352 -14.450  0.00  0.00    +0.068 C 
ATOM      8  C   UNL     1      35.591 -24.028 -13.694  0.00  0.00    +0.010 C 
ATOM      9  C   UNL     1      35.352 -24.430 -12.370  0.00  0.00    +0.054 C 
ATOM     10  C   UNL     1      34.629 -22.925 -15.720  0.00  0.00    +0.066 C 
ATOM     11  C   UNL     1      33.184 -23.099 -13.811  0.00  0.00    +0.253 C 
ATOM     12  C   UNL     1      36.860 -24.293 -14.238  0.00  0.00    +0.007 C 
ATOM     13  C   UNL     1      34.041 -24.186 -11.727  0.00  0.00    +0.252 C 
ATOM     14  C   UNL     1      36.349 -25.074 -11.619  0.00  0.00    +0.005 C 
ATOM     15  C   UNL     1      37.853 -24.934 -13.489  0.00  0.00    +0.035 C 
ATOM     16  C   UNL     1      37.597 -25.324 -12.181  0.00  0.00    +0.007 C 
ATOM     17  H   UNL     1      32.214 -23.388 -12.063  0.00  0.00    +0.158 HD
ENDBRANCH   1  10
BRANCH   1  21
ATOM     18  C   UNL     1      34.162 -20.270 -20.111  0.00  0.00    -0.043 C 
ATOM     19  C   UNL     1      35.284 -20.646 -19.372  0.00  0.00    -0.005 C 
ATOM     20  C   UNL     1      32.884 -20.570 -19.640  0.00  0.00    -0.005 C 
ATOM     21  C   UNL     1      33.849 -21.621 -17.690  0.00  0.00    +0.048 C 
ATOM     22  C   UNL     1      35.127 -21.321 -18.162  0.00  0.00    +0.014 C 
ATOM     23  C   UNL     1      32.727 -21.245 -18.430  0.00  0.00    +0.014 C 
BRANCH  18  24
ATOM     24  C   UNL     1      34.329 -19.547 -21.404  0.00  0.00    -0.050 C 
BRANCH  24  25
ATOM     25  N   UNL     1      33.846 -18.176 -21.341  0.00  0.00    +0.390 N 
ATOM     26  C   UNL     1      34.602 -17.361 -20.391  0.00  0.00    -0.077 C 
ATOM     27  C   UNL     1      33.970 -17.481 -22.622  0.00  0.00    -0.077 C 
ATOM     28  C   UNL     1      34.207 -15.941 -20.769  0.00  0.00    -0.025 C 
ATOM     29  C   UNL     1      33.788 -16.020 -22.234  0.00  0.00    -0.025 C 
ATOM     30  H   UNL     1      32.870 -18.271 -21.059  0.00  0.00    -0.079 HD
ENDBRANCH  24  25
ENDBRANCH  18  24
ENDBRANCH   1  21
TORSDOF 4
ENDMDL
MODEL 8
REMARK VINA RESULT:     -10.5      6.271     11.902
REMARK  Name = 24808489
REMARK  4 active torsions:
REMARK  status: ('A' for Active; 'I' for Inactive)
REMARK    1  A    between atoms: N_1  and  C_10
REMARK    2  A    between atoms: N_1  and  C_21
REMARK    3  A    between atoms: C_18  and  C_24
REMARK    4  A    between atoms: C_24  and  N_25
REMARK                            x       y       z     vdW  Elec       q    Type
REMARK                         _______ _______ _______ _____ _____    ______ ____
ROOT
ATOM      1  N   UNL     1      32.938 -13.812 -23.132  0.00  0.00    -0.311 N 
ATOM      2  H   UNL     1      32.889 -13.742 -24.112  0.00  0.00    +0.152 HD
ENDROOT
BRANCH   1  10
ATOM      3 BR   UNL     1      30.181  -9.681 -18.304  0.00  0.00    -0.049 Br
ATOM      4  O   UNL     1      33.522 -12.097 -24.910  0.00  0.00    -0.270 OA
ATOM      5  O   UNL     1      32.658  -7.625 -24.341  0.00  0.00    -0.270 OA
ATOM      6  N   UNL     1      33.073  -9.872 -24.585  0.00  0.00    -0.248 N 
ATOM      7  C   UNL     1      32.489 -11.453 -22.841  0.00  0.00    +0.068 C 
ATOM      8  C   UNL     1      31.969 -10.329 -22.032  0.00  0.00    +0.010 C 
ATOM      9  C   UNL     1      32.029  -9.024 -22.550  0.00  0.00    +0.054 C 
ATOM     10  C   UNL     1      32.482 -12.739 -22.449  0.00  0.00    +0.066 C 
ATOM     11  C   UNL     1      33.074 -11.203 -24.196  0.00  0.00    +0.253 C 
ATOM     12  C   UNL     1      31.408 -10.499 -20.753  0.00  0.00    +0.007 C 
ATOM     13  C   UNL     1      32.605  -8.765 -23.888  0.00  0.00    +0.252 C 
ATOM     14  C   UNL     1      31.547  -7.931 -21.812  0.00  0.00    +0.005 C 
ATOM     15  C   UNL     1      30.928  -9.409 -20.020  0.00  0.00    +0.035 C 
ATOM     16  C   UNL     1      30.997  -8.127 -20.549  0.00  0.00    +0.007 C 
ATOM     17  H   UNL     1      33.456  -9.687 -25.474  0.00  0.00    +0.158 HD
ENDBRANCH   1  10
BRANCH   1  21
ATOM     18  C   UNL     1      34.529 -17.398 -21.638  0.00  0.00    -0.043 C 
ATOM     19  C   UNL     1      34.263 -16.338 -20.771  0.00  0.00    -0.005 C 
ATOM     20  C   UNL     1      34.267 -17.266 -23.001  0.00  0.00    -0.005 C 
ATOM     21  C   UNL     1      33.472 -15.015 -22.631  0.00  0.00    +0.048 C 
ATOM     22  C   UNL     1      33.735 -15.146 -21.268  0.00  0.00    +0.014 C 
ATOM     23  C   UNL     1      33.739 -16.075 -23.498  0.00  0.00    +0.014 C 
BRANCH  18  24
ATOM     24  C   UNL     1      35.094 -18.671 -21.107  0.00  0.00    -0.050 C 
BRANCH  24  25
ATOM     25  N   UNL     1      34.269 -19.250 -20.057  0.00  0.00    +0.390 N 
ATOM     26  C   UNL     1      32.931 -19.603 -20.530  0.00  0.00    -0.077 C 
ATOM     27  C   UNL     1      34.827 -20.495 -19.531  0.00  0.00    -0.077 C 
ATOM     28  C   UNL     1      32.409 -20.514 -19.429  0.00  0.00    -0.025 C 
ATOM     29  C   UNL     1      33.655 -21.098 -18.770  0.00  0.00    -0.025 C 
ATOM     30  H   UNL     1      34.233 -18.523 -19.342  0.00  0.00    -0.079 HD
ENDBRANCH  24  25
ENDBRANCH  18  24
ENDBRANCH   1  21
TORSDOF 4
ENDMDL
MODEL 9
REMARK VINA RESULT:     -10.0      7.449     12.835
REMARK  Name = 24808489
REMARK  4 active torsions:
REMARK  status: ('A' for Active; 'I' for Inactive)
REMARK    1  A    between atoms: N_1  and  C_10
REMARK    2  A    between atoms: N_1  and  C_21
REMARK    3  A    between atoms: C_18  and  C_24
REMARK    4  A    between atoms: C_24  and  N_25
REMARK                            x       y       z     vdW  Elec       q    Type
REMARK                         _______ _______ _______ _____ _____    ______ ____
ROOT
ATOM      1  N   UNL     1      33.029 -12.217 -23.967  0.00  0.00    -0.311 N 
ATOM      2  H   UNL     1      33.200 -11.899 -24.882  0.00  0.00    +0.152 HD
ENDROOT
BRANCH   1  10
ATOM      3 BR   UNL     1      30.241  -8.887 -18.572  0.00  0.00    -0.049 Br
ATOM      4  O   UNL     1      34.162 -10.279 -25.154  0.00  0.00    -0.270 OA
ATOM      5  O   UNL     1      33.955  -5.990 -23.534  0.00  0.00    -0.270 OA
ATOM      6  N   UNL     1      34.034  -8.151 -24.310  0.00  0.00    -0.248 N 
ATOM      7  C   UNL     1      32.928  -9.953 -23.121  0.00  0.00    +0.068 C 
ATOM      8  C   UNL     1      32.474  -8.973 -22.109  0.00  0.00    +0.010 C 
ATOM      9  C   UNL     1      32.828  -7.621 -22.256  0.00  0.00    +0.054 C 
ATOM     10  C   UNL     1      32.650 -11.268 -23.083  0.00  0.00    +0.066 C 
ATOM     11  C   UNL     1      33.756  -9.510 -24.286  0.00  0.00    +0.253 C 
ATOM     12  C   UNL     1      31.696  -9.327 -20.993  0.00  0.00    +0.007 C 
ATOM     13  C   UNL     1      33.646  -7.171 -23.405  0.00  0.00    +0.252 C 
ATOM     14  C   UNL     1      32.417  -6.661 -21.318  0.00  0.00    +0.005 C 
ATOM     15  C   UNL     1      31.287  -8.369 -20.059  0.00  0.00    +0.035 C 
ATOM     16  C   UNL     1      31.647  -7.038 -20.221  0.00  0.00    +0.007 C 
ATOM     17  H   UNL     1      34.579  -7.840 -25.069  0.00  0.00    +0.158 HD
ENDBRANCH   1  10
BRANCH   1  21
ATOM     18  C   UNL     1      33.575 -16.331 -23.335  0.00  0.00    -0.043 C 
ATOM     19  C   UNL     1      33.949 -15.417 -22.349  0.00  0.00    -0.005 C 
ATOM     20  C   UNL     1      33.020 -15.877 -24.531  0.00  0.00    -0.005 C 
ATOM     21  C   UNL     1      33.213 -13.597 -23.756  0.00  0.00    +0.048 C 
ATOM     22  C   UNL     1      33.768 -14.051 -22.559  0.00  0.00    +0.014 C 
ATOM     23  C   UNL     1      32.839 -14.510 -24.742  0.00  0.00    +0.014 C 
BRANCH  18  24
ATOM     24  C   UNL     1      33.770 -17.792 -23.110  0.00  0.00    -0.050 C 
BRANCH  24  25
ATOM     25  N   UNL     1      34.251 -18.088 -21.769  0.00  0.00    +0.390 N 
ATOM     26  C   UNL     1      33.687 -19.327 -21.234  0.00  0.00    -0.077 C 
ATOM     27  C   UNL     1      35.700 -18.280 -21.725  0.00  0.00    -0.077 C 
ATOM     28  C   UNL     1      34.592 -19.631 -20.050  0.00  0.00    -0.025 C 
ATOM     29  C   UNL     1      35.914 -18.940 -20.371  0.00  0.00    -0.025 C 
ATOM     30  H   UNL     1      33.963 -17.277 -21.219  0.00  0.00    -0.079 HD
ENDBRANCH  24  25
ENDBRANCH  18  24
ENDBRANCH   1  21
TORSDOF 4
ENDMDL
