MODEL 1
REMARK VINA RESULT:     -11.6      0.000      0.000
REMARK  Name = 25052630
REMARK  6 active torsions:
REMARK  status: ('A' for Active; 'I' for Inactive)
REMARK    1  A    between atoms: N_2  and  C_11
REMARK    2  A    between atoms: C_4  and  C_20
REMARK    3  A    between atoms: C_20  and  C_21
REMARK    4  A    between atoms: C_21  and  N_22
REMARK    5  A    between atoms: N_22  and  C_25
REMARK    6  A    between atoms: C_25  and  C_26
REMARK                            x       y       z     vdW  Elec       q    Type
REMARK                         _______ _______ _______ _____ _____    ______ ____
ROOT
ATOM      1  S   UNL     1      36.390 -26.530 -12.985  0.00  0.00    -0.018 S 
ATOM      2  N   UNL     1      35.549 -24.153 -14.201  0.00  0.00    -0.270 N 
ATOM      3  N   UNL     1      37.769 -24.519 -14.206  0.00  0.00    -0.294 N 
ATOM      4  C   UNL     1      36.197 -23.095 -14.836  0.00  0.00    +0.043 C 
ATOM      5  C   UNL     1      36.543 -25.085 -13.786  0.00  0.00    +0.142 C 
ATOM      6  C   UNL     1      37.519 -23.326 -14.832  0.00  0.00    +0.074 C 
ATOM      7  H   UNL     1      38.659 -24.917 -14.070  0.00  0.00    +0.154 HD
ENDROOT
BRANCH   2  11
ATOM      8  F   UNL     1      29.696 -23.808 -11.833  0.00  0.00    -0.201 F 
ATOM      9  F   UNL     1      28.786 -22.196 -16.184  0.00  0.00    -0.204 F 
ATOM     10  O   UNL     1      32.310 -24.033 -12.383  0.00  0.00    -0.472 OA
ATOM     11  C   UNL     1      34.122 -24.238 -14.023  0.00  0.00    +0.127 C 
ATOM     12  C   UNL     1      33.386 -23.356 -15.029  0.00  0.00    +0.054 C 
ATOM     13  C   UNL     1      33.708 -23.826 -12.614  0.00  0.00    +0.226 C 
ATOM     14  C   UNL     1      31.934 -23.237 -14.661  0.00  0.00    +0.018 C 
ATOM     15  C   UNL     1      31.487 -23.566 -13.375  0.00  0.00    +0.162 C 
ATOM     16  C   UNL     1      31.012 -22.764 -15.605  0.00  0.00    +0.029 C 
ATOM     17  C   UNL     1      30.131 -23.461 -13.052  0.00  0.00    +0.176 C 
ATOM     18  C   UNL     1      29.660 -22.649 -15.275  0.00  0.00    +0.142 C 
ATOM     19  C   UNL     1      29.221 -23.001 -14.002  0.00  0.00    +0.062 C 
ENDBRANCH   2  11
BRANCH   4  20
ATOM     20  C   UNL     1      35.474 -21.931 -15.404  0.00  0.00    +0.019 C 
BRANCH  20  21
ATOM     21  C   UNL     1      36.441 -20.841 -15.867  0.00  0.00    -0.075 C 
BRANCH  21  22
ATOM     22  N   UNL     1      36.212 -20.516 -17.270  0.00  0.00    +0.387 N 
ATOM     23  H   UNL     1      37.111 -20.430 -17.744  0.00  0.00    -0.084 HD
ATOM     24  H   UNL     1      35.697 -19.638 -17.322  0.00  0.00    -0.084 HD
BRANCH  22  25
ATOM     25  C   UNL     1      35.427 -21.555 -17.922  0.00  0.00    -0.054 C 
BRANCH  25  26
ATOM     26  C   UNL     1      34.299 -20.979 -18.735  0.00  0.00    -0.044 C 
ATOM     27  C   UNL     1      34.571 -20.074 -19.763  0.00  0.00    -0.006 C 
ATOM     28  C   UNL     1      32.983 -21.351 -18.464  0.00  0.00    -0.006 C 
ATOM     29  C   UNL     1      33.526 -19.541 -20.516  0.00  0.00    -0.000 C 
ATOM     30  C   UNL     1      31.938 -20.817 -19.219  0.00  0.00    -0.000 C 
ATOM     31  C   UNL     1      32.210 -19.913 -20.245  0.00  0.00    -0.000 C 
ENDBRANCH  25  26
ENDBRANCH  22  25
ENDBRANCH  21  22
ENDBRANCH  20  21
ENDBRANCH   4  20
TORSDOF 6
ENDMDL
MODEL 2
REMARK VINA RESULT:     -10.4      8.701     12.219
REMARK  Name = 25052630
REMARK  6 active torsions:
REMARK  status: ('A' for Active; 'I' for Inactive)
REMARK    1  A    between atoms: N_2  and  C_11
REMARK    2  A    between atoms: C_4  and  C_20
REMARK    3  A    between atoms: C_20  and  C_21
REMARK    4  A    between atoms: C_21  and  N_22
REMARK    5  A    between atoms: N_22  and  C_25
REMARK    6  A    between atoms: C_25  and  C_26
REMARK                            x       y       z     vdW  Elec       q    Type
REMARK                         _______ _______ _______ _____ _____    ______ ____
ROOT
ATOM      1  S   UNL     1      31.971 -13.456 -25.704  0.00  0.00    -0.018 S 
ATOM      2  N   UNL     1      33.076 -14.046 -23.200  0.00  0.00    -0.270 N 
ATOM      3  N   UNL     1      33.092 -15.728 -24.694  0.00  0.00    -0.294 N 
ATOM      4  C   UNL     1      33.658 -15.176 -22.628  0.00  0.00    +0.043 C 
ATOM      5  C   UNL     1      32.702 -14.379 -24.535  0.00  0.00    +0.142 C 
ATOM      6  C   UNL     1      33.661 -16.170 -23.530  0.00  0.00    +0.074 C 
ATOM      7  H   UNL     1      32.972 -16.265 -25.511  0.00  0.00    +0.154 HD
ENDROOT
BRANCH   2  11
ATOM      8  F   UNL     1      32.088  -7.944 -21.873  0.00  0.00    -0.201 F 
ATOM      9  F   UNL     1      29.381  -9.842 -18.493  0.00  0.00    -0.204 F 
ATOM     10  O   UNL     1      32.711 -10.366 -22.837  0.00  0.00    -0.472 OA
ATOM     11  C   UNL     1      32.905 -12.790 -22.517  0.00  0.00    +0.127 C 
ATOM     12  C   UNL     1      31.688 -12.822 -21.597  0.00  0.00    +0.054 C 
ATOM     13  C   UNL     1      32.748 -11.634 -23.500  0.00  0.00    +0.226 C 
ATOM     14  C   UNL     1      31.360 -11.439 -21.108  0.00  0.00    +0.018 C 
ATOM     15  C   UNL     1      31.874 -10.307 -21.754  0.00  0.00    +0.162 C 
ATOM     16  C   UNL     1      30.508 -11.271 -20.008  0.00  0.00    +0.029 C 
ATOM     17  C   UNL     1      31.570  -9.027 -21.279  0.00  0.00    +0.176 C 
ATOM     18  C   UNL     1      30.196  -9.992 -19.545  0.00  0.00    +0.142 C 
ATOM     19  C   UNL     1      30.731  -8.872 -20.177  0.00  0.00    +0.062 C 
ENDBRANCH   2  11
BRANCH   4  20
ATOM     20  C   UNL     1      34.172 -15.201 -21.237  0.00  0.00    +0.019 C 
BRANCH  20  21
ATOM     21  C   UNL     1      33.812 -16.507 -20.530  0.00  0.00    -0.075 C 
BRANCH  21  22
ATOM     22  N   UNL     1      34.965 -17.399 -20.484  0.00  0.00    +0.387 N 
ATOM     23  H   UNL     1      35.214 -17.572 -19.510  0.00  0.00    -0.084 HD
ATOM     24  H   UNL     1      35.740 -16.956 -20.976  0.00  0.00    -0.084 HD
BRANCH  22  25
ATOM     25  C   UNL     1      34.666 -18.668 -21.133  0.00  0.00    -0.054 C 
BRANCH  25  26
ATOM     26  C   UNL     1      34.197 -19.705 -20.147  0.00  0.00    -0.044 C 
ATOM     27  C   UNL     1      35.128 -20.436 -19.408  0.00  0.00    -0.006 C 
ATOM     28  C   UNL     1      32.833 -19.934 -19.972  0.00  0.00    -0.006 C 
ATOM     29  C   UNL     1      34.693 -21.396 -18.495  0.00  0.00    -0.000 C 
ATOM     30  C   UNL     1      32.398 -20.895 -19.058  0.00  0.00    -0.000 C 
ATOM     31  C   UNL     1      33.329 -21.626 -18.320  0.00  0.00    -0.000 C 
ENDBRANCH  25  26
ENDBRANCH  22  25
ENDBRANCH  21  22
ENDBRANCH  20  21
ENDBRANCH   4  20
TORSDOF 6
ENDMDL
MODEL 3
REMARK VINA RESULT:     -10.3      2.006      2.923
REMARK  Name = 25052630
REMARK  6 active torsions:
REMARK  status: ('A' for Active; 'I' for Inactive)
REMARK    1  A    between atoms: N_2  and  C_11
REMARK    2  A    between atoms: C_4  and  C_20
REMARK    3  A    between atoms: C_20  and  C_21
REMARK    4  A    between atoms: C_21  and  N_22
REMARK    5  A    between atoms: N_22  and  C_25
REMARK    6  A    between atoms: C_25  and  C_26
REMARK                            x       y       z     vdW  Elec       q    Type
REMARK                         _______ _______ _______ _____ _____    ______ ____
ROOT
ATOM      1  S   UNL     1      35.770 -23.179 -13.130  0.00  0.00    -0.018 S 
ATOM      2  N   UNL     1      34.436 -22.631 -15.530  0.00  0.00    -0.270 N 
ATOM      3  N   UNL     1      36.531 -21.825 -15.372  0.00  0.00    -0.294 N 
ATOM      4  C   UNL     1      34.767 -21.953 -16.701  0.00  0.00    +0.043 C 
ATOM      5  C   UNL     1      35.561 -22.563 -14.657  0.00  0.00    +0.142 C 
ATOM      6  C   UNL     1      36.018 -21.478 -16.594  0.00  0.00    +0.074 C 
ATOM      7  H   UNL     1      37.432 -21.597 -15.046  0.00  0.00    +0.154 HD
ENDROOT
BRANCH   2  11
ATOM      8  F   UNL     1      29.366 -25.239 -12.797  0.00  0.00    -0.201 F 
ATOM      9  F   UNL     1      27.140 -22.610 -16.036  0.00  0.00    -0.204 F 
ATOM     10  O   UNL     1      31.757 -24.317 -13.583  0.00  0.00    -0.472 OA
ATOM     11  C   UNL     1      33.167 -23.271 -15.296  0.00  0.00    +0.127 C 
ATOM     12  C   UNL     1      32.013 -22.408 -15.799  0.00  0.00    +0.054 C 
ATOM     13  C   UNL     1      32.952 -23.563 -13.815  0.00  0.00    +0.226 C 
ATOM     14  C   UNL     1      30.699 -22.947 -15.307  0.00  0.00    +0.018 C 
ATOM     15  C   UNL     1      30.646 -23.848 -14.236  0.00  0.00    +0.162 C 
ATOM     16  C   UNL     1      29.504 -22.526 -15.906  0.00  0.00    +0.029 C 
ATOM     17  C   UNL     1      29.417 -24.350 -13.798  0.00  0.00    +0.176 C 
ATOM     18  C   UNL     1      28.278 -23.019 -15.458  0.00  0.00    +0.142 C 
ATOM     19  C   UNL     1      28.235 -23.933 -14.408  0.00  0.00    +0.062 C 
ENDBRANCH   2  11
BRANCH   4  20
ATOM     20  C   UNL     1      33.833 -21.817 -17.846  0.00  0.00    +0.019 C 
BRANCH  20  21
ATOM     21  C   UNL     1      34.562 -21.378 -19.116  0.00  0.00    -0.075 C 
BRANCH  21  22
ATOM     22  N   UNL     1      34.076 -20.077 -19.560  0.00  0.00    +0.387 N 
ATOM     23  H   UNL     1      33.773 -19.539 -18.748  0.00  0.00    -0.084 HD
ATOM     24  H   UNL     1      33.297 -20.221 -20.202  0.00  0.00    -0.084 HD
BRANCH  22  25
ATOM     25  C   UNL     1      35.123 -19.342 -20.256  0.00  0.00    -0.054 C 
BRANCH  25  26
ATOM     26  C   UNL     1      34.576 -18.540 -21.406  0.00  0.00    -0.044 C 
ATOM     27  C   UNL     1      34.048 -19.191 -22.522  0.00  0.00    -0.006 C 
ATOM     28  C   UNL     1      34.594 -17.146 -21.355  0.00  0.00    -0.006 C 
ATOM     29  C   UNL     1      33.541 -18.447 -23.587  0.00  0.00    -0.000 C 
ATOM     30  C   UNL     1      34.086 -16.403 -22.422  0.00  0.00    -0.000 C 
ATOM     31  C   UNL     1      33.559 -17.054 -23.537  0.00  0.00    -0.000 C 
ENDBRANCH  25  26
ENDBRANCH  22  25
ENDBRANCH  21  22
ENDBRANCH  20  21
ENDBRANCH   4  20
TORSDOF 6
ENDMDL
MODEL 4
REMARK VINA RESULT:     -10.2      1.706      2.026
REMARK  Name = 25052630
REMARK  6 active torsions:
REMARK  status: ('A' for Active; 'I' for Inactive)
REMARK    1  A    between atoms: N_2  and  C_11
REMARK    2  A    between atoms: C_4  and  C_20
REMARK    3  A    between atoms: C_20  and  C_21
REMARK    4  A    between atoms: C_21  and  N_22
REMARK    5  A    between atoms: N_22  and  C_25
REMARK    6  A    between atoms: C_25  and  C_26
REMARK                            x       y       z     vdW  Elec       q    Type
REMARK                         _______ _______ _______ _____ _____    ______ ____
ROOT
ATOM      1  S   UNL     1      34.223 -24.062 -10.727  0.00  0.00    -0.018 S 
ATOM      2  N   UNL     1      34.273 -23.391 -13.444  0.00  0.00    -0.270 N 
ATOM      3  N   UNL     1      36.130 -22.884 -12.279  0.00  0.00    -0.294 N 
ATOM      4  C   UNL     1      35.208 -22.794 -14.288  0.00  0.00    +0.043 C 
ATOM      5  C   UNL     1      34.847 -23.460 -12.141  0.00  0.00    +0.142 C 
ATOM      6  C   UNL     1      36.309 -22.497 -13.581  0.00  0.00    +0.074 C 
ATOM      7  H   UNL     1      36.790 -22.777 -11.556  0.00  0.00    +0.154 HD
ENDROOT
BRANCH   2  11
ATOM      8  F   UNL     1      28.421 -25.782 -13.566  0.00  0.00    -0.201 F 
ATOM      9  F   UNL     1      27.664 -21.942 -16.219  0.00  0.00    -0.204 F 
ATOM     10  O   UNL     1      30.982 -25.096 -13.173  0.00  0.00    -0.472 OA
ATOM     11  C   UNL     1      32.971 -23.839 -13.867  0.00  0.00    +0.127 C 
ATOM     12  C   UNL     1      32.126 -22.676 -14.379  0.00  0.00    +0.054 C 
ATOM     13  C   UNL     1      32.221 -24.529 -12.732  0.00  0.00    +0.226 C 
ATOM     14  C   UNL     1      30.696 -23.102 -14.554  0.00  0.00    +0.018 C 
ATOM     15  C   UNL     1      30.210 -24.264 -13.941  0.00  0.00    +0.162 C 
ATOM     16  C   UNL     1      29.822 -22.316 -15.318  0.00  0.00    +0.029 C 
ATOM     17  C   UNL     1      28.880 -24.653 -14.123  0.00  0.00    +0.176 C 
ATOM     18  C   UNL     1      28.491 -22.700 -15.487  0.00  0.00    +0.142 C 
ATOM     19  C   UNL     1      28.022 -23.870 -14.894  0.00  0.00    +0.062 C 
ENDBRANCH   2  11
BRANCH   4  20
ATOM     20  C   UNL     1      34.956 -22.557 -15.730  0.00  0.00    +0.019 C 
BRANCH  20  21
ATOM     21  C   UNL     1      36.146 -21.873 -16.403  0.00  0.00    -0.075 C 
BRANCH  21  22
ATOM     22  N   UNL     1      35.693 -20.782 -17.258  0.00  0.00    +0.387 N 
ATOM     23  H   UNL     1      36.490 -20.192 -17.496  0.00  0.00    -0.084 HD
ATOM     24  H   UNL     1      34.990 -20.243 -16.753  0.00  0.00    -0.084 HD
BRANCH  22  25
ATOM     25  C   UNL     1      35.097 -21.295 -18.482  0.00  0.00    -0.054 C 
BRANCH  25  26
ATOM     26  C   UNL     1      34.954 -20.223 -19.530  0.00  0.00    -0.044 C 
ATOM     27  C   UNL     1      36.057 -19.446 -19.888  0.00  0.00    -0.006 C 
ATOM     28  C   UNL     1      33.720 -20.008 -20.143  0.00  0.00    -0.006 C 
ATOM     29  C   UNL     1      35.924 -18.454 -20.858  0.00  0.00    -0.000 C 
ATOM     30  C   UNL     1      33.589 -19.014 -21.114  0.00  0.00    -0.000 C 
ATOM     31  C   UNL     1      34.691 -18.238 -21.472  0.00  0.00    -0.000 C 
ENDBRANCH  25  26
ENDBRANCH  22  25
ENDBRANCH  21  22
ENDBRANCH  20  21
ENDBRANCH   4  20
TORSDOF 6
ENDMDL
MODEL 5
REMARK VINA RESULT:     -10.1     13.340     16.785
REMARK  Name = 25052630
REMARK  6 active torsions:
REMARK  status: ('A' for Active; 'I' for Inactive)
REMARK    1  A    between atoms: N_2  and  C_11
REMARK    2  A    between atoms: C_4  and  C_20
REMARK    3  A    between atoms: C_20  and  C_21
REMARK    4  A    between atoms: C_21  and  N_22
REMARK    5  A    between atoms: N_22  and  C_25
REMARK    6  A    between atoms: C_25  and  C_26
REMARK                            x       y       z     vdW  Elec       q    Type
REMARK                         _______ _______ _______ _____ _____    ______ ____
ROOT
ATOM      1  S   UNL     1      31.428  -5.710 -19.033  0.00  0.00    -0.018 S 
ATOM      2  N   UNL     1      31.102  -8.204 -20.261  0.00  0.00    -0.270 N 
ATOM      3  N   UNL     1      30.764  -8.160 -18.037  0.00  0.00    -0.294 N 
ATOM      4  C   UNL     1      30.766  -9.480 -19.812  0.00  0.00    +0.043 C 
ATOM      5  C   UNL     1      31.106  -7.334 -19.132  0.00  0.00    +0.142 C 
ATOM      6  C   UNL     1      30.568  -9.439 -18.485  0.00  0.00    +0.074 C 
ATOM      7  H   UNL     1      30.680  -7.864 -17.102  0.00  0.00    +0.154 HD
ENDROOT
BRANCH   2  11
ATOM      8  F   UNL     1      30.737  -6.000 -26.176  0.00  0.00    -0.201 F 
ATOM      9  F   UNL     1      35.202  -4.757 -25.240  0.00  0.00    -0.204 F 
ATOM     10  O   UNL     1      30.416  -6.988 -23.705  0.00  0.00    -0.472 OA
ATOM     11  C   UNL     1      31.385  -7.878 -21.635  0.00  0.00    +0.127 C 
ATOM     12  C   UNL     1      32.602  -6.963 -21.746  0.00  0.00    +0.054 C 
ATOM     13  C   UNL     1      30.196  -7.197 -22.306  0.00  0.00    +0.226 C 
ATOM     14  C   UNL     1      32.721  -6.411 -23.138  0.00  0.00    +0.018 C 
ATOM     15  C   UNL     1      31.634  -6.445 -24.021  0.00  0.00    +0.162 C 
ATOM     16  C   UNL     1      33.924  -5.829 -23.558  0.00  0.00    +0.029 C 
ATOM     17  C   UNL     1      31.764  -5.938 -25.318  0.00  0.00    +0.176 C 
ATOM     18  C   UNL     1      34.047  -5.312 -24.848  0.00  0.00    +0.142 C 
ATOM     19  C   UNL     1      32.969  -5.371 -25.729  0.00  0.00    +0.062 C 
ENDBRANCH   2  11
BRANCH   4  20
ATOM     20  C   UNL     1      30.664 -10.652 -20.716  0.00  0.00    +0.019 C 
BRANCH  20  21
ATOM     21  C   UNL     1      31.074 -11.944 -20.010  0.00  0.00    -0.075 C 
BRANCH  21  22
ATOM     22  N   UNL     1      31.190 -13.036 -20.969  0.00  0.00    +0.387 N 
ATOM     23  H   UNL     1      30.570 -12.855 -21.758  0.00  0.00    -0.084 HD
ATOM     24  H   UNL     1      30.930 -13.906 -20.505  0.00  0.00    -0.084 HD
BRANCH  22  25
ATOM     25  C   UNL     1      32.557 -13.157 -21.454  0.00  0.00    -0.054 C 
BRANCH  25  26
ATOM     26  C   UNL     1      32.660 -12.851 -22.924  0.00  0.00    -0.044 C 
ATOM     27  C   UNL     1      32.308 -13.821 -23.865  0.00  0.00    -0.006 C 
ATOM     28  C   UNL     1      33.104 -11.599 -23.346  0.00  0.00    -0.006 C 
ATOM     29  C   UNL     1      32.402 -13.537 -25.227  0.00  0.00    -0.000 C 
ATOM     30  C   UNL     1      33.198 -11.316 -24.710  0.00  0.00    -0.000 C 
ATOM     31  C   UNL     1      32.847 -12.285 -25.649  0.00  0.00    -0.000 C 
ENDBRANCH  25  26
ENDBRANCH  22  25
ENDBRANCH  21  22
ENDBRANCH  20  21
ENDBRANCH   4  20
TORSDOF 6
ENDMDL
MODEL 6
REMARK VINA RESULT:     -10.0      3.340      5.259
REMARK  Name = 25052630
REMARK  6 active torsions:
REMARK  status: ('A' for Active; 'I' for Inactive)
REMARK    1  A    between atoms: N_2  and  C_11
REMARK    2  A    between atoms: C_4  and  C_20
REMARK    3  A    between atoms: C_20  and  C_21
REMARK    4  A    between atoms: C_21  and  N_22
REMARK    5  A    between atoms: N_22  and  C_25
REMARK    6  A    between atoms: C_25  and  C_26
REMARK                            x       y       z     vdW  Elec       q    Type
REMARK                         _______ _______ _______ _____ _____    ______ ____
ROOT
ATOM      1  S   UNL     1      30.213 -24.283 -12.626  0.00  0.00    -0.018 S 
ATOM      2  N   UNL     1      31.992 -23.310 -14.558  0.00  0.00    -0.270 N 
ATOM      3  N   UNL     1      29.826 -23.367 -15.166  0.00  0.00    -0.294 N 
ATOM      4  C   UNL     1      31.857 -22.831 -15.860  0.00  0.00    +0.043 C 
ATOM      5  C   UNL     1      30.693 -23.661 -14.088  0.00  0.00    +0.142 C 
ATOM      6  C   UNL     1      30.562 -22.871 -16.209  0.00  0.00    +0.074 C 
ATOM      7  H   UNL     1      28.850 -23.497 -15.167  0.00  0.00    +0.154 HD
ENDROOT
BRANCH   2  11
ATOM      8  F   UNL     1      36.432 -24.343 -10.177  0.00  0.00    -0.201 F 
ATOM      9  F   UNL     1      38.660 -26.237 -13.893  0.00  0.00    -0.204 F 
ATOM     10  O   UNL     1      34.270 -23.791 -11.661  0.00  0.00    -0.472 OA
ATOM     11  C   UNL     1      33.246 -23.410 -13.858  0.00  0.00    +0.127 C 
ATOM     12  C   UNL     1      34.173 -24.423 -14.527  0.00  0.00    +0.054 C 
ATOM     13  C   UNL     1      33.045 -23.817 -12.402  0.00  0.00    +0.226 C 
ATOM     14  C   UNL     1      35.351 -24.722 -13.644  0.00  0.00    +0.018 C 
ATOM     15  C   UNL     1      35.329 -24.404 -12.280  0.00  0.00    +0.162 C 
ATOM     16  C   UNL     1      36.483 -25.352 -14.180  0.00  0.00    +0.029 C 
ATOM     17  C   UNL     1      36.438 -24.677 -11.474  0.00  0.00    +0.176 C 
ATOM     18  C   UNL     1      37.584 -25.635 -13.371  0.00  0.00    +0.142 C 
ATOM     19  C   UNL     1      37.563 -25.294 -12.021  0.00  0.00    +0.062 C 
ENDBRANCH   2  11
BRANCH   4  20
ATOM     20  C   UNL     1      33.009 -22.368 -16.671  0.00  0.00    +0.019 C 
BRANCH  20  21
ATOM     21  C   UNL     1      32.690 -22.393 -18.166  0.00  0.00    -0.075 C 
BRANCH  21  22
ATOM     22  N   UNL     1      32.949 -21.090 -18.767  0.00  0.00    +0.387 N 
ATOM     23  H   UNL     1      32.636 -20.360 -18.127  0.00  0.00    -0.084 HD
ATOM     24  H   UNL     1      32.443 -21.032 -19.650  0.00  0.00    -0.084 HD
BRANCH  22  25
ATOM     25  C   UNL     1      34.370 -20.915 -19.032  0.00  0.00    -0.054 C 
BRANCH  25  26
ATOM     26  C   UNL     1      34.620 -19.858 -20.074  0.00  0.00    -0.044 C 
ATOM     27  C   UNL     1      35.868 -19.237 -20.153  0.00  0.00    -0.006 C 
ATOM     28  C   UNL     1      33.606 -19.500 -20.961  0.00  0.00    -0.006 C 
ATOM     29  C   UNL     1      36.100 -18.259 -21.119  0.00  0.00    -0.000 C 
ATOM     30  C   UNL     1      33.839 -18.520 -21.928  0.00  0.00    -0.000 C 
ATOM     31  C   UNL     1      35.086 -17.900 -22.006  0.00  0.00    -0.000 C 
ENDBRANCH  25  26
ENDBRANCH  22  25
ENDBRANCH  21  22
ENDBRANCH  20  21
ENDBRANCH   4  20
TORSDOF 6
ENDMDL
MODEL 7
REMARK VINA RESULT:      -9.9      3.538      5.449
REMARK  Name = 25052630
REMARK  6 active torsions:
REMARK  status: ('A' for Active; 'I' for Inactive)
REMARK    1  A    between atoms: N_2  and  C_11
REMARK    2  A    between atoms: C_4  and  C_20
REMARK    3  A    between atoms: C_20  and  C_21
REMARK    4  A    between atoms: C_21  and  N_22
REMARK    5  A    between atoms: N_22  and  C_25
REMARK    6  A    between atoms: C_25  and  C_26
REMARK                            x       y       z     vdW  Elec       q    Type
REMARK                         _______ _______ _______ _____ _____    ______ ____
ROOT
ATOM      1  S   UNL     1      29.881 -24.345 -12.654  0.00  0.00    -0.018 S 
ATOM      2  N   UNL     1      31.813 -23.588 -14.534  0.00  0.00    -0.270 N 
ATOM      3  N   UNL     1      29.725 -22.844 -14.926  0.00  0.00    -0.294 N 
ATOM      4  C   UNL     1      31.797 -22.830 -15.703  0.00  0.00    +0.043 C 
ATOM      5  C   UNL     1      30.486 -23.611 -14.013  0.00  0.00    +0.142 C 
ATOM      6  C   UNL     1      30.547 -22.393 -15.924  0.00  0.00    +0.074 C 
ATOM      7  H   UNL     1      28.760 -22.663 -14.855  0.00  0.00    +0.154 HD
ENDROOT
BRANCH   2  11
ATOM      8  F   UNL     1      37.351 -26.569 -13.890  0.00  0.00    -0.201 F 
ATOM      9  F   UNL     1      38.007 -23.171 -10.668  0.00  0.00    -0.204 F 
ATOM     10  O   UNL     1      34.950 -25.579 -14.553  0.00  0.00    -0.472 OA
ATOM     11  C   UNL     1      32.990 -24.215 -13.992  0.00  0.00    +0.127 C 
ATOM     12  C   UNL     1      33.840 -23.215 -13.212  0.00  0.00    +0.054 C 
ATOM     13  C   UNL     1      33.848 -24.839 -15.088  0.00  0.00    +0.226 C 
ATOM     14  C   UNL     1      35.185 -23.804 -12.891  0.00  0.00    +0.018 C 
ATOM     15  C   UNL     1      35.661 -24.929 -13.578  0.00  0.00    +0.162 C 
ATOM     16  C   UNL     1      35.991 -23.209 -11.912  0.00  0.00    +0.029 C 
ATOM     17  C   UNL     1      36.908 -25.473 -13.259  0.00  0.00    +0.176 C 
ATOM     18  C   UNL     1      37.243 -23.747 -11.605  0.00  0.00    +0.142 C 
ATOM     19  C   UNL     1      37.698 -24.880 -12.275  0.00  0.00    +0.062 C 
ENDBRANCH   2  11
BRANCH   4  20
ATOM     20  C   UNL     1      33.009 -22.586 -16.522  0.00  0.00    +0.019 C 
BRANCH  20  21
ATOM     21  C   UNL     1      32.683 -22.570 -18.016  0.00  0.00    -0.075 C 
BRANCH  21  22
ATOM     22  N   UNL     1      32.972 -21.260 -18.588  0.00  0.00    +0.387 N 
ATOM     23  H   UNL     1      32.697 -20.537 -17.922  0.00  0.00    -0.084 HD
ATOM     24  H   UNL     1      32.448 -21.161 -19.457  0.00  0.00    -0.084 HD
BRANCH  22  25
ATOM     25  C   UNL     1      34.392 -21.123 -18.881  0.00  0.00    -0.054 C 
BRANCH  25  26
ATOM     26  C   UNL     1      34.656 -20.021 -19.872  0.00  0.00    -0.044 C 
ATOM     27  C   UNL     1      33.649 -19.615 -20.749  0.00  0.00    -0.006 C 
ATOM     28  C   UNL     1      35.906 -19.405 -19.912  0.00  0.00    -0.006 C 
ATOM     29  C   UNL     1      33.894 -18.594 -21.666  0.00  0.00    -0.000 C 
ATOM     30  C   UNL     1      36.150 -18.382 -20.830  0.00  0.00    -0.000 C 
ATOM     31  C   UNL     1      35.144 -17.977 -21.707  0.00  0.00    -0.000 C 
ENDBRANCH  25  26
ENDBRANCH  22  25
ENDBRANCH  21  22
ENDBRANCH  20  21
ENDBRANCH   4  20
TORSDOF 6
ENDMDL
MODEL 8
REMARK VINA RESULT:      -9.9      3.408      6.763
REMARK  Name = 25052630
REMARK  6 active torsions:
REMARK  status: ('A' for Active; 'I' for Inactive)
REMARK    1  A    between atoms: N_2  and  C_11
REMARK    2  A    between atoms: C_4  and  C_20
REMARK    3  A    between atoms: C_20  and  C_21
REMARK    4  A    between atoms: C_21  and  N_22
REMARK    5  A    between atoms: N_22  and  C_25
REMARK    6  A    between atoms: C_25  and  C_26
REMARK                            x       y       z     vdW  Elec       q    Type
REMARK                         _______ _______ _______ _____ _____    ______ ____
ROOT
ATOM      1  S   UNL     1      28.619 -22.776 -15.710  0.00  0.00    -0.018 S 
ATOM      2  N   UNL     1      31.055 -23.455 -14.508  0.00  0.00    -0.270 N 
ATOM      3  N   UNL     1      29.224 -24.405 -13.608  0.00  0.00    -0.294 N 
ATOM      4  C   UNL     1      31.427 -24.273 -13.443  0.00  0.00    +0.043 C 
ATOM      5  C   UNL     1      29.637 -23.524 -14.634  0.00  0.00    +0.142 C 
ATOM      6  C   UNL     1      30.326 -24.832 -12.916  0.00  0.00    +0.074 C 
ATOM      7  H   UNL     1      28.294 -24.668 -13.420  0.00  0.00    +0.154 HD
ENDROOT
BRANCH   2  11
ATOM      8  F   UNL     1      36.046 -21.651 -17.945  0.00  0.00    -0.201 F 
ATOM      9  F   UNL     1      32.630 -19.839 -20.667  0.00  0.00    -0.204 F 
ATOM     10  O   UNL     1      34.247 -22.683 -16.247  0.00  0.00    -0.472 OA
ATOM     11  C   UNL     1      31.982 -22.696 -15.307  0.00  0.00    +0.127 C 
ATOM     12  C   UNL     1      31.364 -22.303 -16.647  0.00  0.00    +0.054 C 
ATOM     13  C   UNL     1      33.266 -23.475 -15.568  0.00  0.00    +0.226 C 
ATOM     14  C   UNL     1      32.415 -21.760 -17.573  0.00  0.00    +0.018 C 
ATOM     15  C   UNL     1      33.776 -21.987 -17.330  0.00  0.00    +0.162 C 
ATOM     16  C   UNL     1      32.036 -21.038 -18.712  0.00  0.00    +0.029 C 
ATOM     17  C   UNL     1      34.743 -21.465 -18.194  0.00  0.00    +0.176 C 
ATOM     18  C   UNL     1      33.003 -20.528 -19.580  0.00  0.00    +0.142 C 
ATOM     19  C   UNL     1      34.355 -20.737 -19.318  0.00  0.00    +0.062 C 
ENDBRANCH   2  11
BRANCH   4  20
ATOM     20  C   UNL     1      32.836 -24.450 -13.016  0.00  0.00    +0.019 C 
BRANCH  20  21
ATOM     21  C   UNL     1      33.200 -23.501 -11.874  0.00  0.00    -0.075 C 
BRANCH  21  22
ATOM     22  N   UNL     1      34.645 -23.314 -11.805  0.00  0.00    +0.387 N 
ATOM     23  H   UNL     1      34.871 -22.765 -10.975  0.00  0.00    -0.084 HD
ATOM     24  H   UNL     1      34.951 -22.829 -12.647  0.00  0.00    -0.084 HD
BRANCH  22  25
ATOM     25  C   UNL     1      35.330 -24.597 -11.730  0.00  0.00    -0.054 C 
BRANCH  25  26
ATOM     26  C   UNL     1      36.550 -24.633 -12.612  0.00  0.00    -0.044 C 
ATOM     27  C   UNL     1      36.568 -23.912 -13.807  0.00  0.00    -0.006 C 
ATOM     28  C   UNL     1      37.662 -25.384 -12.233  0.00  0.00    -0.006 C 
ATOM     29  C   UNL     1      37.698 -23.945 -14.623  0.00  0.00    -0.000 C 
ATOM     30  C   UNL     1      38.792 -25.416 -13.051  0.00  0.00    -0.000 C 
ATOM     31  C   UNL     1      38.810 -24.697 -14.246  0.00  0.00    -0.000 C 
ENDBRANCH  25  26
ENDBRANCH  22  25
ENDBRANCH  21  22
ENDBRANCH  20  21
ENDBRANCH   4  20
TORSDOF 6
ENDMDL
MODEL 9
REMARK VINA RESULT:      -9.8      1.648      2.816
REMARK  Name = 25052630
REMARK  6 active torsions:
REMARK  status: ('A' for Active; 'I' for Inactive)
REMARK    1  A    between atoms: N_2  and  C_11
REMARK    2  A    between atoms: C_4  and  C_20
REMARK    3  A    between atoms: C_20  and  C_21
REMARK    4  A    between atoms: C_21  and  N_22
REMARK    5  A    between atoms: N_22  and  C_25
REMARK    6  A    between atoms: C_25  and  C_26
REMARK                            x       y       z     vdW  Elec       q    Type
REMARK                         _______ _______ _______ _____ _____    ______ ____
ROOT
ATOM      1  S   UNL     1      35.883 -24.924 -13.276  0.00  0.00    -0.018 S 
ATOM      2  N   UNL     1      35.419 -22.785 -15.022  0.00  0.00    -0.270 N 
ATOM      3  N   UNL     1      37.557 -23.471 -14.865  0.00  0.00    -0.294 N 
ATOM      4  C   UNL     1      36.223 -22.008 -15.854  0.00  0.00    +0.043 C 
ATOM      5  C   UNL     1      36.258 -23.737 -14.373  0.00  0.00    +0.142 C 
ATOM      6  C   UNL     1      37.494 -22.428 -15.750  0.00  0.00    +0.074 C 
ATOM      7  H   UNL     1      38.375 -23.957 -14.612  0.00  0.00    +0.154 HD
ENDROOT
BRANCH   2  11
ATOM      8  F   UNL     1      29.185 -22.666 -16.072  0.00  0.00    -0.201 F 
ATOM      9  F   UNL     1      29.127 -24.499 -11.713  0.00  0.00    -0.204 F 
ATOM     10  O   UNL     1      31.865 -22.617 -16.095  0.00  0.00    -0.472 OA
ATOM     11  C   UNL     1      33.997 -22.613 -14.881  0.00  0.00    +0.127 C 
ATOM     12  C   UNL     1      33.437 -23.515 -13.784  0.00  0.00    +0.054 C 
ATOM     13  C   UNL     1      33.263 -22.912 -16.184  0.00  0.00    +0.226 C 
ATOM     14  C   UNL     1      31.935 -23.534 -13.832  0.00  0.00    +0.018 C 
ATOM     15  C   UNL     1      31.246 -23.100 -14.972  0.00  0.00    +0.162 C 
ATOM     16  C   UNL     1      31.208 -24.015 -12.735  0.00  0.00    +0.029 C 
ATOM     17  C   UNL     1      29.848 -23.112 -14.996  0.00  0.00    +0.176 C 
ATOM     18  C   UNL     1      29.813 -24.037 -12.767  0.00  0.00    +0.142 C 
ATOM     19  C   UNL     1      29.134 -23.582 -13.895  0.00  0.00    +0.062 C 
ENDBRANCH   2  11
BRANCH   4  20
ATOM     20  C   UNL     1      35.689 -20.908 -16.693  0.00  0.00    +0.019 C 
BRANCH  20  21
ATOM     21  C   UNL     1      35.694 -21.280 -18.176  0.00  0.00    -0.075 C 
BRANCH  21  22
ATOM     22  N   UNL     1      35.526 -20.090 -19.002  0.00  0.00    +0.387 N 
ATOM     23  H   UNL     1      36.351 -19.972 -19.589  0.00  0.00    -0.084 HD
ATOM     24  H   UNL     1      35.405 -19.283 -18.391  0.00  0.00    -0.084 HD
BRANCH  22  25
ATOM     25  C   UNL     1      34.349 -20.211 -19.852  0.00  0.00    -0.054 C 
BRANCH  25  26
ATOM     26  C   UNL     1      34.260 -19.087 -20.850  0.00  0.00    -0.044 C 
ATOM     27  C   UNL     1      34.654 -17.798 -20.486  0.00  0.00    -0.006 C 
ATOM     28  C   UNL     1      33.787 -19.335 -22.138  0.00  0.00    -0.006 C 
ATOM     29  C   UNL     1      34.572 -16.758 -21.411  0.00  0.00    -0.000 C 
ATOM     30  C   UNL     1      33.706 -18.292 -23.063  0.00  0.00    -0.000 C 
ATOM     31  C   UNL     1      34.098 -17.005 -22.699  0.00  0.00    -0.000 C 
ENDBRANCH  25  26
ENDBRANCH  22  25
ENDBRANCH  21  22
ENDBRANCH  20  21
ENDBRANCH   4  20
TORSDOF 6
ENDMDL
