MODEL 1
REMARK VINA RESULT:     -12.3      0.000      0.000
REMARK  Name = 198752
REMARK  6 active torsions:
REMARK  status: ('A' for Active; 'I' for Inactive)
REMARK    1  A    between atoms: C_1  and  C_3
REMARK    2  A    between atoms: C_1  and  C_16
REMARK    3  A    between atoms: N_2  and  C_9
REMARK    4  A    between atoms: C_9  and  C_10
REMARK    5  A    between atoms: C_16  and  C_18
REMARK    6  A    between atoms: C_18  and  C_20
REMARK                            x       y       z     vdW  Elec       q    Type
REMARK                         _______ _______ _______ _____ _____    ______ ____
ROOT
ATOM      1  C   UNL     1      35.311 -21.127 -18.386  0.00  0.00    +0.008 C 
ENDROOT
BRANCH   1   3
ATOM      2  N   UNL     1      34.466 -18.029 -21.275  0.00  0.00    +0.390 N 
ATOM      3  C   UNL     1      35.130 -20.432 -19.733  0.00  0.00    -0.004 C 
ATOM      4  C   UNL     1      36.100 -19.255 -19.880  0.00  0.00    -0.023 C 
ATOM      5  C   UNL     1      33.690 -19.941 -19.910  0.00  0.00    -0.023 C 
ATOM      6  C   UNL     1      35.857 -18.493 -21.184  0.00  0.00    -0.077 C 
ATOM      7  C   UNL     1      33.526 -19.156 -21.213  0.00  0.00    -0.077 C 
ATOM      8  H   UNL     1      34.284 -17.423 -20.475  0.00  0.00    -0.079 HD
BRANCH   2   9
ATOM      9  C   UNL     1      34.262 -17.258 -22.501  0.00  0.00    -0.050 C 
BRANCH   9  10
ATOM     10  C   UNL     1      33.906 -15.825 -22.210  0.00  0.00    -0.043 C 
ATOM     11  C   UNL     1      33.822 -15.396 -20.892  0.00  0.00    -0.006 C 
ATOM     12  C   UNL     1      33.668 -14.951 -23.262  0.00  0.00    -0.006 C 
ATOM     13  C   UNL     1      33.491 -14.068 -20.622  0.00  0.00    -0.000 C 
ATOM     14  C   UNL     1      33.339 -13.623 -22.992  0.00  0.00    -0.000 C 
ATOM     15  C   UNL     1      33.250 -13.182 -21.671  0.00  0.00    -0.000 C 
ENDBRANCH   9  10
ENDBRANCH   2   9
ENDBRANCH   1   3
BRANCH   1  16
ATOM     16  C   UNL     1      33.991 -21.699 -17.868  0.00  0.00    +0.069 C 
BRANCH  16  18
ATOM     17  O   UNL     1      35.247 -22.591 -16.013  0.00  0.00    -0.291 OA
ATOM     18  C   UNL     1      34.113 -22.367 -16.486  0.00  0.00    +0.173 C 
BRANCH  18  20
ATOM     19  N   UNL     1      29.265 -22.471 -16.211  0.00  0.00    -0.333 N 
ATOM     20  C   UNL     1      32.914 -22.728 -15.746  0.00  0.00    +0.036 C 
ATOM     21  C   UNL     1      30.581 -23.432 -14.341  0.00  0.00    -0.009 C 
ATOM     22  C   UNL     1      29.394 -23.900 -13.522  0.00  0.00    +0.028 C 
ATOM     23  C   UNL     1      30.467 -22.810 -15.604  0.00  0.00    +0.041 C 
ATOM     24  C   UNL     1      28.309 -24.582 -14.356  0.00  0.00    +0.006 C 
ATOM     25  C   UNL     1      27.390 -23.615 -15.100  0.00  0.00    +0.022 C 
ATOM     26  C   UNL     1      31.654 -22.484 -16.293  0.00  0.00    +0.017 C 
ATOM     27  C   UNL     1      28.028 -22.288 -15.485  0.00  0.00    +0.087 C 
ATOM     28  C   UNL     1      33.018 -23.306 -14.491  0.00  0.00    +0.003 C 
ATOM     29  C   UNL     1      31.863 -23.653 -13.794  0.00  0.00    -0.003 C 
ATOM     30  H   UNL     1      29.254 -22.348 -17.188  0.00  0.00    +0.147 HD
ENDBRANCH  18  20
ENDBRANCH  16  18
ENDBRANCH   1  16
TORSDOF 6
ENDMDL
MODEL 2
REMARK VINA RESULT:     -11.8      1.494      1.911
REMARK  Name = 198752
REMARK  6 active torsions:
REMARK  status: ('A' for Active; 'I' for Inactive)
REMARK    1  A    between atoms: C_1  and  C_3
REMARK    2  A    between atoms: C_1  and  C_16
REMARK    3  A    between atoms: N_2  and  C_9
REMARK    4  A    between atoms: C_9  and  C_10
REMARK    5  A    between atoms: C_16  and  C_18
REMARK    6  A    between atoms: C_18  and  C_20
REMARK                            x       y       z     vdW  Elec       q    Type
REMARK                         _______ _______ _______ _____ _____    ______ ____
ROOT
ATOM      1  C   UNL     1      34.922 -20.488 -19.007  0.00  0.00    +0.008 C 
ENDROOT
BRANCH   1   3
ATOM      2  N   UNL     1      34.276 -17.602 -22.154  0.00  0.00    +0.390 N 
ATOM      3  C   UNL     1      34.864 -19.880 -20.405  0.00  0.00    -0.004 C 
ATOM      4  C   UNL     1      35.794 -18.667 -20.517  0.00  0.00    -0.023 C 
ATOM      5  C   UNL     1      33.433 -19.470 -20.768  0.00  0.00    -0.023 C 
ATOM      6  C   UNL     1      35.666 -17.992 -21.884  0.00  0.00    -0.077 C 
ATOM      7  C   UNL     1      33.383 -18.768 -22.127  0.00  0.00    -0.077 C 
ATOM      8  H   UNL     1      33.979 -16.962 -21.418  0.00  0.00    -0.079 HD
BRANCH   2   9
ATOM      9  C   UNL     1      34.177 -16.912 -23.441  0.00  0.00    -0.050 C 
BRANCH   9  10
ATOM     10  C   UNL     1      33.652 -15.510 -23.286  0.00  0.00    -0.043 C 
ATOM     11  C   UNL     1      33.852 -14.834 -22.090  0.00  0.00    -0.006 C 
ATOM     12  C   UNL     1      32.977 -14.911 -24.341  0.00  0.00    -0.006 C 
ATOM     13  C   UNL     1      33.365 -13.534 -21.947  0.00  0.00    -0.000 C 
ATOM     14  C   UNL     1      32.491 -13.612 -24.198  0.00  0.00    -0.000 C 
ATOM     15  C   UNL     1      32.685 -12.924 -23.000  0.00  0.00    -0.000 C 
ENDBRANCH   9  10
ENDBRANCH   2   9
ENDBRANCH   1   3
BRANCH   1  16
ATOM     16  C   UNL     1      34.361 -21.910 -18.990  0.00  0.00    +0.069 C 
BRANCH  16  18
ATOM     17  O   UNL     1      31.963 -21.713 -19.136  0.00  0.00    -0.291 OA
ATOM     18  C   UNL     1      32.937 -22.001 -18.410  0.00  0.00    +0.173 C 
BRANCH  18  20
ATOM     19  N   UNL     1      29.894 -23.124 -14.796  0.00  0.00    -0.333 N 
ATOM     20  C   UNL     1      32.740 -22.418 -17.032  0.00  0.00    +0.036 C 
ATOM     21  C   UNL     1      32.335 -23.240 -14.372  0.00  0.00    -0.009 C 
ATOM     22  C   UNL     1      32.234 -23.734 -12.942  0.00  0.00    +0.028 C 
ATOM     23  C   UNL     1      31.216 -23.011 -15.203  0.00  0.00    +0.041 C 
ATOM     24  C   UNL     1      31.194 -24.837 -12.749  0.00  0.00    +0.006 C 
ATOM     25  C   UNL     1      29.755 -24.332 -12.656  0.00  0.00    +0.022 C 
ATOM     26  C   UNL     1      31.450 -22.617 -16.538  0.00  0.00    +0.017 C 
ATOM     27  C   UNL     1      29.474 -23.043 -13.415  0.00  0.00    +0.087 C 
ATOM     28  C   UNL     1      33.831 -22.609 -16.199  0.00  0.00    +0.003 C 
ATOM     29  C   UNL     1      33.631 -23.014 -14.881  0.00  0.00    -0.003 C 
ATOM     30  H   UNL     1      29.204 -23.266 -15.484  0.00  0.00    +0.147 HD
ENDBRANCH  18  20
ENDBRANCH  16  18
ENDBRANCH   1  16
TORSDOF 6
ENDMDL
MODEL 3
REMARK VINA RESULT:     -11.8      4.855     12.286
REMARK  Name = 198752
REMARK  6 active torsions:
REMARK  status: ('A' for Active; 'I' for Inactive)
REMARK    1  A    between atoms: C_1  and  C_3
REMARK    2  A    between atoms: C_1  and  C_16
REMARK    3  A    between atoms: N_2  and  C_9
REMARK    4  A    between atoms: C_9  and  C_10
REMARK    5  A    between atoms: C_16  and  C_18
REMARK    6  A    between atoms: C_18  and  C_20
REMARK                            x       y       z     vdW  Elec       q    Type
REMARK                         _______ _______ _______ _____ _____    ______ ____
ROOT
ATOM      1  C   UNL     1      33.067 -14.312 -23.424  0.00  0.00    +0.008 C 
ENDROOT
BRANCH   1   3
ATOM      2  N   UNL     1      34.310 -17.922 -21.405  0.00  0.00    +0.390 N 
ATOM      3  C   UNL     1      33.979 -15.382 -22.831  0.00  0.00    -0.004 C 
ATOM      4  C   UNL     1      33.746 -16.739 -23.503  0.00  0.00    -0.023 C 
ATOM      5  C   UNL     1      33.766 -15.510 -21.318  0.00  0.00    -0.023 C 
ATOM      6  C   UNL     1      34.584 -17.837 -22.845  0.00  0.00    -0.077 C 
ATOM      7  C   UNL     1      34.604 -16.649 -20.733  0.00  0.00    -0.077 C 
ATOM      8  H   UNL     1      33.317 -18.119 -21.284  0.00  0.00    -0.079 HD
BRANCH   2   9
ATOM      9  C   UNL     1      35.079 -19.009 -20.799  0.00  0.00    -0.050 C 
BRANCH   9  10
ATOM     10  C   UNL     1      34.211 -19.915 -19.969  0.00  0.00    -0.043 C 
ATOM     11  C   UNL     1      32.830 -19.799 -20.048  0.00  0.00    -0.006 C 
ATOM     12  C   UNL     1      34.802 -20.855 -19.135  0.00  0.00    -0.006 C 
ATOM     13  C   UNL     1      32.025 -20.639 -19.278  0.00  0.00    -0.000 C 
ATOM     14  C   UNL     1      33.997 -21.695 -18.366  0.00  0.00    -0.000 C 
ATOM     15  C   UNL     1      32.608 -21.586 -18.437  0.00  0.00    -0.000 C 
ENDBRANCH   9  10
ENDBRANCH   2   9
ENDBRANCH   1   3
BRANCH   1  16
ATOM     16  C   UNL     1      33.432 -12.918 -22.915  0.00  0.00    +0.069 C 
BRANCH  16  18
ATOM     17  O   UNL     1      33.087 -12.109 -25.159  0.00  0.00    -0.291 OA
ATOM     18  C   UNL     1      33.199 -11.804 -23.953  0.00  0.00    +0.173 C 
BRANCH  18  20
ATOM     19  N   UNL     1      30.605  -8.224 -21.944  0.00  0.00    -0.333 N 
ATOM     20  C   UNL     1      33.112 -10.418 -23.524  0.00  0.00    +0.036 C 
ATOM     21  C   UNL     1      32.927  -7.743 -22.672  0.00  0.00    -0.009 C 
ATOM     22  C   UNL     1      32.955  -6.301 -22.205  0.00  0.00    +0.028 C 
ATOM     23  C   UNL     1      31.823  -8.606 -22.489  0.00  0.00    +0.041 C 
ATOM     24  C   UNL     1      32.344  -6.097 -20.818  0.00  0.00    +0.006 C 
ATOM     25  C   UNL     1      30.817  -6.050 -20.808  0.00  0.00    +0.022 C 
ATOM     26  C   UNL     1      31.951  -9.946 -22.910  0.00  0.00    +0.017 C 
ATOM     27  C   UNL     1      30.140  -6.855 -21.908  0.00  0.00    +0.087 C 
ATOM     28  C   UNL     1      34.177  -9.557 -23.733  0.00  0.00    +0.003 C 
ATOM     29  C   UNL     1      34.086  -8.232 -23.313  0.00  0.00    -0.003 C 
ATOM     30  H   UNL     1      30.026  -8.922 -21.561  0.00  0.00    +0.147 HD
ENDBRANCH  18  20
ENDBRANCH  16  18
ENDBRANCH   1  16
TORSDOF 6
ENDMDL
MODEL 4
REMARK VINA RESULT:     -11.5      2.950      4.803
REMARK  Name = 198752
REMARK  6 active torsions:
REMARK  status: ('A' for Active; 'I' for Inactive)
REMARK    1  A    between atoms: C_1  and  C_3
REMARK    2  A    between atoms: C_1  and  C_16
REMARK    3  A    between atoms: N_2  and  C_9
REMARK    4  A    between atoms: C_9  and  C_10
REMARK    5  A    between atoms: C_16  and  C_18
REMARK    6  A    between atoms: C_18  and  C_20
REMARK                            x       y       z     vdW  Elec       q    Type
REMARK                         _______ _______ _______ _____ _____    ______ ____
ROOT
ATOM      1  C   UNL     1      31.830 -21.983 -17.565  0.00  0.00    +0.008 C 
ENDROOT
BRANCH   1   3
ATOM      2  N   UNL     1      34.309 -19.425 -20.008  0.00  0.00    +0.390 N 
ATOM      3  C   UNL     1      32.680 -21.507 -18.739  0.00  0.00    -0.004 C 
ATOM      4  C   UNL     1      34.112 -21.195 -18.291  0.00  0.00    -0.023 C 
ATOM      5  C   UNL     1      32.064 -20.269 -19.400  0.00  0.00    -0.023 C 
ATOM      6  C   UNL     1      34.943 -20.623 -19.441  0.00  0.00    -0.077 C 
ATOM      7  C   UNL     1      32.963 -19.728 -20.513  0.00  0.00    -0.077 C 
ATOM      8  H   UNL     1      34.218 -18.735 -19.263  0.00  0.00    -0.079 HD
BRANCH   2   9
ATOM      9  C   UNL     1      35.140 -18.860 -21.071  0.00  0.00    -0.050 C 
BRANCH   9  10
ATOM     10  C   UNL     1      34.609 -17.536 -21.553  0.00  0.00    -0.043 C 
ATOM     11  C   UNL     1      34.394 -17.340 -22.910  0.00  0.00    -0.006 C 
ATOM     12  C   UNL     1      34.341 -16.531 -20.635  0.00  0.00    -0.006 C 
ATOM     13  C   UNL     1      33.902 -16.113 -23.357  0.00  0.00    -0.000 C 
ATOM     14  C   UNL     1      33.849 -15.305 -21.081  0.00  0.00    -0.000 C 
ATOM     15  C   UNL     1      33.630 -15.096 -22.443  0.00  0.00    -0.000 C 
ENDBRANCH   9  10
ENDBRANCH   2   9
ENDBRANCH   1   3
BRANCH   1  16
ATOM     16  C   UNL     1      32.526 -23.097 -16.783  0.00  0.00    +0.069 C 
BRANCH  16  18
ATOM     17  O   UNL     1      31.091 -22.657 -14.897  0.00  0.00    -0.291 OA
ATOM     18  C   UNL     1      32.199 -23.086 -15.278  0.00  0.00    +0.173 C 
BRANCH  18  20
ATOM     19  N   UNL     1      36.630 -24.870 -14.395  0.00  0.00    -0.333 N 
ATOM     20  C   UNL     1      33.179 -23.571 -14.320  0.00  0.00    +0.036 C 
ATOM     21  C   UNL     1      35.096 -24.501 -12.481  0.00  0.00    -0.009 C 
ATOM     22  C   UNL     1      36.067 -24.934 -11.401  0.00  0.00    +0.028 C 
ATOM     23  C   UNL     1      35.421 -24.451 -13.855  0.00  0.00    +0.041 C 
ATOM     24  C   UNL     1      37.479 -24.381 -11.593  0.00  0.00    +0.006 C 
ATOM     25  C   UNL     1      38.315 -25.142 -12.622  0.00  0.00    +0.022 C 
ATOM     26  C   UNL     1      34.447 -23.964 -14.751  0.00  0.00    +0.017 C 
ATOM     27  C   UNL     1      37.518 -25.802 -13.737  0.00  0.00    +0.087 C 
ATOM     28  C   UNL     1      32.854 -23.658 -12.975  0.00  0.00    +0.003 C 
ATOM     29  C   UNL     1      33.802 -24.120 -12.065  0.00  0.00    -0.003 C 
ATOM     30  H   UNL     1      36.896 -24.514 -15.274  0.00  0.00    +0.147 HD
ENDBRANCH  18  20
ENDBRANCH  16  18
ENDBRANCH   1  16
TORSDOF 6
ENDMDL
MODEL 5
REMARK VINA RESULT:     -11.4      2.325      3.757
REMARK  Name = 198752
REMARK  6 active torsions:
REMARK  status: ('A' for Active; 'I' for Inactive)
REMARK    1  A    between atoms: C_1  and  C_3
REMARK    2  A    between atoms: C_1  and  C_16
REMARK    3  A    between atoms: N_2  and  C_9
REMARK    4  A    between atoms: C_9  and  C_10
REMARK    5  A    between atoms: C_16  and  C_18
REMARK    6  A    between atoms: C_18  and  C_20
REMARK                            x       y       z     vdW  Elec       q    Type
REMARK                         _______ _______ _______ _____ _____    ______ ____
ROOT
ATOM      1  C   UNL     1      34.762 -20.888 -18.696  0.00  0.00    +0.008 C 
ENDROOT
BRANCH   1   3
ATOM      2  N   UNL     1      34.320 -17.747 -21.628  0.00  0.00    +0.390 N 
ATOM      3  C   UNL     1      34.769 -20.173 -20.044  0.00  0.00    -0.004 C 
ATOM      4  C   UNL     1      35.747 -18.993 -20.037  0.00  0.00    -0.023 C 
ATOM      5  C   UNL     1      33.366 -19.681 -20.414  0.00  0.00    -0.023 C 
ATOM      6  C   UNL     1      35.686 -18.212 -21.351  0.00  0.00    -0.077 C 
ATOM      7  C   UNL     1      33.384 -18.876 -21.715  0.00  0.00    -0.077 C 
ATOM      8  H   UNL     1      34.025 -17.154 -20.853  0.00  0.00    -0.079 HD
BRANCH   2   9
ATOM      9  C   UNL     1      34.286 -16.959 -22.860  0.00  0.00    -0.050 C 
BRANCH   9  10
ATOM     10  C   UNL     1      33.720 -15.583 -22.629  0.00  0.00    -0.043 C 
ATOM     11  C   UNL     1      33.162 -14.887 -23.693  0.00  0.00    -0.006 C 
ATOM     12  C   UNL     1      33.762 -15.030 -21.357  0.00  0.00    -0.006 C 
ATOM     13  C   UNL     1      32.638 -13.612 -23.480  0.00  0.00    -0.000 C 
ATOM     14  C   UNL     1      33.237 -13.756 -21.144  0.00  0.00    -0.000 C 
ATOM     15  C   UNL     1      32.675 -13.046 -22.206  0.00  0.00    -0.000 C 
ENDBRANCH   9  10
ENDBRANCH   2   9
ENDBRANCH   1   3
BRANCH   1  16
ATOM     16  C   UNL     1      33.878 -22.134 -18.726  0.00  0.00    +0.069 C 
BRANCH  16  18
ATOM     17  O   UNL     1      31.646 -21.730 -17.909  0.00  0.00    -0.291 OA
ATOM     18  C   UNL     1      32.792 -22.142 -17.634  0.00  0.00    +0.173 C 
BRANCH  18  20
ATOM     19  N   UNL     1      36.140 -23.317 -14.317  0.00  0.00    -0.333 N 
ATOM     20  C   UNL     1      33.108 -22.626 -16.300  0.00  0.00    +0.036 C 
ATOM     21  C   UNL     1      33.743 -23.545 -13.718  0.00  0.00    -0.009 C 
ATOM     22  C   UNL     1      33.970 -24.001 -12.290  0.00  0.00    +0.028 C 
ATOM     23  C   UNL     1      34.787 -23.201 -14.606  0.00  0.00    +0.041 C 
ATOM     24  C   UNL     1      35.049 -23.203 -11.558  0.00  0.00    +0.006 C 
ATOM     25  C   UNL     1      36.478 -23.625 -11.899  0.00  0.00    +0.022 C 
ATOM     26  C   UNL     1      34.438 -22.726 -15.888  0.00  0.00    +0.017 C 
ATOM     27  C   UNL     1      36.665 -24.196 -13.296  0.00  0.00    +0.087 C 
ATOM     28  C   UNL     1      32.091 -23.001 -15.436  0.00  0.00    +0.003 C 
ATOM     29  C   UNL     1      32.405 -23.457 -14.158  0.00  0.00    -0.003 C 
ATOM     30  H   UNL     1      36.776 -22.773 -14.836  0.00  0.00    +0.147 HD
ENDBRANCH  18  20
ENDBRANCH  16  18
ENDBRANCH   1  16
TORSDOF 6
ENDMDL
MODEL 6
REMARK VINA RESULT:     -11.1      3.906      7.637
REMARK  Name = 198752
REMARK  6 active torsions:
REMARK  status: ('A' for Active; 'I' for Inactive)
REMARK    1  A    between atoms: C_1  and  C_3
REMARK    2  A    between atoms: C_1  and  C_16
REMARK    3  A    between atoms: N_2  and  C_9
REMARK    4  A    between atoms: C_9  and  C_10
REMARK    5  A    between atoms: C_16  and  C_18
REMARK    6  A    between atoms: C_18  and  C_20
REMARK                            x       y       z     vdW  Elec       q    Type
REMARK                         _______ _______ _______ _____ _____    ______ ____
ROOT
ATOM      1  C   UNL     1      33.916 -15.007 -21.631  0.00  0.00    +0.008 C 
ENDROOT
BRANCH   1   3
ATOM      2  N   UNL     1      31.519 -11.530 -20.726  0.00  0.00    +0.390 N 
ATOM      3  C   UNL     1      32.711 -14.074 -21.565  0.00  0.00    -0.004 C 
ATOM      4  C   UNL     1      32.997 -12.753 -22.288  0.00  0.00    -0.023 C 
ATOM      5  C   UNL     1      32.310 -13.793 -20.113  0.00  0.00    -0.023 C 
ATOM      6  C   UNL     1      31.830 -11.774 -22.140  0.00  0.00    -0.077 C 
ATOM      7  C   UNL     1      31.167 -12.779 -20.038  0.00  0.00    -0.077 C 
ATOM      8  H   UNL     1      32.354 -11.150 -20.281  0.00  0.00    -0.079 HD
BRANCH   2   9
ATOM      9  C   UNL     1      30.437 -10.553 -20.600  0.00  0.00    -0.050 C 
BRANCH   9  10
ATOM     10  C   UNL     1      30.952  -9.139 -20.624  0.00  0.00    -0.043 C 
ATOM     11  C   UNL     1      30.906  -8.416 -21.808  0.00  0.00    -0.006 C 
ATOM     12  C   UNL     1      31.465  -8.577 -19.464  0.00  0.00    -0.006 C 
ATOM     13  C   UNL     1      31.384  -7.106 -21.831  0.00  0.00    -0.000 C 
ATOM     14  C   UNL     1      31.943  -7.268 -19.486  0.00  0.00    -0.000 C 
ATOM     15  C   UNL     1      31.902  -6.532 -20.671  0.00  0.00    -0.000 C 
ENDBRANCH   9  10
ENDBRANCH   2   9
ENDBRANCH   1   3
BRANCH   1  16
ATOM     16  C   UNL     1      34.200 -15.456 -23.065  0.00  0.00    +0.069 C 
BRANCH  16  18
ATOM     17  O   UNL     1      33.756 -17.422 -24.388  0.00  0.00    -0.291 OA
ATOM     18  C   UNL     1      34.078 -16.978 -23.266  0.00  0.00    +0.173 C 
BRANCH  18  20
ATOM     19  N   UNL     1      32.405 -20.226 -20.065  0.00  0.00    -0.333 N 
ATOM     20  C   UNL     1      34.336 -17.880 -22.155  0.00  0.00    +0.036 C 
ATOM     21  C   UNL     1      34.815 -19.643 -20.015  0.00  0.00    -0.009 C 
ATOM     22  C   UNL     1      35.196 -20.596 -18.899  0.00  0.00    +0.028 C 
ATOM     23  C   UNL     1      33.511 -19.539 -20.547  0.00  0.00    +0.041 C 
ATOM     24  C   UNL     1      34.568 -21.982 -19.041  0.00  0.00    +0.006 C 
ATOM     25  C   UNL     1      33.112 -22.059 -18.583  0.00  0.00    +0.022 C 
ATOM     26  C   UNL     1      33.304 -18.660 -21.632  0.00  0.00    +0.017 C 
ATOM     27  C   UNL     1      32.322 -20.767 -18.726  0.00  0.00    +0.087 C 
ATOM     28  C   UNL     1      35.605 -17.960 -21.603  0.00  0.00    +0.003 C 
ATOM     29  C   UNL     1      35.842 -18.831 -20.543  0.00  0.00    -0.003 C 
ATOM     30  H   UNL     1      31.634 -20.350 -20.665  0.00  0.00    +0.147 HD
ENDBRANCH  18  20
ENDBRANCH  16  18
ENDBRANCH   1  16
TORSDOF 6
ENDMDL
MODEL 7
REMARK VINA RESULT:     -11.1      2.815     10.437
REMARK  Name = 198752
REMARK  6 active torsions:
REMARK  status: ('A' for Active; 'I' for Inactive)
REMARK    1  A    between atoms: C_1  and  C_3
REMARK    2  A    between atoms: C_1  and  C_16
REMARK    3  A    between atoms: N_2  and  C_9
REMARK    4  A    between atoms: C_9  and  C_10
REMARK    5  A    between atoms: C_16  and  C_18
REMARK    6  A    between atoms: C_18  and  C_20
REMARK                            x       y       z     vdW  Elec       q    Type
REMARK                         _______ _______ _______ _____ _____    ______ ____
ROOT
ATOM      1  C   UNL     1      35.176 -21.041 -19.249  0.00  0.00    +0.008 C 
ENDROOT
BRANCH   1   3
ATOM      2  N   UNL     1      34.166 -23.096 -15.587  0.00  0.00    +0.390 N 
ATOM      3  C   UNL     1      34.636 -21.283 -17.843  0.00  0.00    -0.004 C 
ATOM      4  C   UNL     1      35.755 -21.718 -16.891  0.00  0.00    -0.023 C 
ATOM      5  C   UNL     1      33.526 -22.339 -17.854  0.00  0.00    -0.023 C 
ATOM      6  C   UNL     1      35.204 -22.060 -15.505  0.00  0.00    -0.077 C 
ATOM      7  C   UNL     1      33.049 -22.660 -16.436  0.00  0.00    -0.077 C 
ATOM      8  H   UNL     1      34.581 -23.924 -16.014  0.00  0.00    -0.079 HD
BRANCH   2   9
ATOM      9  C   UNL     1      33.686 -23.449 -14.251  0.00  0.00    -0.050 C 
BRANCH   9  10
ATOM     10  C   UNL     1      34.664 -24.328 -13.518  0.00  0.00    -0.043 C 
ATOM     11  C   UNL     1      34.945 -24.071 -12.183  0.00  0.00    -0.006 C 
ATOM     12  C   UNL     1      35.271 -25.382 -14.186  0.00  0.00    -0.006 C 
ATOM     13  C   UNL     1      35.852 -24.885 -11.504  0.00  0.00    -0.000 C 
ATOM     14  C   UNL     1      36.176 -26.196 -13.507  0.00  0.00    -0.000 C 
ATOM     15  C   UNL     1      36.468 -25.947 -12.165  0.00  0.00    -0.000 C 
ENDBRANCH   9  10
ENDBRANCH   2   9
ENDBRANCH   1   3
BRANCH   1  16
ATOM     16  C   UNL     1      34.392 -19.944 -19.971  0.00  0.00    +0.069 C 
BRANCH  16  18
ATOM     17  O   UNL     1      36.507 -18.829 -20.279  0.00  0.00    -0.291 OA
ATOM     18  C   UNL     1      35.282 -18.813 -20.520  0.00  0.00    +0.173 C 
BRANCH  18  20
ATOM     19  N   UNL     1      33.352 -14.361 -20.713  0.00  0.00    -0.333 N 
ATOM     20  C   UNL     1      34.693 -17.744 -21.309  0.00  0.00    +0.036 C 
ATOM     21  C   UNL     1      33.564 -15.655 -22.818  0.00  0.00    -0.009 C 
ATOM     22  C   UNL     1      33.015 -14.579 -23.734  0.00  0.00    +0.028 C 
ATOM     23  C   UNL     1      33.738 -15.488 -21.426  0.00  0.00    +0.041 C 
ATOM     24  C   UNL     1      33.561 -13.183 -23.430  0.00  0.00    +0.006 C 
ATOM     25  C   UNL     1      32.887 -12.492 -22.246  0.00  0.00    +0.022 C 
ATOM     26  C   UNL     1      34.323 -16.545 -20.698  0.00  0.00    +0.017 C 
ATOM     27  C   UNL     1      32.348 -13.428 -21.175  0.00  0.00    +0.087 C 
ATOM     28  C   UNL     1      34.485 -17.915 -22.668  0.00  0.00    +0.003 C 
ATOM     29  C   UNL     1      33.925 -16.882 -23.416  0.00  0.00    -0.003 C 
ATOM     30  H   UNL     1      33.785 -14.187 -19.846  0.00  0.00    +0.147 HD
ENDBRANCH  18  20
ENDBRANCH  16  18
ENDBRANCH   1  16
TORSDOF 6
ENDMDL
MODEL 8
REMARK VINA RESULT:     -10.9      7.079     12.952
REMARK  Name = 198752
REMARK  6 active torsions:
REMARK  status: ('A' for Active; 'I' for Inactive)
REMARK    1  A    between atoms: C_1  and  C_3
REMARK    2  A    between atoms: C_1  and  C_16
REMARK    3  A    between atoms: N_2  and  C_9
REMARK    4  A    between atoms: C_9  and  C_10
REMARK    5  A    between atoms: C_16  and  C_18
REMARK    6  A    between atoms: C_18  and  C_20
REMARK                            x       y       z     vdW  Elec       q    Type
REMARK                         _______ _______ _______ _____ _____    ______ ____
ROOT
ATOM      1  C   UNL     1      30.759 -11.946 -19.531  0.00  0.00    +0.008 C 
ENDROOT
BRANCH   1   3
ATOM      2  N   UNL     1      33.132 -14.453 -22.126  0.00  0.00    +0.390 N 
ATOM      3  C   UNL     1      31.962 -12.476 -20.305  0.00  0.00    -0.004 C 
ATOM      4  C   UNL     1      31.695 -12.464 -21.814  0.00  0.00    -0.023 C 
ATOM      5  C   UNL     1      32.326 -13.895 -19.855  0.00  0.00    -0.023 C 
ATOM      6  C   UNL     1      32.857 -13.087 -22.590  0.00  0.00    -0.077 C 
ATOM      7  C   UNL     1      33.467 -14.470 -20.696  0.00  0.00    -0.077 C 
ATOM      8  H   UNL     1      32.286 -15.006 -22.258  0.00  0.00    -0.079 HD
BRANCH   2   9
ATOM      9  C   UNL     1      34.211 -15.054 -22.911  0.00  0.00    -0.050 C 
BRANCH   9  10
ATOM     10  C   UNL     1      34.137 -16.557 -22.906  0.00  0.00    -0.043 C 
ATOM     11  C   UNL     1      34.783 -17.269 -21.905  0.00  0.00    -0.006 C 
ATOM     12  C   UNL     1      33.424 -17.211 -23.902  0.00  0.00    -0.006 C 
ATOM     13  C   UNL     1      34.715 -18.663 -21.901  0.00  0.00    -0.000 C 
ATOM     14  C   UNL     1      33.355 -18.603 -23.897  0.00  0.00    -0.000 C 
ATOM     15  C   UNL     1      34.002 -19.330 -22.897  0.00  0.00    -0.000 C 
ENDBRANCH   9  10
ENDBRANCH   2   9
ENDBRANCH   1   3
BRANCH   1  16
ATOM     16  C   UNL     1      30.114 -10.756 -20.242  0.00  0.00    +0.069 C 
BRANCH  16  18
ATOM     17  O   UNL     1      30.367  -9.121 -18.489  0.00  0.00    -0.291 OA
ATOM     18  C   UNL     1      30.568  -9.392 -19.691  0.00  0.00    +0.173 C 
BRANCH  18  20
ATOM     19  N   UNL     1      32.740  -8.445 -23.931  0.00  0.00    -0.333 N 
ATOM     20  C   UNL     1      31.223  -8.436 -20.570  0.00  0.00    +0.036 C 
ATOM     21  C   UNL     1      32.480  -6.601 -22.292  0.00  0.00    -0.009 C 
ATOM     22  C   UNL     1      33.096  -5.519 -23.158  0.00  0.00    +0.028 C 
ATOM     23  C   UNL     1      32.301  -7.937 -22.716  0.00  0.00    +0.041 C 
ATOM     24  C   UNL     1      32.624  -5.557 -24.611  0.00  0.00    +0.006 C 
ATOM     25  C   UNL     1      33.322  -6.613 -25.468  0.00  0.00    +0.022 C 
ATOM     26  C   UNL     1      31.652  -8.830 -21.838  0.00  0.00    +0.017 C 
ATOM     27  C   UNL     1      33.798  -7.844 -24.712  0.00  0.00    +0.087 C 
ATOM     28  C   UNL     1      31.436  -7.134 -20.147  0.00  0.00    +0.003 C 
ATOM     29  C   UNL     1      32.059  -6.225 -20.999  0.00  0.00    -0.003 C 
ATOM     30  H   UNL     1      32.308  -9.258 -24.280  0.00  0.00    +0.147 HD
ENDBRANCH  18  20
ENDBRANCH  16  18
ENDBRANCH   1  16
TORSDOF 6
ENDMDL
MODEL 9
REMARK VINA RESULT:     -10.8      2.015     10.038
REMARK  Name = 198752
REMARK  6 active torsions:
REMARK  status: ('A' for Active; 'I' for Inactive)
REMARK    1  A    between atoms: C_1  and  C_3
REMARK    2  A    between atoms: C_1  and  C_16
REMARK    3  A    between atoms: N_2  and  C_9
REMARK    4  A    between atoms: C_9  and  C_10
REMARK    5  A    between atoms: C_16  and  C_18
REMARK    6  A    between atoms: C_18  and  C_20
REMARK                            x       y       z     vdW  Elec       q    Type
REMARK                         _______ _______ _______ _____ _____    ______ ____
ROOT
ATOM      1  C   UNL     1      34.010 -20.538 -19.511  0.00  0.00    +0.008 C 
ENDROOT
BRANCH   1   3
ATOM      2  N   UNL     1      33.489 -22.580 -15.740  0.00  0.00    +0.390 N 
ATOM      3  C   UNL     1      34.008 -21.658 -18.475  0.00  0.00    -0.004 C 
ATOM      4  C   UNL     1      32.592 -21.920 -17.950  0.00  0.00    -0.023 C 
ATOM      5  C   UNL     1      34.941 -21.329 -17.305  0.00  0.00    -0.023 C 
ATOM      6  C   UNL     1      32.596 -22.972 -16.839  0.00  0.00    -0.077 C 
ATOM      7  C   UNL     1      34.867 -22.401 -16.216  0.00  0.00    -0.077 C 
ATOM      8  H   UNL     1      33.164 -21.685 -15.375  0.00  0.00    -0.079 HD
BRANCH   2   9
ATOM      9  C   UNL     1      33.444 -23.569 -14.664  0.00  0.00    -0.050 C 
BRANCH   9  10
ATOM     10  C   UNL     1      32.087 -23.628 -14.014  0.00  0.00    -0.043 C 
ATOM     11  C   UNL     1      31.198 -22.577 -14.192  0.00  0.00    -0.006 C 
ATOM     12  C   UNL     1      31.743 -24.733 -13.247  0.00  0.00    -0.006 C 
ATOM     13  C   UNL     1      29.941 -22.632 -13.589  0.00  0.00    -0.000 C 
ATOM     14  C   UNL     1      30.486 -24.788 -12.646  0.00  0.00    -0.000 C 
ATOM     15  C   UNL     1      29.585 -23.737 -12.817  0.00  0.00    -0.000 C 
ENDBRANCH   9  10
ENDBRANCH   2   9
ENDBRANCH   1   3
BRANCH   1  16
ATOM     16  C   UNL     1      35.405 -20.315 -20.094  0.00  0.00    +0.069 C 
BRANCH  16  18
ATOM     17  O   UNL     1      36.650 -18.276 -19.769  0.00  0.00    -0.291 OA
ATOM     18  C   UNL     1      35.719 -18.836 -20.385  0.00  0.00    +0.173 C 
BRANCH  18  20
ATOM     19  N   UNL     1      33.694 -14.666 -21.835  0.00  0.00    -0.333 N 
ATOM     20  C   UNL     1      34.934 -18.107 -21.369  0.00  0.00    +0.036 C 
ATOM     21  C   UNL     1      33.431 -16.674 -23.267  0.00  0.00    -0.009 C 
ATOM     22  C   UNL     1      32.656 -15.990 -24.375  0.00  0.00    +0.028 C 
ATOM     23  C   UNL     1      33.926 -16.003 -22.126  0.00  0.00    +0.041 C 
ATOM     24  C   UNL     1      33.225 -14.626 -24.766  0.00  0.00    +0.006 C 
ATOM     25  C   UNL     1      32.835 -13.491 -23.820  0.00  0.00    +0.022 C 
ATOM     26  C   UNL     1      34.692 -16.744 -21.201  0.00  0.00    +0.017 C 
ATOM     27  C   UNL     1      32.588 -13.911 -22.379  0.00  0.00    +0.087 C 
ATOM     28  C   UNL     1      34.414 -18.767 -22.471  0.00  0.00    +0.003 C 
ATOM     29  C   UNL     1      33.668 -18.058 -23.410  0.00  0.00    -0.003 C 
ATOM     30  H   UNL     1      34.316 -14.207 -21.225  0.00  0.00    +0.147 HD
ENDBRANCH  18  20
ENDBRANCH  16  18
ENDBRANCH   1  16
TORSDOF 6
ENDMDL
