MODEL 1
REMARK VINA RESULT:     -11.2      0.000      0.000
REMARK  Name = 25195365
REMARK  5 active torsions:
REMARK  status: ('A' for Active; 'I' for Inactive)
REMARK    1  A    between atoms: C_1  and  C_3
REMARK    2  A    between atoms: C_1  and  C_17
REMARK    3  A    between atoms: C_4  and  C_9
REMARK    4  A    between atoms: C_6  and  O_15
REMARK    5  A    between atoms: C_18  and  C_23
REMARK                            x       y       z     vdW  Elec       q    Type
REMARK                         _______ _______ _______ _____ _____    ______ ____
ROOT
ATOM      1  C   UNL     1      32.020 -22.806 -16.895  0.00  0.00    +0.086 C 
ATOM      2  C   UNL     1      30.643 -22.450 -16.304  0.00  0.00    +0.019 C 
ENDROOT
BRANCH   1   3
ATOM      3  C   UNL     1      32.471 -21.837 -17.936  0.00  0.00    -0.007 C 
ATOM      4  C   UNL     1      33.312 -20.025 -19.882  0.00  0.00    +0.034 C 
ATOM      5  C   UNL     1      33.830 -21.692 -18.212  0.00  0.00    +0.034 C 
ATOM      6  C   UNL     1      34.251 -20.785 -19.185  0.00  0.00    +0.138 C 
ATOM      7  C   UNL     1      31.532 -21.076 -18.633  0.00  0.00    -0.003 C 
ATOM      8  C   UNL     1      31.952 -20.171 -19.606  0.00  0.00    +0.003 C 
BRANCH   4   9
ATOM      9  C   UNL     1      33.727 -19.079 -20.895  0.00  0.00    +0.003 C 
ATOM     10  C   UNL     1      33.557 -19.383 -22.246  0.00  0.00    +0.000 C 
ATOM     11  C   UNL     1      34.297 -17.861 -20.522  0.00  0.00    +0.000 C 
ATOM     12  C   UNL     1      33.956 -18.471 -23.223  0.00  0.00    +0.000 C 
ATOM     13  C   UNL     1      34.697 -16.949 -21.499  0.00  0.00    +0.000 C 
ATOM     14  C   UNL     1      34.526 -17.254 -22.848  0.00  0.00    +0.000 C 
ENDBRANCH   4   9
BRANCH   6  15
ATOM     15  O   UNL     1      35.586 -20.664 -19.436  0.00  0.00    -0.471 OA
ATOM     16  C   UNL     1      36.390 -20.099 -18.403  0.00  0.00    +0.252 C 
ENDBRANCH   6  15
ENDBRANCH   1   3
BRANCH   1  17
ATOM     17  C   UNL     1      33.009 -22.952 -15.796  0.00  0.00    -0.087 C 
ATOM     18  C   UNL     1      33.793 -23.080 -14.894  0.00  0.00    -0.076 C 
BRANCH  18  23
ATOM     19  N   UNL     1      36.945 -22.953 -12.939  0.00  0.00    -0.336 NA
ATOM     20  N   UNL     1      35.230 -23.967 -11.582  0.00  0.00    -0.317 NA
ATOM     21  N   UNL     1      33.040 -24.256 -12.428  0.00  0.00    -0.334 N 
ATOM     22  N   UNL     1      37.406 -23.675 -10.754  0.00  0.00    -0.283 N 
ATOM     23  C   UNL     1      34.722 -23.238 -13.818  0.00  0.00    +0.179 C 
ATOM     24  C   UNL     1      36.034 -22.825 -13.926  0.00  0.00    +0.120 C 
ATOM     25  C   UNL     1      34.373 -23.807 -12.612  0.00  0.00    +0.186 C 
ATOM     26  C   UNL     1      36.541 -22.192 -15.183  0.00  0.00    +0.064 C 
ATOM     27  C   UNL     1      36.481 -23.524 -11.811  0.00  0.00    +0.196 C 
ATOM     28  H   UNL     1      32.772 -24.666 -11.574  0.00  0.00    +0.144 HD
ATOM     29  H   UNL     1      32.384 -24.158 -13.155  0.00  0.00    +0.144 HD
ATOM     30  H   UNL     1      38.334 -23.368 -10.866  0.00  0.00    +0.156 HD
ATOM     31  H   UNL     1      37.122 -24.086  -9.905  0.00  0.00    +0.156 HD
ENDBRANCH  18  23
ENDBRANCH   1  17
TORSDOF 5
ENDMDL
MODEL 2
REMARK VINA RESULT:     -10.8      4.558      7.306
REMARK  Name = 25195365
REMARK  5 active torsions:
REMARK  status: ('A' for Active; 'I' for Inactive)
REMARK    1  A    between atoms: C_1  and  C_3
REMARK    2  A    between atoms: C_1  and  C_17
REMARK    3  A    between atoms: C_4  and  C_9
REMARK    4  A    between atoms: C_6  and  O_15
REMARK    5  A    between atoms: C_18  and  C_23
REMARK                            x       y       z     vdW  Elec       q    Type
REMARK                         _______ _______ _______ _____ _____    ______ ____
ROOT
ATOM      1  C   UNL     1      34.606 -17.765 -22.384  0.00  0.00    +0.086 C 
ATOM      2  C   UNL     1      34.253 -18.374 -23.755  0.00  0.00    +0.019 C 
ENDROOT
BRANCH   1   3
ATOM      3  C   UNL     1      33.993 -16.422 -22.173  0.00  0.00    -0.007 C 
ATOM      4  C   UNL     1      32.846 -13.910 -21.776  0.00  0.00    +0.034 C 
ATOM      5  C   UNL     1      33.429 -15.735 -23.248  0.00  0.00    +0.034 C 
ATOM      6  C   UNL     1      32.856 -14.479 -23.050  0.00  0.00    +0.138 C 
ATOM      7  C   UNL     1      33.983 -15.852 -20.900  0.00  0.00    -0.003 C 
ATOM      8  C   UNL     1      33.410 -14.597 -20.701  0.00  0.00    +0.003 C 
BRANCH   4   9
ATOM      9  C   UNL     1      32.257 -12.608 -21.549  0.00  0.00    +0.003 C 
ATOM     10  C   UNL     1      32.660 -11.516 -22.318  0.00  0.00    +0.000 C 
ATOM     11  C   UNL     1      31.286 -12.444 -20.561  0.00  0.00    +0.000 C 
ATOM     12  C   UNL     1      32.092 -10.261 -22.100  0.00  0.00    +0.000 C 
ATOM     13  C   UNL     1      30.719 -11.188 -20.342  0.00  0.00    +0.000 C 
ATOM     14  C   UNL     1      31.122 -10.098 -21.112  0.00  0.00    +0.000 C 
ENDBRANCH   4   9
BRANCH   6  15
ATOM     15  O   UNL     1      32.310 -13.830 -24.118  0.00  0.00    -0.471 OA
ATOM     16  C   UNL     1      32.366 -14.497 -25.377  0.00  0.00    +0.252 C 
ENDBRANCH   6  15
ENDBRANCH   1   3
BRANCH   1  17
ATOM     17  C   UNL     1      34.246 -18.724 -21.307  0.00  0.00    -0.087 C 
ATOM     18  C   UNL     1      33.951 -19.515 -20.453  0.00  0.00    -0.076 C 
BRANCH  18  23
ATOM     19  N   UNL     1      34.279 -21.993 -17.710  0.00  0.00    -0.336 NA
ATOM     20  N   UNL     1      31.940 -21.693 -18.210  0.00  0.00    -0.317 NA
ATOM     21  N   UNL     1      31.254 -20.194 -19.906  0.00  0.00    -0.334 N 
ATOM     22  N   UNL     1      32.633 -23.178 -16.529  0.00  0.00    -0.283 N 
ATOM     23  C   UNL     1      33.602 -20.462 -19.440  0.00  0.00    +0.179 C 
ATOM     24  C   UNL     1      34.561 -21.094 -18.675  0.00  0.00    +0.120 C 
ATOM     25  C   UNL     1      32.295 -20.804 -19.160  0.00  0.00    +0.186 C 
ATOM     26  C   UNL     1      36.015 -20.813 -18.879  0.00  0.00    +0.064 C 
ATOM     27  C   UNL     1      32.967 -22.242 -17.532  0.00  0.00    +0.196 C 
ATOM     28  H   UNL     1      30.316 -20.426 -19.720  0.00  0.00    +0.144 HD
ATOM     29  H   UNL     1      31.472 -19.540 -20.608  0.00  0.00    +0.144 HD
ATOM     30  H   UNL     1      33.343 -23.609 -16.003  0.00  0.00    +0.156 HD
ATOM     31  H   UNL     1      31.689 -23.398 -16.355  0.00  0.00    +0.156 HD
ENDBRANCH  18  23
ENDBRANCH   1  17
TORSDOF 5
ENDMDL
MODEL 3
REMARK VINA RESULT:     -10.4      4.787      8.774
REMARK  Name = 25195365
REMARK  5 active torsions:
REMARK  status: ('A' for Active; 'I' for Inactive)
REMARK    1  A    between atoms: C_1  and  C_3
REMARK    2  A    between atoms: C_1  and  C_17
REMARK    3  A    between atoms: C_4  and  C_9
REMARK    4  A    between atoms: C_6  and  O_15
REMARK    5  A    between atoms: C_18  and  C_23
REMARK                            x       y       z     vdW  Elec       q    Type
REMARK                         _______ _______ _______ _____ _____    ______ ____
ROOT
ATOM      1  C   UNL     1      35.694 -21.564 -17.317  0.00  0.00    +0.086 C 
ATOM      2  C   UNL     1      36.618 -20.751 -16.390  0.00  0.00    +0.019 C 
ENDROOT
BRANCH   1   3
ATOM      3  C   UNL     1      34.491 -22.094 -16.614  0.00  0.00    -0.007 C 
ATOM      4  C   UNL     1      32.238 -23.085 -15.300  0.00  0.00    +0.034 C 
ATOM      5  C   UNL     1      34.569 -22.451 -15.267  0.00  0.00    +0.034 C 
ATOM      6  C   UNL     1      33.443 -22.947 -14.610  0.00  0.00    +0.138 C 
ATOM      7  C   UNL     1      33.286 -22.233 -17.302  0.00  0.00    -0.003 C 
ATOM      8  C   UNL     1      32.160 -22.728 -16.646  0.00  0.00    +0.003 C 
BRANCH   4   9
ATOM      9  C   UNL     1      31.059 -23.598 -14.637  0.00  0.00    +0.003 C 
ATOM     10  C   UNL     1      29.791 -23.286 -15.129  0.00  0.00    +0.000 C 
ATOM     11  C   UNL     1      31.188 -24.406 -13.507  0.00  0.00    +0.000 C 
ATOM     12  C   UNL     1      28.654 -23.781 -14.491  0.00  0.00    +0.000 C 
ATOM     13  C   UNL     1      30.050 -24.901 -12.869  0.00  0.00    +0.000 C 
ATOM     14  C   UNL     1      28.784 -24.588 -13.361  0.00  0.00    +0.000 C 
ENDBRANCH   4   9
BRANCH   6  15
ATOM     15  O   UNL     1      33.548 -23.287 -13.294  0.00  0.00    -0.471 OA
ATOM     16  C   UNL     1      34.827 -23.722 -12.838  0.00  0.00    +0.252 C 
ENDBRANCH   6  15
ENDBRANCH   1   3
BRANCH   1  17
ATOM     17  C   UNL     1      35.337 -20.745 -18.504  0.00  0.00    -0.087 C 
ATOM     18  C   UNL     1      35.026 -20.088 -19.461  0.00  0.00    -0.076 C 
BRANCH  18  23
ATOM     19  N   UNL     1      32.950 -18.544 -22.122  0.00  0.00    -0.336 NA
ATOM     20  N   UNL     1      35.226 -17.791 -22.378  0.00  0.00    -0.317 NA
ATOM     21  N   UNL     1      36.911 -18.527 -20.891  0.00  0.00    -0.334 N 
ATOM     22  N   UNL     1      33.544 -17.068 -23.847  0.00  0.00    -0.283 N 
ATOM     23  C   UNL     1      34.651 -19.304 -20.597  0.00  0.00    +0.179 C 
ATOM     24  C   UNL     1      33.350 -19.268 -21.056  0.00  0.00    +0.120 C 
ATOM     25  C   UNL     1      35.554 -18.539 -21.304  0.00  0.00    +0.186 C 
ATOM     26  C   UNL     1      32.273 -20.054 -20.378  0.00  0.00    +0.064 C 
ATOM     27  C   UNL     1      33.926 -17.839 -22.726  0.00  0.00    +0.196 C 
ATOM     28  H   UNL     1      37.571 -17.987 -21.383  0.00  0.00    +0.144 HD
ATOM     29  H   UNL     1      37.192 -19.059 -20.111  0.00  0.00    +0.144 HD
ATOM     30  H   UNL     1      32.607 -17.066 -24.146  0.00  0.00    +0.156 HD
ATOM     31  H   UNL     1      34.216 -16.533 -24.328  0.00  0.00    +0.156 HD
ENDBRANCH  18  23
ENDBRANCH   1  17
TORSDOF 5
ENDMDL
MODEL 4
REMARK VINA RESULT:     -10.4      4.317      7.252
REMARK  Name = 25195365
REMARK  5 active torsions:
REMARK  status: ('A' for Active; 'I' for Inactive)
REMARK    1  A    between atoms: C_1  and  C_3
REMARK    2  A    between atoms: C_1  and  C_17
REMARK    3  A    between atoms: C_4  and  C_9
REMARK    4  A    between atoms: C_6  and  O_15
REMARK    5  A    between atoms: C_18  and  C_23
REMARK                            x       y       z     vdW  Elec       q    Type
REMARK                         _______ _______ _______ _____ _____    ______ ____
ROOT
ATOM      1  C   UNL     1      34.805 -17.802 -22.114  0.00  0.00    +0.086 C 
ATOM      2  C   UNL     1      34.544 -18.401 -23.509  0.00  0.00    +0.019 C 
ENDROOT
BRANCH   1   3
ATOM      3  C   UNL     1      34.134 -16.485 -21.915  0.00  0.00    -0.007 C 
ATOM      4  C   UNL     1      32.880 -14.021 -21.542  0.00  0.00    +0.034 C 
ATOM      5  C   UNL     1      33.578 -15.814 -23.004  0.00  0.00    +0.034 C 
ATOM      6  C   UNL     1      32.951 -14.581 -22.818  0.00  0.00    +0.138 C 
ATOM      7  C   UNL     1      34.064 -15.924 -20.640  0.00  0.00    -0.003 C 
ATOM      8  C   UNL     1      33.437 -14.693 -20.453  0.00  0.00    +0.003 C 
BRANCH   4   9
ATOM      9  C   UNL     1      32.235 -12.744 -21.327  0.00  0.00    +0.003 C 
ATOM     10  C   UNL     1      31.359 -12.577 -20.254  0.00  0.00    +0.000 C 
ATOM     11  C   UNL     1      32.489 -11.679 -22.191  0.00  0.00    +0.000 C 
ATOM     12  C   UNL     1      30.738 -11.346 -20.046  0.00  0.00    +0.000 C 
ATOM     13  C   UNL     1      31.867 -10.448 -21.983  0.00  0.00    +0.000 C 
ATOM     14  C   UNL     1      30.992 -10.282 -20.910  0.00  0.00    +0.000 C 
ENDBRANCH   4   9
BRANCH   6  15
ATOM     15  O   UNL     1      32.414 -13.948 -23.899  0.00  0.00    -0.471 OA
ATOM     16  C   UNL     1      32.537 -14.603 -25.160  0.00  0.00    +0.252 C 
ENDBRANCH   6  15
ENDBRANCH   1   3
BRANCH   1  17
ATOM     17  C   UNL     1      34.425 -18.790 -21.071  0.00  0.00    -0.087 C 
ATOM     18  C   UNL     1      34.099 -19.593 -20.239  0.00  0.00    -0.076 C 
BRANCH  18  23
ATOM     19  N   UNL     1      31.966 -21.744 -18.094  0.00  0.00    -0.336 NA
ATOM     20  N   UNL     1      34.278 -22.156 -17.551  0.00  0.00    -0.317 NA
ATOM     21  N   UNL     1      36.004 -20.997 -18.679  0.00  0.00    -0.334 N 
ATOM     22  N   UNL     1      32.556 -23.300 -16.440  0.00  0.00    -0.283 N 
ATOM     23  C   UNL     1      33.708 -20.553 -19.254  0.00  0.00    +0.179 C 
ATOM     24  C   UNL     1      32.381 -20.846 -19.012  0.00  0.00    +0.120 C 
ATOM     25  C   UNL     1      34.621 -21.246 -18.486  0.00  0.00    +0.186 C 
ATOM     26  C   UNL     1      31.292 -20.165 -19.777  0.00  0.00    +0.064 C 
ATOM     27  C   UNL     1      32.953 -22.353 -17.410  0.00  0.00    +0.196 C 
ATOM     28  H   UNL     1      36.671 -21.481 -18.140  0.00  0.00    +0.144 HD
ATOM     29  H   UNL     1      36.296 -20.339 -19.351  0.00  0.00    +0.144 HD
ATOM     30  H   UNL     1      31.601 -23.484 -16.294  0.00  0.00    +0.156 HD
ATOM     31  H   UNL     1      33.236 -23.776 -15.910  0.00  0.00    +0.156 HD
ENDBRANCH  18  23
ENDBRANCH   1  17
TORSDOF 5
ENDMDL
MODEL 5
REMARK VINA RESULT:     -10.1      8.548     12.172
REMARK  Name = 25195365
REMARK  5 active torsions:
REMARK  status: ('A' for Active; 'I' for Inactive)
REMARK    1  A    between atoms: C_1  and  C_3
REMARK    2  A    between atoms: C_1  and  C_17
REMARK    3  A    between atoms: C_4  and  C_9
REMARK    4  A    between atoms: C_6  and  O_15
REMARK    5  A    between atoms: C_18  and  C_23
REMARK                            x       y       z     vdW  Elec       q    Type
REMARK                         _______ _______ _______ _____ _____    ______ ____
ROOT
ATOM      1  C   UNL     1      33.314 -11.649 -24.320  0.00  0.00    +0.086 C 
ATOM      2  C   UNL     1      32.371 -11.917 -25.508  0.00  0.00    +0.019 C 
ENDROOT
BRANCH   1   3
ATOM      3  C   UNL     1      32.851 -10.526 -23.455  0.00  0.00    -0.007 C 
ATOM      4  C   UNL     1      31.985  -8.425 -21.837  0.00  0.00    +0.034 C 
ATOM      5  C   UNL     1      31.928 -10.765 -22.437  0.00  0.00    +0.034 C 
ATOM      6  C   UNL     1      31.494  -9.714 -21.628  0.00  0.00    +0.138 C 
ATOM      7  C   UNL     1      33.340  -9.237 -23.664  0.00  0.00    -0.003 C 
ATOM      8  C   UNL     1      32.908  -8.187 -22.856  0.00  0.00    +0.003 C 
BRANCH   4   9
ATOM      9  C   UNL     1      31.548  -7.321 -21.010  0.00  0.00    +0.003 C 
ATOM     10  C   UNL     1      30.509  -6.496 -21.440  0.00  0.00    +0.000 C 
ATOM     11  C   UNL     1      32.166  -7.082 -19.782  0.00  0.00    +0.000 C 
ATOM     12  C   UNL     1      30.088  -5.432 -20.643  0.00  0.00    +0.000 C 
ATOM     13  C   UNL     1      31.744  -6.018 -18.985  0.00  0.00    +0.000 C 
ATOM     14  C   UNL     1      30.705  -5.193 -19.416  0.00  0.00    +0.000 C 
ENDBRANCH   4   9
BRANCH   6  15
ATOM     15  O   UNL     1      30.593  -9.976 -20.639  0.00  0.00    -0.471 OA
ATOM     16  C   UNL     1      30.765 -11.190 -19.911  0.00  0.00    +0.252 C 
ENDBRANCH   6  15
ENDBRANCH   1   3
BRANCH   1  17
ATOM     17  C   UNL     1      33.515 -12.906 -23.553  0.00  0.00    -0.087 C 
ATOM     18  C   UNL     1      33.694 -13.928 -22.947  0.00  0.00    -0.076 C 
BRANCH  18  23
ATOM     19  N   UNL     1      34.023 -16.324 -20.132  0.00  0.00    -0.336 NA
ATOM     20  N   UNL     1      34.438 -17.492 -22.199  0.00  0.00    -0.317 NA
ATOM     21  N   UNL     1      34.336 -16.351 -24.268  0.00  0.00    -0.334 N 
ATOM     22  N   UNL     1      34.536 -18.614 -20.139  0.00  0.00    -0.283 N 
ATOM     23  C   UNL     1      33.914 -15.144 -22.228  0.00  0.00    +0.179 C 
ATOM     24  C   UNL     1      33.824 -15.200 -20.852  0.00  0.00    +0.120 C 
ATOM     25  C   UNL     1      34.227 -16.332 -22.854  0.00  0.00    +0.186 C 
ATOM     26  C   UNL     1      33.492 -13.981 -20.053  0.00  0.00    +0.064 C 
ATOM     27  C   UNL     1      34.322 -17.417 -20.859  0.00  0.00    +0.196 C 
ATOM     28  H   UNL     1      34.559 -17.190 -24.733  0.00  0.00    +0.144 HD
ATOM     29  H   UNL     1      34.189 -15.526 -24.784  0.00  0.00    +0.144 HD
ATOM     30  H   UNL     1      34.464 -18.617 -19.158  0.00  0.00    +0.156 HD
ATOM     31  H   UNL     1      34.757 -19.444 -20.620  0.00  0.00    +0.156 HD
ENDBRANCH  18  23
ENDBRANCH   1  17
TORSDOF 5
ENDMDL
MODEL 6
REMARK VINA RESULT:     -10.0      5.348      8.635
REMARK  Name = 25195365
REMARK  5 active torsions:
REMARK  status: ('A' for Active; 'I' for Inactive)
REMARK    1  A    between atoms: C_1  and  C_3
REMARK    2  A    between atoms: C_1  and  C_17
REMARK    3  A    between atoms: C_4  and  C_9
REMARK    4  A    between atoms: C_6  and  O_15
REMARK    5  A    between atoms: C_18  and  C_23
REMARK                            x       y       z     vdW  Elec       q    Type
REMARK                         _______ _______ _______ _____ _____    ______ ____
ROOT
ATOM      1  C   UNL     1      33.105 -16.882 -24.265  0.00  0.00    +0.086 C 
ATOM      2  C   UNL     1      31.724 -17.427 -24.678  0.00  0.00    +0.019 C 
ENDROOT
BRANCH   1   3
ATOM      3  C   UNL     1      33.106 -15.405 -24.060  0.00  0.00    -0.007 C 
ATOM      4  C   UNL     1      33.108 -12.642 -23.678  0.00  0.00    +0.034 C 
ATOM      5  C   UNL     1      33.483 -14.872 -22.827  0.00  0.00    +0.034 C 
ATOM      6  C   UNL     1      33.484 -13.490 -22.636  0.00  0.00    +0.138 C 
ATOM      7  C   UNL     1      32.730 -14.557 -25.101  0.00  0.00    -0.003 C 
ATOM      8  C   UNL     1      32.731 -13.176 -24.910  0.00  0.00    +0.003 C 
BRANCH   4   9
ATOM      9  C   UNL     1      33.101 -11.206 -23.500  0.00  0.00    +0.003 C 
ATOM     10  C   UNL     1      34.037 -10.416 -24.168  0.00  0.00    +0.000 C 
ATOM     11  C   UNL     1      32.158 -10.611 -22.662  0.00  0.00    +0.000 C 
ATOM     12  C   UNL     1      34.030  -9.032 -23.998  0.00  0.00    +0.000 C 
ATOM     13  C   UNL     1      32.151  -9.226 -22.492  0.00  0.00    +0.000 C 
ATOM     14  C   UNL     1      33.087  -8.438 -23.159  0.00  0.00    +0.000 C 
ENDBRANCH   4   9
BRANCH   6  15
ATOM     15  O   UNL     1      33.858 -12.996 -21.422  0.00  0.00    -0.471 OA
ATOM     16  C   UNL     1      33.465 -13.741 -20.271  0.00  0.00    +0.252 C 
ENDBRANCH   6  15
ENDBRANCH   1   3
BRANCH   1  17
ATOM     17  C   UNL     1      33.591 -17.617 -23.068  0.00  0.00    -0.087 C 
ATOM     18  C   UNL     1      33.997 -18.225 -22.115  0.00  0.00    -0.076 C 
BRANCH  18  23
ATOM     19  N   UNL     1      34.068 -20.404 -19.111  0.00  0.00    -0.336 NA
ATOM     20  N   UNL     1      36.302 -19.613 -19.549  0.00  0.00    -0.317 NA
ATOM     21  N   UNL     1      36.735 -18.182 -21.382  0.00  0.00    -0.334 N 
ATOM     22  N   UNL     1      35.860 -21.034 -17.734  0.00  0.00    -0.283 N 
ATOM     23  C   UNL     1      34.487 -18.948 -20.982  0.00  0.00    +0.179 C 
ATOM     24  C   UNL     1      33.651 -19.706 -20.188  0.00  0.00    +0.120 C 
ATOM     25  C   UNL     1      35.816 -18.939 -20.612  0.00  0.00    +0.186 C 
ATOM     26  C   UNL     1      32.188 -19.799 -20.481  0.00  0.00    +0.064 C 
ATOM     27  C   UNL     1      35.387 -20.315 -18.854  0.00  0.00    +0.196 C 
ATOM     28  H   UNL     1      37.687 -18.163 -21.133  0.00  0.00    +0.144 HD
ATOM     29  H   UNL     1      36.420 -17.676 -22.165  0.00  0.00    +0.144 HD
ATOM     30  H   UNL     1      35.235 -21.563 -17.190  0.00  0.00    +0.156 HD
ATOM     31  H   UNL     1      36.816 -21.004 -17.499  0.00  0.00    +0.156 HD
ENDBRANCH  18  23
ENDBRANCH   1  17
TORSDOF 5
ENDMDL
MODEL 7
REMARK VINA RESULT:      -9.9      8.954     12.903
REMARK  Name = 25195365
REMARK  5 active torsions:
REMARK  status: ('A' for Active; 'I' for Inactive)
REMARK    1  A    between atoms: C_1  and  C_3
REMARK    2  A    between atoms: C_1  and  C_17
REMARK    3  A    between atoms: C_4  and  C_9
REMARK    4  A    between atoms: C_6  and  O_15
REMARK    5  A    between atoms: C_18  and  C_23
REMARK                            x       y       z     vdW  Elec       q    Type
REMARK                         _______ _______ _______ _____ _____    ______ ____
ROOT
ATOM      1  C   UNL     1      33.008 -10.622 -24.413  0.00  0.00    +0.086 C 
ATOM      2  C   UNL     1      34.301 -10.010 -24.986  0.00  0.00    +0.019 C 
ENDROOT
BRANCH   1   3
ATOM      3  C   UNL     1      33.143 -12.075 -24.105  0.00  0.00    -0.007 C 
ATOM      4  C   UNL     1      33.395 -14.793 -23.531  0.00  0.00    +0.034 C 
ATOM      5  C   UNL     1      33.420 -12.490 -22.802  0.00  0.00    +0.034 C 
ATOM      6  C   UNL     1      33.546 -13.849 -22.515  0.00  0.00    +0.138 C 
ATOM      7  C   UNL     1      32.993 -13.019 -25.120  0.00  0.00    -0.003 C 
ATOM      8  C   UNL     1      33.118 -14.378 -24.834  0.00  0.00    +0.003 C 
BRANCH   4   9
ATOM      9  C   UNL     1      33.522 -16.208 -23.255  0.00  0.00    +0.003 C 
ATOM     10  C   UNL     1      34.288 -16.641 -22.172  0.00  0.00    +0.000 C 
ATOM     11  C   UNL     1      32.879 -17.139 -24.071  0.00  0.00    +0.000 C 
ATOM     12  C   UNL     1      34.411 -18.004 -21.906  0.00  0.00    +0.000 C 
ATOM     13  C   UNL     1      33.003 -18.502 -23.804  0.00  0.00    +0.000 C 
ATOM     14  C   UNL     1      33.768 -18.934 -22.722  0.00  0.00    +0.000 C 
ENDBRANCH   4   9
BRANCH   6  15
ATOM     15  O   UNL     1      33.816 -14.227 -21.233  0.00  0.00    -0.471 OA
ATOM     16  C   UNL     1      32.883 -13.827 -20.231  0.00  0.00    +0.252 C 
ENDBRANCH   6  15
ENDBRANCH   1   3
BRANCH   1  17
ATOM     17  C   UNL     1      32.569  -9.835 -23.231  0.00  0.00    -0.087 C 
ATOM     18  C   UNL     1      32.226  -9.181 -22.283  0.00  0.00    -0.076 C 
BRANCH  18  23
ATOM     19  N   UNL     1      31.781  -6.282 -20.009  0.00  0.00    -0.336 NA
ATOM     20  N   UNL     1      30.687  -8.201 -19.044  0.00  0.00    -0.317 NA
ATOM     21  N   UNL     1      30.714 -10.287 -20.157  0.00  0.00    -0.334 N 
ATOM     22  N   UNL     1      30.667  -6.124 -17.950  0.00  0.00    -0.283 N 
ATOM     23  C   UNL     1      31.820  -8.396 -21.159  0.00  0.00    +0.179 C 
ATOM     24  C   UNL     1      32.143  -7.059 -21.050  0.00  0.00    +0.120 C 
ATOM     25  C   UNL     1      31.083  -8.918 -20.115  0.00  0.00    +0.186 C 
ATOM     26  C   UNL     1      32.939  -6.372 -22.114  0.00  0.00    +0.064 C 
ATOM     27  C   UNL     1      31.065  -6.908 -19.056  0.00  0.00    +0.196 C 
ATOM     28  H   UNL     1      30.189 -10.678 -19.422  0.00  0.00    +0.144 HD
ATOM     29  H   UNL     1      30.983 -10.846 -20.922  0.00  0.00    +0.144 HD
ATOM     30  H   UNL     1      30.915  -5.174 -17.906  0.00  0.00    +0.156 HD
ATOM     31  H   UNL     1      30.141  -6.530 -17.223  0.00  0.00    +0.156 HD
ENDBRANCH  18  23
ENDBRANCH   1  17
TORSDOF 5
ENDMDL
MODEL 8
REMARK VINA RESULT:      -9.8      8.799     12.413
REMARK  Name = 25195365
REMARK  5 active torsions:
REMARK  status: ('A' for Active; 'I' for Inactive)
REMARK    1  A    between atoms: C_1  and  C_3
REMARK    2  A    between atoms: C_1  and  C_17
REMARK    3  A    between atoms: C_4  and  C_9
REMARK    4  A    between atoms: C_6  and  O_15
REMARK    5  A    between atoms: C_18  and  C_23
REMARK                            x       y       z     vdW  Elec       q    Type
REMARK                         _______ _______ _______ _____ _____    ______ ____
ROOT
ATOM      1  C   UNL     1      33.209 -11.752 -24.423  0.00  0.00    +0.086 C 
ATOM      2  C   UNL     1      32.237 -12.056 -25.579  0.00  0.00    +0.019 C 
ENDROOT
BRANCH   1   3
ATOM      3  C   UNL     1      32.759 -10.613 -23.573  0.00  0.00    -0.007 C 
ATOM      4  C   UNL     1      31.916  -8.483 -21.982  0.00  0.00    +0.034 C 
ATOM      5  C   UNL     1      33.035  -9.301 -23.960  0.00  0.00    +0.034 C 
ATOM      6  C   UNL     1      32.613  -8.236 -23.164  0.00  0.00    +0.138 C 
ATOM      7  C   UNL     1      32.062 -10.859 -22.390  0.00  0.00    -0.003 C 
ATOM      8  C   UNL     1      31.640  -9.794 -21.595  0.00  0.00    +0.003 C 
BRANCH   4   9
ATOM      9  C   UNL     1      31.470  -7.392 -21.141  0.00  0.00    +0.003 C 
ATOM     10  C   UNL     1      32.109  -7.142 -19.926  0.00  0.00    +0.000 C 
ATOM     11  C   UNL     1      30.402  -6.591 -21.545  0.00  0.00    +0.000 C 
ATOM     12  C   UNL     1      31.680  -6.091 -19.116  0.00  0.00    +0.000 C 
ATOM     13  C   UNL     1      29.973  -5.540 -20.734  0.00  0.00    +0.000 C 
ATOM     14  C   UNL     1      30.613  -5.290 -19.521  0.00  0.00    +0.000 C 
ENDBRANCH   4   9
BRANCH   6  15
ATOM     15  O   UNL     1      32.895  -6.964 -23.567  0.00  0.00    -0.471 OA
ATOM     16  C   UNL     1      34.162  -6.431 -23.187  0.00  0.00    +0.252 C 
ENDBRANCH   6  15
ENDBRANCH   1   3
BRANCH   1  17
ATOM     17  C   UNL     1      33.441 -12.988 -23.632  0.00  0.00    -0.087 C 
ATOM     18  C   UNL     1      33.644 -13.994 -23.007  0.00  0.00    -0.076 C 
BRANCH  18  23
ATOM     19  N   UNL     1      34.046 -16.325 -20.146  0.00  0.00    -0.336 NA
ATOM     20  N   UNL     1      34.458 -17.529 -22.193  0.00  0.00    -0.317 NA
ATOM     21  N   UNL     1      34.314 -16.434 -24.284  0.00  0.00    -0.334 N 
ATOM     22  N   UNL     1      34.598 -18.605 -20.111  0.00  0.00    -0.283 N 
ATOM     23  C   UNL     1      33.893 -15.191 -22.265  0.00  0.00    +0.179 C 
ATOM     24  C   UNL     1      33.820 -15.220 -20.887  0.00  0.00    +0.120 C 
ATOM     25  C   UNL     1      34.219 -16.387 -22.870  0.00  0.00    +0.186 C 
ATOM     26  C   UNL     1      33.475 -13.990 -20.109  0.00  0.00    +0.064 C 
ATOM     27  C   UNL     1      34.355 -17.428 -20.854  0.00  0.00    +0.196 C 
ATOM     28  H   UNL     1      34.546 -17.278 -24.734  0.00  0.00    +0.144 HD
ATOM     29  H   UNL     1      34.147 -15.622 -24.815  0.00  0.00    +0.144 HD
ATOM     30  H   UNL     1      34.537 -18.589 -19.130  0.00  0.00    +0.156 HD
ATOM     31  H   UNL     1      34.829 -19.442 -20.577  0.00  0.00    +0.156 HD
ENDBRANCH  18  23
ENDBRANCH   1  17
TORSDOF 5
ENDMDL
MODEL 9
REMARK VINA RESULT:      -9.7      5.086      8.972
REMARK  Name = 25195365
REMARK  5 active torsions:
REMARK  status: ('A' for Active; 'I' for Inactive)
REMARK    1  A    between atoms: C_1  and  C_3
REMARK    2  A    between atoms: C_1  and  C_17
REMARK    3  A    between atoms: C_4  and  C_9
REMARK    4  A    between atoms: C_6  and  O_15
REMARK    5  A    between atoms: C_18  and  C_23
REMARK                            x       y       z     vdW  Elec       q    Type
REMARK                         _______ _______ _______ _____ _____    ______ ____
ROOT
ATOM      1  C   UNL     1      35.091 -21.063 -19.078  0.00  0.00    +0.086 C 
ATOM      2  C   UNL     1      36.290 -20.609 -18.225  0.00  0.00    +0.019 C 
ENDROOT
BRANCH   1   3
ATOM      3  C   UNL     1      33.926 -21.497 -18.254  0.00  0.00    -0.007 C 
ATOM      4  C   UNL     1      31.747 -22.309 -16.713  0.00  0.00    +0.034 C 
ATOM      5  C   UNL     1      34.135 -22.177 -17.054  0.00  0.00    +0.034 C 
ATOM      6  C   UNL     1      33.045 -22.584 -16.283  0.00  0.00    +0.138 C 
ATOM      7  C   UNL     1      32.628 -21.224 -18.683  0.00  0.00    -0.003 C 
ATOM      8  C   UNL     1      31.538 -21.629 -17.913  0.00  0.00    +0.003 C 
BRANCH   4   9
ATOM      9  C   UNL     1      30.603 -22.722 -15.930  0.00  0.00    +0.003 C 
ATOM     10  C   UNL     1      29.377 -22.076 -16.091  0.00  0.00    +0.000 C 
ATOM     11  C   UNL     1      30.724 -23.767 -15.014  0.00  0.00    +0.000 C 
ATOM     12  C   UNL     1      28.274 -22.474 -15.337  0.00  0.00    +0.000 C 
ATOM     13  C   UNL     1      29.621 -24.165 -14.259  0.00  0.00    +0.000 C 
ATOM     14  C   UNL     1      28.396 -23.519 -14.421  0.00  0.00    +0.000 C 
ENDBRANCH   4   9
BRANCH   6  15
ATOM     15  O   UNL     1      33.278 -23.245 -15.114  0.00  0.00    -0.471 OA
ATOM     16  C   UNL     1      34.413 -22.835 -14.354  0.00  0.00    +0.252 C 
ENDBRANCH   6  15
ENDBRANCH   1   3
BRANCH   1  17
ATOM     17  C   UNL     1      34.731 -19.989 -20.039  0.00  0.00    -0.087 C 
ATOM     18  C   UNL     1      34.456 -19.128 -20.831  0.00  0.00    -0.076 C 
BRANCH  18  23
ATOM     19  N   UNL     1      33.576 -17.469 -24.033  0.00  0.00    -0.336 NA
ATOM     20  N   UNL     1      33.736 -15.793 -22.308  0.00  0.00    -0.317 NA
ATOM     21  N   UNL     1      34.280 -16.398 -20.088  0.00  0.00    -0.334 N 
ATOM     22  N   UNL     1      33.195 -15.205 -24.515  0.00  0.00    -0.283 N 
ATOM     23  C   UNL     1      34.131 -18.107 -21.779  0.00  0.00    +0.179 C 
ATOM     24  C   UNL     1      33.886 -18.398 -23.105  0.00  0.00    +0.120 C 
ATOM     25  C   UNL     1      34.041 -16.774 -21.434  0.00  0.00    +0.186 C 
ATOM     26  C   UNL     1      33.952 -19.805 -23.608  0.00  0.00    +0.064 C 
ATOM     27  C   UNL     1      33.518 -16.205 -23.572  0.00  0.00    +0.196 C 
ATOM     28  H   UNL     1      34.221 -15.452 -19.823  0.00  0.00    +0.144 HD
ATOM     29  H   UNL     1      34.506 -17.085 -19.419  0.00  0.00    +0.144 HD
ATOM     30  H   UNL     1      33.027 -15.449 -25.453  0.00  0.00    +0.156 HD
ATOM     31  H   UNL     1      33.139 -14.263 -24.234  0.00  0.00    +0.156 HD
ENDBRANCH  18  23
ENDBRANCH   1  17
TORSDOF 5
ENDMDL
