MODEL 1
REMARK VINA RESULT:     -12.1      0.000      0.000
REMARK  Name = 10389239
REMARK  2 active torsions:
REMARK  status: ('A' for Active; 'I' for Inactive)
REMARK    1  A    between atoms: C_2  and  C_14
REMARK    2  A    between atoms: C_4  and  C_20
REMARK                            x       y       z     vdW  Elec       q    Type
REMARK                         _______ _______ _______ _____ _____    ______ ____
ROOT
ATOM      1  N   UNL     1      31.279 -22.127 -17.319  0.00  0.00    -0.244 NA
ATOM      2  C   UNL     1      33.124 -23.079 -15.448  0.00  0.00    +0.016 C 
ATOM      3  C   UNL     1      33.554 -22.301 -16.516  0.00  0.00    +0.020 C 
ATOM      4  C   UNL     1      32.600 -21.854 -17.417  0.00  0.00    +0.083 C 
ATOM      5  C   UNL     1      31.774 -23.383 -15.313  0.00  0.00    +0.022 C 
ATOM      6  C   UNL     1      30.900 -22.886 -16.266  0.00  0.00    +0.099 C 
ENDROOT
BRANCH   2  14
ATOM      7  O   UNL     1      36.561 -26.881 -13.171  0.00  0.00    -0.270 OA
ATOM      8  N   UNL     1      34.445 -22.832 -13.383  0.00  0.00    -0.316 N 
ATOM      9  N   UNL     1      37.222 -25.281 -11.641  0.00  0.00    -0.300 N 
ATOM     10  C   UNL     1      35.347 -23.549 -12.652  0.00  0.00    +0.031 C 
ATOM     11  C   UNL     1      35.975 -23.125 -11.378  0.00  0.00    +0.063 C 
ATOM     12  C   UNL     1      35.568 -24.756 -13.281  0.00  0.00    +0.064 C 
ATOM     13  C   UNL     1      37.306 -23.871 -11.240  0.00  0.00    +0.096 C 
ATOM     14  C   UNL     1      34.075 -23.571 -14.480  0.00  0.00    +0.048 C 
ATOM     15  C   UNL     1      34.753 -24.773 -14.439  0.00  0.00    +0.020 C 
ATOM     16  C   UNL     1      36.477 -25.740 -12.726  0.00  0.00    +0.247 C 
ATOM     17  H   UNL     1      34.114 -21.932 -13.162  0.00  0.00    +0.152 HD
ATOM     18  H   UNL     1      37.722 -25.942 -11.110  0.00  0.00    +0.150 HD
ENDBRANCH   2  14
BRANCH   4  20
ATOM     19  N   UNL     1      32.311 -19.846 -20.542  0.00  0.00    -0.244 NA
ATOM     20  C   UNL     1      32.971 -21.042 -18.551  0.00  0.00    +0.037 C 
ATOM     21  C   UNL     1      34.290 -20.669 -18.767  0.00  0.00    +0.005 C 
ATOM     22  C   UNL     1      34.626 -19.880 -19.876  0.00  0.00    +0.018 C 
ATOM     23  C   UNL     1      33.591 -19.486 -20.750  0.00  0.00    +0.081 C 
ATOM     24  C   UNL     1      32.028 -20.608 -19.461  0.00  0.00    +0.100 C 
ATOM     25  C   UNL     1      35.952 -19.485 -20.123  0.00  0.00    +0.001 C 
ATOM     26  C   UNL     1      33.926 -18.702 -21.850  0.00  0.00    +0.019 C 
ATOM     27  C   UNL     1      36.258 -18.701 -21.232  0.00  0.00    +0.000 C 
ATOM     28  C   UNL     1      35.244 -18.309 -22.096  0.00  0.00    +0.002 C 
ENDBRANCH   4  20
TORSDOF 2
ENDMDL
MODEL 2
REMARK VINA RESULT:     -11.9      6.456     11.585
REMARK  Name = 10389239
REMARK  2 active torsions:
REMARK  status: ('A' for Active; 'I' for Inactive)
REMARK    1  A    between atoms: C_2  and  C_14
REMARK    2  A    between atoms: C_4  and  C_20
REMARK                            x       y       z     vdW  Elec       q    Type
REMARK                         _______ _______ _______ _____ _____    ______ ____
ROOT
ATOM      1  N   UNL     1      34.393 -17.287 -23.449  0.00  0.00    -0.244 NA
ATOM      2  C   UNL     1      33.353 -14.810 -22.680  0.00  0.00    +0.016 C 
ATOM      3  C   UNL     1      33.627 -15.778 -21.721  0.00  0.00    +0.020 C 
ATOM      4  C   UNL     1      34.142 -16.990 -22.154  0.00  0.00    +0.083 C 
ATOM      5  C   UNL     1      33.597 -15.077 -24.023  0.00  0.00    +0.022 C 
ATOM      6  C   UNL     1      34.114 -16.321 -24.351  0.00  0.00    +0.099 C 
ENDROOT
BRANCH   2  14
ATOM      7  O   UNL     1      32.668  -9.254 -23.022  0.00  0.00    -0.270 OA
ATOM      8  N   UNL     1      32.021 -13.387 -21.173  0.00  0.00    -0.316 N 
ATOM      9  N   UNL     1      31.109  -9.401 -21.323  0.00  0.00    -0.300 N 
ATOM     10  C   UNL     1      31.669 -12.074 -21.048  0.00  0.00    +0.031 C 
ATOM     11  C   UNL     1      30.840 -11.490 -19.968  0.00  0.00    +0.063 C 
ATOM     12  C   UNL     1      32.234 -11.364 -22.087  0.00  0.00    +0.064 C 
ATOM     13  C   UNL     1      30.193 -10.212 -20.512  0.00  0.00    +0.096 C 
ATOM     14  C   UNL     1      32.816 -13.530 -22.284  0.00  0.00    +0.048 C 
ATOM     15  C   UNL     1      32.969 -12.288 -22.867  0.00  0.00    +0.020 C 
ATOM     16  C   UNL     1      32.042  -9.931 -22.212  0.00  0.00    +0.247 C 
ATOM     17  H   UNL     1      31.750 -14.113 -20.566  0.00  0.00    +0.152 HD
ATOM     18  H   UNL     1      31.061  -8.422 -21.232  0.00  0.00    +0.150 HD
ENDBRANCH   2  14
BRANCH   4  20
ATOM     19  N   UNL     1      36.101 -19.234 -19.915  0.00  0.00    -0.244 NA
ATOM     20  C   UNL     1      34.451 -18.043 -21.216  0.00  0.00    +0.037 C 
ATOM     21  C   UNL     1      33.459 -18.870 -20.711  0.00  0.00    +0.005 C 
ATOM     22  C   UNL     1      33.784 -19.886 -19.802  0.00  0.00    +0.018 C 
ATOM     23  C   UNL     1      35.136 -20.035 -19.426  0.00  0.00    +0.081 C 
ATOM     24  C   UNL     1      35.746 -18.266 -20.790  0.00  0.00    +0.100 C 
ATOM     25  C   UNL     1      32.802 -20.741 -19.270  0.00  0.00    +0.001 C 
ATOM     26  C   UNL     1      35.458 -21.044 -18.523  0.00  0.00    +0.019 C 
ATOM     27  C   UNL     1      33.153 -21.742 -18.369  0.00  0.00    +0.000 C 
ATOM     28  C   UNL     1      34.482 -21.894 -17.995  0.00  0.00    +0.002 C 
ENDBRANCH   4  20
TORSDOF 2
ENDMDL
MODEL 3
REMARK VINA RESULT:     -11.5      3.308      8.541
REMARK  Name = 10389239
REMARK  2 active torsions:
REMARK  status: ('A' for Active; 'I' for Inactive)
REMARK    1  A    between atoms: C_2  and  C_14
REMARK    2  A    between atoms: C_4  and  C_20
REMARK                            x       y       z     vdW  Elec       q    Type
REMARK                         _______ _______ _______ _____ _____    ______ ____
ROOT
ATOM      1  N   UNL     1      35.138 -22.914 -15.005  0.00  0.00    -0.244 NA
ATOM      2  C   UNL     1      35.096 -21.403 -17.355  0.00  0.00    +0.016 C 
ATOM      3  C   UNL     1      33.912 -21.912 -16.833  0.00  0.00    +0.020 C 
ATOM      4  C   UNL     1      33.987 -22.655 -15.665  0.00  0.00    +0.083 C 
ATOM      5  C   UNL     1      36.301 -21.649 -16.706  0.00  0.00    +0.022 C 
ATOM      6  C   UNL     1      36.267 -22.403 -15.543  0.00  0.00    +0.099 C 
ENDROOT
BRANCH   2  14
ATOM      7  O   UNL     1      37.289 -18.079 -21.304  0.00  0.00    -0.270 OA
ATOM      8  N   UNL     1      33.924 -20.436 -19.295  0.00  0.00    -0.316 N 
ATOM      9  N   UNL     1      35.295 -18.237 -22.461  0.00  0.00    -0.300 N 
ATOM     10  C   UNL     1      34.208 -19.659 -20.380  0.00  0.00    +0.031 C 
ATOM     11  C   UNL     1      33.239 -19.200 -21.403  0.00  0.00    +0.063 C 
ATOM     12  C   UNL     1      35.550 -19.344 -20.360  0.00  0.00    +0.064 C 
ATOM     13  C   UNL     1      34.017 -18.921 -22.694  0.00  0.00    +0.096 C 
ATOM     14  C   UNL     1      35.076 -20.622 -18.569  0.00  0.00    +0.048 C 
ATOM     15  C   UNL     1      36.100 -19.949 -19.205  0.00  0.00    +0.020 C 
ATOM     16  C   UNL     1      36.144 -18.513 -21.390  0.00  0.00    +0.247 C 
ATOM     17  H   UNL     1      33.040 -20.805 -19.069  0.00  0.00    +0.152 HD
ATOM     18  H   UNL     1      35.569 -17.541 -23.101  0.00  0.00    +0.150 HD
ENDBRANCH   2  14
BRANCH   4  20
ATOM     19  N   UNL     1      31.802 -24.557 -13.322  0.00  0.00    -0.244 NA
ATOM     20  C   UNL     1      32.800 -23.214 -15.064  0.00  0.00    +0.037 C 
ATOM     21  C   UNL     1      31.543 -22.980 -15.601  0.00  0.00    +0.005 C 
ATOM     22  C   UNL     1      30.405 -23.535 -14.999  0.00  0.00    +0.018 C 
ATOM     23  C   UNL     1      30.583 -24.328 -13.846  0.00  0.00    +0.081 C 
ATOM     24  C   UNL     1      32.874 -24.004 -13.933  0.00  0.00    +0.100 C 
ATOM     25  C   UNL     1      29.117 -23.316 -15.518  0.00  0.00    +0.001 C 
ATOM     26  C   UNL     1      29.452 -24.878 -13.248  0.00  0.00    +0.019 C 
ATOM     27  C   UNL     1      28.004 -23.880 -14.900  0.00  0.00    +0.000 C 
ATOM     28  C   UNL     1      28.172 -24.661 -13.764  0.00  0.00    +0.002 C 
ENDBRANCH   4  20
TORSDOF 2
ENDMDL
MODEL 4
REMARK VINA RESULT:     -11.5      1.618      2.261
REMARK  Name = 10389239
REMARK  2 active torsions:
REMARK  status: ('A' for Active; 'I' for Inactive)
REMARK    1  A    between atoms: C_2  and  C_14
REMARK    2  A    between atoms: C_4  and  C_20
REMARK                            x       y       z     vdW  Elec       q    Type
REMARK                         _______ _______ _______ _____ _____    ______ ____
ROOT
ATOM      1  N   UNL     1      32.404 -22.114 -17.884  0.00  0.00    -0.244 NA
ATOM      2  C   UNL     1      33.939 -22.912 -15.689  0.00  0.00    +0.016 C 
ATOM      3  C   UNL     1      34.483 -22.068 -16.650  0.00  0.00    +0.020 C 
ATOM      4  C   UNL     1      33.682 -21.702 -17.719  0.00  0.00    +0.083 C 
ATOM      5  C   UNL     1      32.629 -23.359 -15.823  0.00  0.00    +0.022 C 
ATOM      6  C   UNL     1      31.910 -22.933 -16.929  0.00  0.00    +0.099 C 
ENDROOT
BRANCH   2  14
ATOM      7  O   UNL     1      37.039 -22.110 -11.084  0.00  0.00    -0.270 OA
ATOM      8  N   UNL     1      35.051 -24.642 -14.333  0.00  0.00    -0.316 N 
ATOM      9  N   UNL     1      37.117 -24.403 -10.809  0.00  0.00    -0.300 N 
ATOM     10  C   UNL     1      35.804 -24.728 -13.197  0.00  0.00    +0.031 C 
ATOM     11  C   UNL     1      36.379 -25.966 -12.621  0.00  0.00    +0.063 C 
ATOM     12  C   UNL     1      35.967 -23.461 -12.678  0.00  0.00    +0.064 C 
ATOM     13  C   UNL     1      36.583 -25.734 -11.120  0.00  0.00    +0.096 C 
ATOM     14  C   UNL     1      34.730 -23.325 -14.554  0.00  0.00    +0.048 C 
ATOM     15  C   UNL     1      35.291 -22.569 -13.545  0.00  0.00    +0.020 C 
ATOM     16  C   UNL     1      36.737 -23.235 -11.470  0.00  0.00    +0.247 C 
ATOM     17  H   UNL     1      34.781 -25.400 -14.900  0.00  0.00    +0.152 HD
ATOM     18  H   UNL     1      37.785 -24.330 -10.089  0.00  0.00    +0.150 HD
ENDBRANCH   2  14
BRANCH   4  20
ATOM     19  N   UNL     1      36.019 -19.588 -19.707  0.00  0.00    -0.244 NA
ATOM     20  C   UNL     1      34.178 -20.828 -18.755  0.00  0.00    +0.037 C 
ATOM     21  C   UNL     1      33.352 -20.380 -19.775  0.00  0.00    +0.005 C 
ATOM     22  C   UNL     1      33.857 -19.532 -20.770  0.00  0.00    +0.018 C 
ATOM     23  C   UNL     1      35.215 -19.155 -20.696  0.00  0.00    +0.081 C 
ATOM     24  C   UNL     1      35.493 -20.405 -18.766  0.00  0.00    +0.100 C 
ATOM     25  C   UNL     1      33.047 -19.062 -21.818  0.00  0.00    +0.001 C 
ATOM     26  C   UNL     1      35.716 -18.313 -21.685  0.00  0.00    +0.019 C 
ATOM     27  C   UNL     1      33.574 -18.220 -22.793  0.00  0.00    +0.000 C 
ATOM     28  C   UNL     1      34.911 -17.845 -22.726  0.00  0.00    +0.002 C 
ENDBRANCH   4  20
TORSDOF 2
ENDMDL
MODEL 5
REMARK VINA RESULT:     -11.4      6.282     11.686
REMARK  Name = 10389239
REMARK  2 active torsions:
REMARK  status: ('A' for Active; 'I' for Inactive)
REMARK    1  A    between atoms: C_2  and  C_14
REMARK    2  A    between atoms: C_4  and  C_20
REMARK                            x       y       z     vdW  Elec       q    Type
REMARK                         _______ _______ _______ _____ _____    ______ ____
ROOT
ATOM      1  N   UNL     1      34.204 -17.396 -23.644  0.00  0.00    -0.244 NA
ATOM      2  C   UNL     1      33.288 -14.845 -22.966  0.00  0.00    +0.016 C 
ATOM      3  C   UNL     1      33.620 -15.754 -21.968  0.00  0.00    +0.020 C 
ATOM      4  C   UNL     1      34.069 -17.006 -22.356  0.00  0.00    +0.083 C 
ATOM      5  C   UNL     1      33.411 -15.209 -24.302  0.00  0.00    +0.022 C 
ATOM      6  C   UNL     1      33.872 -16.485 -24.585  0.00  0.00    +0.099 C 
ENDROOT
BRANCH   2  14
ATOM      7  O   UNL     1      30.342 -11.120 -19.982  0.00  0.00    -0.270 OA
ATOM      8  N   UNL     1      33.134 -12.419 -23.363  0.00  0.00    -0.316 N 
ATOM      9  N   UNL     1      31.322  -9.437 -21.225  0.00  0.00    -0.300 N 
ATOM     10  C   UNL     1      32.546 -11.323 -22.800  0.00  0.00    +0.031 C 
ATOM     11  C   UNL     1      32.618  -9.933 -23.310  0.00  0.00    +0.063 C 
ATOM     12  C   UNL     1      31.847 -11.722 -21.681  0.00  0.00    +0.064 C 
ATOM     13  C   UNL     1      32.389  -8.987 -22.127  0.00  0.00    +0.096 C 
ATOM     14  C   UNL     1      32.814 -13.527 -22.617  0.00  0.00    +0.048 C 
ATOM     15  C   UNL     1      32.011 -13.123 -21.569  0.00  0.00    +0.020 C 
ATOM     16  C   UNL     1      31.105 -10.769 -20.876  0.00  0.00    +0.247 C 
ATOM     17  H   UNL     1      33.696 -12.416 -24.172  0.00  0.00    +0.152 HD
ATOM     18  H   UNL     1      30.722  -8.756 -20.844  0.00  0.00    +0.150 HD
ENDBRANCH   2  14
BRANCH   4  20
ATOM     19  N   UNL     1      36.138 -19.034 -20.013  0.00  0.00    -0.244 NA
ATOM     20  C   UNL     1      34.433 -18.001 -21.376  0.00  0.00    +0.037 C 
ATOM     21  C   UNL     1      33.489 -18.872 -20.851  0.00  0.00    +0.005 C 
ATOM     22  C   UNL     1      33.867 -19.830 -19.900  0.00  0.00    +0.018 C 
ATOM     23  C   UNL     1      35.220 -19.877 -19.505  0.00  0.00    +0.081 C 
ATOM     24  C   UNL     1      35.733 -18.124 -20.928  0.00  0.00    +0.100 C 
ATOM     25  C   UNL     1      32.935 -20.726 -19.348  0.00  0.00    +0.001 C 
ATOM     26  C   UNL     1      35.594 -20.829 -18.561  0.00  0.00    +0.019 C 
ATOM     27  C   UNL     1      33.337 -21.669 -18.406  0.00  0.00    +0.000 C 
ATOM     28  C   UNL     1      34.668 -21.720 -18.012  0.00  0.00    +0.002 C 
ENDBRANCH   4  20
TORSDOF 2
ENDMDL
MODEL 6
REMARK VINA RESULT:     -11.0      9.036     14.256
REMARK  Name = 10389239
REMARK  2 active torsions:
REMARK  status: ('A' for Active; 'I' for Inactive)
REMARK    1  A    between atoms: C_2  and  C_14
REMARK    2  A    between atoms: C_4  and  C_20
REMARK                            x       y       z     vdW  Elec       q    Type
REMARK                         _______ _______ _______ _____ _____    ______ ____
ROOT
ATOM      1  N   UNL     1      32.957 -13.820 -25.054  0.00  0.00    -0.244 NA
ATOM      2  C   UNL     1      32.874 -11.210 -24.058  0.00  0.00    +0.016 C 
ATOM      3  C   UNL     1      33.180 -12.269 -23.212  0.00  0.00    +0.020 C 
ATOM      4  C   UNL     1      33.208 -13.544 -23.755  0.00  0.00    +0.083 C 
ATOM      5  C   UNL     1      32.607 -11.452 -25.401  0.00  0.00    +0.022 C 
ATOM      6  C   UNL     1      32.663 -12.764 -25.846  0.00  0.00    +0.099 C 
ENDROOT
BRANCH   2  14
ATOM      7  O   UNL     1      34.308  -5.792 -23.864  0.00  0.00    -0.270 OA
ATOM      8  N   UNL     1      32.096  -9.530 -22.433  0.00  0.00    -0.316 N 
ATOM      9  N   UNL     1      32.730  -5.494 -22.203  0.00  0.00    -0.300 N 
ATOM     10  C   UNL     1      32.249  -8.197 -22.185  0.00  0.00    +0.031 C 
ATOM     11  C   UNL     1      31.646  -7.442 -21.061  0.00  0.00    +0.063 C 
ATOM     12  C   UNL     1      33.082  -7.661 -23.144  0.00  0.00    +0.064 C 
ATOM     13  C   UNL     1      31.542  -5.973 -21.484  0.00  0.00    +0.096 C 
ATOM     14  C   UNL     1      32.831  -9.862 -23.545  0.00  0.00    +0.048 C 
ATOM     15  C   UNL     1      33.459  -8.720 -24.003  0.00  0.00    +0.020 C 
ATOM     16  C   UNL     1      33.440  -6.255 -23.131  0.00  0.00    +0.247 C 
ATOM     17  H   UNL     1      31.547 -10.152 -21.903  0.00  0.00    +0.152 HD
ATOM     18  H   UNL     1      33.043  -4.579 -22.018  0.00  0.00    +0.150 HD
ENDBRANCH   2  14
BRANCH   4  20
ATOM     19  N   UNL     1      34.050 -15.601 -20.764  0.00  0.00    -0.244 NA
ATOM     20  C   UNL     1      33.519 -14.693 -22.938  0.00  0.00    +0.037 C 
ATOM     21  C   UNL     1      33.593 -15.965 -23.485  0.00  0.00    +0.005 C 
ATOM     22  C   UNL     1      33.896 -17.066 -22.671  0.00  0.00    +0.018 C 
ATOM     23  C   UNL     1      34.121 -16.835 -21.297  0.00  0.00    +0.081 C 
ATOM     24  C   UNL     1      33.755 -14.566 -21.583  0.00  0.00    +0.100 C 
ATOM     25  C   UNL     1      33.978 -18.368 -23.194  0.00  0.00    +0.001 C 
ATOM     26  C   UNL     1      34.422 -17.927 -20.490  0.00  0.00    +0.019 C 
ATOM     27  C   UNL     1      34.282 -19.443 -22.363  0.00  0.00    +0.000 C 
ATOM     28  C   UNL     1      34.504 -19.222 -21.009  0.00  0.00    +0.002 C 
ENDBRANCH   4  20
TORSDOF 2
ENDMDL
MODEL 7
REMARK VINA RESULT:     -10.9      9.501     13.352
REMARK  Name = 10389239
REMARK  2 active torsions:
REMARK  status: ('A' for Active; 'I' for Inactive)
REMARK    1  A    between atoms: C_2  and  C_14
REMARK    2  A    between atoms: C_4  and  C_20
REMARK                            x       y       z     vdW  Elec       q    Type
REMARK                         _______ _______ _______ _____ _____    ______ ____
ROOT
ATOM      1  N   UNL     1      30.485  -9.732 -20.261  0.00  0.00    -0.244 NA
ATOM      2  C   UNL     1      31.808 -12.055 -21.075  0.00  0.00    +0.016 C 
ATOM      3  C   UNL     1      31.976 -10.872 -21.785  0.00  0.00    +0.020 C 
ATOM      4  C   UNL     1      31.298  -9.748 -21.341  0.00  0.00    +0.083 C 
ATOM      5  C   UNL     1      30.979 -12.080 -19.959  0.00  0.00    +0.022 C 
ATOM      6  C   UNL     1      30.346 -10.901 -19.597  0.00  0.00    +0.099 C 
ENDROOT
BRANCH   2  14
ATOM      7  O   UNL     1      34.600 -16.857 -20.297  0.00  0.00    -0.270 OA
ATOM      8  N   UNL     1      32.727 -13.533 -22.819  0.00  0.00    -0.316 N 
ATOM      9  N   UNL     1      34.539 -17.194 -22.582  0.00  0.00    -0.300 N 
ATOM     10  C   UNL     1      33.389 -14.723 -22.910  0.00  0.00    +0.031 C 
ATOM     11  C   UNL     1      33.856 -15.371 -24.158  0.00  0.00    +0.063 C 
ATOM     12  C   UNL     1      33.579 -15.222 -21.638  0.00  0.00    +0.064 C 
ATOM     13  C   UNL     1      33.960 -16.877 -23.893  0.00  0.00    +0.096 C 
ATOM     14  C   UNL     1      32.492 -13.255 -21.494  0.00  0.00    +0.048 C 
ATOM     15  C   UNL     1      33.016 -14.285 -20.739  0.00  0.00    +0.020 C 
ATOM     16  C   UNL     1      34.269 -16.478 -21.417  0.00  0.00    +0.247 C 
ATOM     17  H   UNL     1      32.461 -12.966 -23.579  0.00  0.00    +0.152 HD
ATOM     18  H   UNL     1      35.155 -17.959 -22.522  0.00  0.00    +0.150 HD
ENDBRANCH   2  14
BRANCH   4  20
ATOM     19  N   UNL     1      30.400  -6.432 -22.784  0.00  0.00    -0.244 NA
ATOM     20  C   UNL     1      31.423  -8.484 -22.027  0.00  0.00    +0.037 C 
ATOM     21  C   UNL     1      32.629  -8.086 -22.584  0.00  0.00    +0.005 C 
ATOM     22  C   UNL     1      32.727  -6.854 -23.246  0.00  0.00    +0.018 C 
ATOM     23  C   UNL     1      31.571  -6.048 -23.324  0.00  0.00    +0.081 C 
ATOM     24  C   UNL     1      30.347  -7.628 -22.154  0.00  0.00    +0.100 C 
ATOM     25  C   UNL     1      33.934  -6.420 -23.820  0.00  0.00    +0.001 C 
ATOM     26  C   UNL     1      31.669  -4.825 -23.981  0.00  0.00    +0.019 C 
ATOM     27  C   UNL     1      34.003  -5.191 -24.472  0.00  0.00    +0.000 C 
ATOM     28  C   UNL     1      32.869  -4.393 -24.552  0.00  0.00    +0.002 C 
ENDBRANCH   4  20
TORSDOF 2
ENDMDL
MODEL 8
REMARK VINA RESULT:     -10.8      8.049     12.226
REMARK  Name = 10389239
REMARK  2 active torsions:
REMARK  status: ('A' for Active; 'I' for Inactive)
REMARK    1  A    between atoms: C_2  and  C_14
REMARK    2  A    between atoms: C_4  and  C_20
REMARK                            x       y       z     vdW  Elec       q    Type
REMARK                         _______ _______ _______ _____ _____    ______ ____
ROOT
ATOM      1  N   UNL     1      32.438 -11.751 -25.498  0.00  0.00    -0.244 NA
ATOM      2  C   UNL     1      33.143 -14.098 -24.155  0.00  0.00    +0.016 C 
ATOM      3  C   UNL     1      33.257 -12.868 -23.516  0.00  0.00    +0.020 C 
ATOM      4  C   UNL     1      32.895 -11.734 -24.226  0.00  0.00    +0.083 C 
ATOM      5  C   UNL     1      32.678 -14.157 -25.464  0.00  0.00    +0.022 C 
ATOM      6  C   UNL     1      32.341 -12.965 -26.085  0.00  0.00    +0.099 C 
ENDROOT
BRANCH   2  14
ATOM      7  O   UNL     1      33.877 -19.633 -23.630  0.00  0.00    -0.270 OA
ATOM      8  N   UNL     1      33.872 -15.310 -22.138  0.00  0.00    -0.316 N 
ATOM      9  N   UNL     1      34.761 -19.258 -21.529  0.00  0.00    -0.300 N 
ATOM     10  C   UNL     1      34.153 -16.590 -21.757  0.00  0.00    +0.031 C 
ATOM     11  C   UNL     1      34.560 -17.030 -20.402  0.00  0.00    +0.063 C 
ATOM     12  C   UNL     1      33.975 -17.424 -22.841  0.00  0.00    +0.064 C 
ATOM     13  C   UNL     1      35.348 -18.336 -20.549  0.00  0.00    +0.096 C 
ATOM     14  C   UNL     1      33.506 -15.311 -23.462  0.00  0.00    +0.048 C 
ATOM     15  C   UNL     1      33.555 -16.612 -23.922  0.00  0.00    +0.020 C 
ATOM     16  C   UNL     1      34.191 -18.854 -22.735  0.00  0.00    +0.247 C 
ATOM     17  H   UNL     1      33.923 -14.516 -21.559  0.00  0.00    +0.152 HD
ATOM     18  H   UNL     1      34.770 -20.220 -21.320  0.00  0.00    +0.150 HD
ENDBRANCH   2  14
BRANCH   4  20
ATOM     19  N   UNL     1      34.185  -8.341 -23.387  0.00  0.00    -0.244 NA
ATOM     20  C   UNL     1      32.987 -10.424 -23.629  0.00  0.00    +0.037 C 
ATOM     21  C   UNL     1      32.019  -9.966 -22.747  0.00  0.00    +0.005 C 
ATOM     22  C   UNL     1      32.129  -8.689 -22.180  0.00  0.00    +0.018 C 
ATOM     23  C   UNL     1      33.244  -7.899 -22.532  0.00  0.00    +0.081 C 
ATOM     24  C   UNL     1      34.042  -9.579 -23.913  0.00  0.00    +0.100 C 
ATOM     25  C   UNL     1      31.165  -8.195 -21.284  0.00  0.00    +0.001 C 
ATOM     26  C   UNL     1      33.353  -6.631 -21.969  0.00  0.00    +0.019 C 
ATOM     27  C   UNL     1      31.300  -6.923 -20.735  0.00  0.00    +0.000 C 
ATOM     28  C   UNL     1      32.395  -6.140 -21.078  0.00  0.00    +0.002 C 
ENDBRANCH   4  20
TORSDOF 2
ENDMDL
MODEL 9
REMARK VINA RESULT:     -10.7      8.660     13.456
REMARK  Name = 10389239
REMARK  2 active torsions:
REMARK  status: ('A' for Active; 'I' for Inactive)
REMARK    1  A    between atoms: C_2  and  C_14
REMARK    2  A    between atoms: C_4  and  C_20
REMARK                            x       y       z     vdW  Elec       q    Type
REMARK                         _______ _______ _______ _____ _____    ______ ____
ROOT
ATOM      1  N   UNL     1      33.280 -12.576 -25.046  0.00  0.00    -0.244 NA
ATOM      2  C   UNL     1      32.470 -10.825 -23.024  0.00  0.00    +0.016 C 
ATOM      3  C   UNL     1      32.636 -12.177 -22.750  0.00  0.00    +0.020 C 
ATOM      4  C   UNL     1      33.039 -13.004 -23.786  0.00  0.00    +0.083 C 
ATOM      5  C   UNL     1      32.707 -10.346 -24.308  0.00  0.00    +0.022 C 
ATOM      6  C   UNL     1      33.108 -11.255 -25.274  0.00  0.00    +0.099 C 
ENDROOT
BRANCH   2  14
ATOM      7  O   UNL     1      30.046  -9.436 -18.161  0.00  0.00    -0.270 OA
ATOM      8  N   UNL     1      32.231  -8.561 -22.083  0.00  0.00    -0.316 N 
ATOM      9  N   UNL     1      30.785  -7.270 -18.479  0.00  0.00    -0.300 N 
ATOM     10  C   UNL     1      31.739  -7.966 -20.957  0.00  0.00    +0.031 C 
ATOM     11  C   UNL     1      31.710  -6.511 -20.679  0.00  0.00    +0.063 C 
ATOM     12  C   UNL     1      31.244  -8.944 -20.120  0.00  0.00    +0.064 C 
ATOM     13  C   UNL     1      31.679  -6.324 -19.158  0.00  0.00    +0.096 C 
ATOM     14  C   UNL     1      32.052  -9.919 -21.981  0.00  0.00    +0.048 C 
ATOM     15  C   UNL     1      31.436 -10.184 -20.774  0.00  0.00    +0.020 C 
ATOM     16  C   UNL     1      30.643  -8.608 -18.843  0.00  0.00    +0.247 C 
ATOM     17  H   UNL     1      32.646  -8.094 -22.843  0.00  0.00    +0.152 HD
ATOM     18  H   UNL     1      30.254  -6.938 -17.720  0.00  0.00    +0.150 HD
ENDBRANCH   2  14
BRANCH   4  20
ATOM     19  N   UNL     1      33.046 -16.677 -24.412  0.00  0.00    -0.244 NA
ATOM     20  C   UNL     1      33.233 -14.419 -23.576  0.00  0.00    +0.037 C 
ATOM     21  C   UNL     1      33.768 -14.903 -22.392  0.00  0.00    +0.005 C 
ATOM     22  C   UNL     1      33.947 -16.282 -22.212  0.00  0.00    +0.018 C 
ATOM     23  C   UNL     1      33.566 -17.145 -23.261  0.00  0.00    +0.081 C 
ATOM     24  C   UNL     1      32.890 -15.340 -24.546  0.00  0.00    +0.100 C 
ATOM     25  C   UNL     1      34.487 -16.805 -21.024  0.00  0.00    +0.001 C 
ATOM     26  C   UNL     1      33.744 -18.513 -23.081  0.00  0.00    +0.019 C 
ATOM     27  C   UNL     1      34.653 -18.179 -20.871  0.00  0.00    +0.000 C 
ATOM     28  C   UNL     1      34.281 -19.034 -21.901  0.00  0.00    +0.002 C 
ENDBRANCH   4  20
TORSDOF 2
ENDMDL
