MODEL 1
REMARK VINA RESULT:     -12.5      0.000      0.000
REMARK  Name = 51049992
REMARK  10 active torsions:
REMARK  status: ('A' for Active; 'I' for Inactive)
REMARK    1  A    between atoms: C_1  and  C_7
REMARK    2  A    between atoms: C_6  and  C_23
REMARK    3  A    between atoms: C_7  and  N_8
REMARK    4  A    between atoms: C_23  and  O_24
REMARK    5  A    between atoms: O_24  and  C_25
REMARK    6  A    between atoms: C_26  and  C_31
REMARK    7  A    between atoms: C_31  and  C_32
REMARK    8  A    between atoms: C_31  and  C_35
REMARK    9  A    between atoms: C_35  and  C_37
REMARK   10  A    between atoms: C_37  and  O_38
REMARK                            x       y       z     vdW  Elec       q    Type
REMARK                         _______ _______ _______ _____ _____    ______ ____
ROOT
ATOM      1  C   UNL     1      32.377 -13.006 -21.728  0.00  0.00    -0.043 C 
ATOM      2  C   UNL     1      33.215 -13.769 -20.913  0.00  0.00    -0.007 C 
ATOM      3  C   UNL     1      32.120 -13.413 -23.037  0.00  0.00    -0.007 C 
ATOM      4  C   UNL     1      33.794 -14.937 -21.408  0.00  0.00    -0.001 C 
ATOM      5  C   UNL     1      32.699 -14.581 -23.532  0.00  0.00    -0.001 C 
ATOM      6  C   UNL     1      33.537 -15.343 -22.717  0.00  0.00    +0.021 C 
ENDROOT
BRANCH   1   7
ATOM      7  C   UNL     1      31.752 -11.746 -21.193  0.00  0.00    -0.050 C 
BRANCH   7   8
ATOM      8  N   UNL     1      31.790 -10.661 -22.174  0.00  0.00    +0.390 N 
ATOM      9  C   UNL     1      32.752  -8.135 -23.351  0.00  0.00    +0.033 C 
ATOM     10  C   UNL     1      33.139  -9.517 -23.908  0.00  0.00    -0.015 C 
ATOM     11  C   UNL     1      31.436  -8.240 -22.559  0.00  0.00    -0.015 C 
ATOM     12  C   UNL     1      31.463  -9.379 -21.534  0.00  0.00    -0.076 C 
ATOM     13  C   UNL     1      33.102 -10.609 -22.832  0.00  0.00    -0.076 C 
ATOM     14  C   UNL     1      32.668  -7.092 -24.445  0.00  0.00    -0.019 C 
ATOM     15  C   UNL     1      33.872  -7.537 -22.501  0.00  0.00    -0.023 C 
ATOM     16  C   UNL     1      33.613  -6.081 -24.207  0.00  0.00    -0.004 C 
ATOM     17  C   UNL     1      34.347  -6.383 -22.994  0.00  0.00    -0.005 C 
ATOM     18  C   UNL     1      31.836  -7.037 -25.551  0.00  0.00    -0.004 C 
ATOM     19  C   UNL     1      33.743  -5.001 -25.065  0.00  0.00    -0.000 C 
ATOM     20  C   UNL     1      31.960  -5.952 -26.423  0.00  0.00    -0.000 C 
ATOM     21  C   UNL     1      32.906  -4.943 -26.182  0.00  0.00    -0.000 C 
ATOM     22  H   UNL     1      31.088 -10.841 -22.890  0.00  0.00    -0.079 HD
ENDBRANCH   7   8
ENDBRANCH   1   7
BRANCH   6  23
ATOM     23  C   UNL     1      34.154 -16.593 -23.245  0.00  0.00    +0.232 C 
BRANCH  23  24
ATOM     24  O   UNL     1      35.224 -16.989 -22.395  0.00  0.00    -0.471 OA
BRANCH  24  25
ATOM     25  C   UNL     1      34.989 -18.049 -21.560  0.00  0.00    +0.139 C 
ATOM     26  C   UNL     1      34.510 -20.206 -19.856  0.00  0.00    -0.010 C 
ATOM     27  C   UNL     1      33.761 -18.709 -21.598  0.00  0.00    +0.037 C 
ATOM     28  C   UNL     1      35.977 -18.467 -20.668  0.00  0.00    +0.037 C 
ATOM     29  C   UNL     1      33.521 -19.788 -20.747  0.00  0.00    -0.000 C 
ATOM     30  C   UNL     1      35.737 -19.545 -19.816  0.00  0.00    -0.000 C 
BRANCH  26  31
ATOM     31  C   UNL     1      34.254 -21.359 -18.946  0.00  0.00    +0.097 C 
BRANCH  31  32
ATOM     32  C   UNL     1      35.183 -21.357 -17.782  0.00  0.00    -0.087 C 
ATOM     33  C   UNL     1      35.921 -21.364 -16.834  0.00  0.00    -0.090 C 
ATOM     34  C   UNL     1      36.817 -21.371 -15.679  0.00  0.00    +0.090 C 
ENDBRANCH  31  32
BRANCH  31  35
ATOM     35  C   UNL     1      32.783 -21.406 -18.451  0.00  0.00    +0.127 C 
BRANCH  35  37
ATOM     36  O   UNL     1      31.919 -22.586 -16.497  0.00  0.00    -0.250 OA
ATOM     37  C   UNL     1      32.455 -22.615 -17.596  0.00  0.00    +0.315 C 
BRANCH  37  38
ATOM     38  O   UNL     1      32.820 -23.770 -18.212  0.00  0.00    -0.480 OA
ATOM     39  H   UNL     1      32.215 -24.214 -18.771  0.00  0.00    +0.295 HD
ENDBRANCH  37  38
ENDBRANCH  35  37
ENDBRANCH  31  35
ENDBRANCH  26  31
ENDBRANCH  24  25
ENDBRANCH  23  24
ENDBRANCH   6  23
TORSDOF 10
ENDMDL
MODEL 2
REMARK VINA RESULT:     -12.3      2.773      5.833
REMARK  Name = 51049992
REMARK  10 active torsions:
REMARK  status: ('A' for Active; 'I' for Inactive)
REMARK    1  A    between atoms: C_1  and  C_7
REMARK    2  A    between atoms: C_6  and  C_23
REMARK    3  A    between atoms: C_7  and  N_8
REMARK    4  A    between atoms: C_23  and  O_24
REMARK    5  A    between atoms: O_24  and  C_25
REMARK    6  A    between atoms: C_26  and  C_31
REMARK    7  A    between atoms: C_31  and  C_32
REMARK    8  A    between atoms: C_31  and  C_35
REMARK    9  A    between atoms: C_35  and  C_37
REMARK   10  A    between atoms: C_37  and  O_38
REMARK                            x       y       z     vdW  Elec       q    Type
REMARK                         _______ _______ _______ _____ _____    ______ ____
ROOT
ATOM      1  C   UNL     1      34.445 -17.796 -22.174  0.00  0.00    -0.043 C 
ATOM      2  C   UNL     1      33.443 -18.656 -21.723  0.00  0.00    -0.007 C 
ATOM      3  C   UNL     1      35.724 -17.866 -21.620  0.00  0.00    -0.007 C 
ATOM      4  C   UNL     1      33.720 -19.585 -20.720  0.00  0.00    -0.001 C 
ATOM      5  C   UNL     1      36.001 -18.795 -20.617  0.00  0.00    -0.001 C 
ATOM      6  C   UNL     1      34.999 -19.655 -20.167  0.00  0.00    +0.021 C 
ENDROOT
BRANCH   1   7
ATOM      7  C   UNL     1      34.146 -16.794 -23.256  0.00  0.00    -0.050 C 
BRANCH   7   8
ATOM      8  N   UNL     1      33.410 -15.639 -22.740  0.00  0.00    +0.390 N 
ATOM      9  C   UNL     1      32.715 -12.785 -22.500  0.00  0.00    +0.033 C 
ATOM     10  C   UNL     1      31.858 -13.790 -23.291  0.00  0.00    -0.015 C 
ATOM     11  C   UNL     1      33.560 -13.530 -21.451  0.00  0.00    -0.015 C 
ATOM     12  C   UNL     1      34.323 -14.714 -22.053  0.00  0.00    -0.076 C 
ATOM     13  C   UNL     1      32.686 -14.965 -23.825  0.00  0.00    -0.076 C 
ATOM     14  C   UNL     1      31.869 -11.697 -21.871  0.00  0.00    -0.019 C 
ATOM     15  C   UNL     1      33.588 -11.938 -23.425  0.00  0.00    -0.023 C 
ATOM     16  C   UNL     1      32.242 -10.448 -22.391  0.00  0.00    -0.004 C 
ATOM     17  C   UNL     1      33.311 -10.627 -23.354  0.00  0.00    -0.005 C 
ATOM     18  C   UNL     1      30.860 -11.798 -20.927  0.00  0.00    -0.004 C 
ATOM     19  C   UNL     1      31.619  -9.282 -21.980  0.00  0.00    -0.000 C 
ATOM     20  C   UNL     1      30.225 -10.627 -20.505  0.00  0.00    -0.000 C 
ATOM     21  C   UNL     1      30.601  -9.379 -21.028  0.00  0.00    -0.000 C 
ATOM     22  H   UNL     1      32.724 -15.964 -22.059  0.00  0.00    -0.079 HD
ENDBRANCH   7   8
ENDBRANCH   1   7
BRANCH   6  23
ATOM     23  C   UNL     1      35.296 -20.650 -19.097  0.00  0.00    +0.232 C 
BRANCH  23  24
ATOM     24  O   UNL     1      34.239 -21.600 -19.028  0.00  0.00    -0.471 OA
BRANCH  24  25
ATOM     25  C   UNL     1      33.854 -22.005 -17.778  0.00  0.00    +0.139 C 
ATOM     26  C   UNL     1      33.070 -22.828 -15.230  0.00  0.00    -0.010 C 
ATOM     27  C   UNL     1      32.538 -22.407 -17.548  0.00  0.00    +0.037 C 
ATOM     28  C   UNL     1      34.778 -22.015 -16.733  0.00  0.00    +0.037 C 
ATOM     29  C   UNL     1      32.146 -22.819 -16.275  0.00  0.00    -0.000 C 
ATOM     30  C   UNL     1      34.386 -22.426 -15.459  0.00  0.00    -0.000 C 
BRANCH  26  31
ATOM     31  C   UNL     1      32.652 -23.269 -13.868  0.00  0.00    +0.097 C 
BRANCH  31  32
ATOM     32  C   UNL     1      31.262 -23.801 -13.865  0.00  0.00    -0.087 C 
ATOM     33  C   UNL     1      30.144 -24.243 -13.850  0.00  0.00    -0.090 C 
ATOM     34  C   UNL     1      28.786 -24.782 -13.835  0.00  0.00    +0.090 C 
ENDBRANCH  31  32
BRANCH  31  35
ATOM     35  C   UNL     1      33.624 -24.317 -13.262  0.00  0.00    +0.127 C 
BRANCH  35  37
ATOM     36  O   UNL     1      33.954 -24.550 -10.855  0.00  0.00    -0.250 OA
ATOM     37  C   UNL     1      34.167 -23.945 -11.896  0.00  0.00    +0.315 C 
BRANCH  37  38
ATOM     38  O   UNL     1      34.951 -22.837 -11.963  0.00  0.00    -0.480 OA
ATOM     39  H   UNL     1      34.673 -22.095 -12.460  0.00  0.00    +0.295 HD
ENDBRANCH  37  38
ENDBRANCH  35  37
ENDBRANCH  31  35
ENDBRANCH  26  31
ENDBRANCH  24  25
ENDBRANCH  23  24
ENDBRANCH   6  23
TORSDOF 10
ENDMDL
MODEL 3
REMARK VINA RESULT:     -12.0      3.958     14.064
REMARK  Name = 51049992
REMARK  10 active torsions:
REMARK  status: ('A' for Active; 'I' for Inactive)
REMARK    1  A    between atoms: C_1  and  C_7
REMARK    2  A    between atoms: C_6  and  C_23
REMARK    3  A    between atoms: C_7  and  N_8
REMARK    4  A    between atoms: C_23  and  O_24
REMARK    5  A    between atoms: O_24  and  C_25
REMARK    6  A    between atoms: C_26  and  C_31
REMARK    7  A    between atoms: C_31  and  C_32
REMARK    8  A    between atoms: C_31  and  C_35
REMARK    9  A    between atoms: C_35  and  C_37
REMARK   10  A    between atoms: C_37  and  O_38
REMARK                            x       y       z     vdW  Elec       q    Type
REMARK                         _______ _______ _______ _____ _____    ______ ____
ROOT
ATOM      1  C   UNL     1      32.786 -21.451 -18.342  0.00  0.00    -0.043 C 
ATOM      2  C   UNL     1      31.982 -20.619 -19.122  0.00  0.00    -0.007 C 
ATOM      3  C   UNL     1      34.173 -21.418 -18.491  0.00  0.00    -0.007 C 
ATOM      4  C   UNL     1      32.565 -19.754 -20.049  0.00  0.00    -0.001 C 
ATOM      5  C   UNL     1      34.756 -20.553 -19.417  0.00  0.00    -0.001 C 
ATOM      6  C   UNL     1      33.952 -19.722 -20.196  0.00  0.00    +0.021 C 
ENDROOT
BRANCH   1   7
ATOM      7  C   UNL     1      32.157 -22.383 -17.343  0.00  0.00    -0.050 C 
BRANCH   7   8
ATOM      8  N   UNL     1      32.954 -22.488 -16.120  0.00  0.00    +0.390 N 
ATOM      9  C   UNL     1      34.714 -23.819 -14.165  0.00  0.00    +0.033 C 
ATOM     10  C   UNL     1      35.225 -22.777 -15.177  0.00  0.00    -0.015 C 
ATOM     11  C   UNL     1      33.204 -23.627 -13.935  0.00  0.00    -0.015 C 
ATOM     12  C   UNL     1      32.421 -23.545 -15.249  0.00  0.00    -0.076 C 
ATOM     13  C   UNL     1      34.366 -22.727 -16.445  0.00  0.00    -0.076 C 
ATOM     14  C   UNL     1      35.492 -23.771 -12.867  0.00  0.00    -0.019 C 
ATOM     15  C   UNL     1      35.037 -25.244 -14.614  0.00  0.00    -0.023 C 
ATOM     16  C   UNL     1      36.136 -25.000 -12.657  0.00  0.00    -0.004 C 
ATOM     17  C   UNL     1      35.837 -25.896 -13.757  0.00  0.00    -0.005 C 
ATOM     18  C   UNL     1      35.621 -22.738 -11.952  0.00  0.00    -0.004 C 
ATOM     19  C   UNL     1      36.919 -25.220 -11.535  0.00  0.00    -0.000 C 
ATOM     20  C   UNL     1      36.407 -22.951 -10.817  0.00  0.00    -0.000 C 
ATOM     21  C   UNL     1      37.051 -24.181 -10.610  0.00  0.00    -0.000 C 
ATOM     22  H   UNL     1      32.894 -21.606 -15.612  0.00  0.00    -0.079 HD
ENDBRANCH   7   8
ENDBRANCH   1   7
BRANCH   6  23
ATOM     23  C   UNL     1      34.575 -18.796 -21.185  0.00  0.00    +0.232 C 
BRANCH  23  24
ATOM     24  O   UNL     1      34.906 -17.570 -20.542  0.00  0.00    -0.471 OA
BRANCH  24  25
ATOM     25  C   UNL     1      34.307 -16.438 -21.026  0.00  0.00    +0.139 C 
ATOM     26  C   UNL     1      33.090 -14.129 -22.011  0.00  0.00    -0.010 C 
ATOM     27  C   UNL     1      34.204 -16.236 -22.402  0.00  0.00    +0.037 C 
ATOM     28  C   UNL     1      33.801 -15.484 -20.142  0.00  0.00    +0.037 C 
ATOM     29  C   UNL     1      33.595 -15.082 -22.895  0.00  0.00    -0.000 C 
ATOM     30  C   UNL     1      33.193 -14.329 -20.635  0.00  0.00    -0.000 C 
BRANCH  26  31
ATOM     31  C   UNL     1      32.438 -12.894 -22.537  0.00  0.00    +0.097 C 
BRANCH  31  32
ATOM     32  C   UNL     1      31.690 -12.171 -21.472  0.00  0.00    -0.087 C 
ATOM     33  C   UNL     1      31.097 -11.573 -20.615  0.00  0.00    -0.090 C 
ATOM     34  C   UNL     1      30.378 -10.847 -19.571  0.00  0.00    +0.090 C 
ENDBRANCH  31  32
BRANCH  31  35
ATOM     35  C   UNL     1      33.453 -11.936 -23.218  0.00  0.00    +0.127 C 
BRANCH  35  37
ATOM     36  O   UNL     1      32.789 -12.022 -25.565  0.00  0.00    -0.250 OA
ATOM     37  C   UNL     1      32.981 -11.375 -24.545  0.00  0.00    +0.315 C 
BRANCH  37  38
ATOM     38  O   UNL     1      32.777 -10.033 -24.469  0.00  0.00    -0.480 OA
ATOM     39  H   UNL     1      33.017  -9.481 -25.186  0.00  0.00    +0.295 HD
ENDBRANCH  37  38
ENDBRANCH  35  37
ENDBRANCH  31  35
ENDBRANCH  26  31
ENDBRANCH  24  25
ENDBRANCH  23  24
ENDBRANCH   6  23
TORSDOF 10
ENDMDL
MODEL 4
REMARK VINA RESULT:     -11.9      2.754      5.502
REMARK  Name = 51049992
REMARK  10 active torsions:
REMARK  status: ('A' for Active; 'I' for Inactive)
REMARK    1  A    between atoms: C_1  and  C_7
REMARK    2  A    between atoms: C_6  and  C_23
REMARK    3  A    between atoms: C_7  and  N_8
REMARK    4  A    between atoms: C_23  and  O_24
REMARK    5  A    between atoms: O_24  and  C_25
REMARK    6  A    between atoms: C_26  and  C_31
REMARK    7  A    between atoms: C_31  and  C_32
REMARK    8  A    between atoms: C_31  and  C_35
REMARK    9  A    between atoms: C_35  and  C_37
REMARK   10  A    between atoms: C_37  and  O_38
REMARK                            x       y       z     vdW  Elec       q    Type
REMARK                         _______ _______ _______ _____ _____    ______ ____
ROOT
ATOM      1  C   UNL     1      34.409 -17.801 -22.205  0.00  0.00    -0.043 C 
ATOM      2  C   UNL     1      33.401 -18.648 -21.742  0.00  0.00    -0.007 C 
ATOM      3  C   UNL     1      35.692 -17.887 -21.665  0.00  0.00    -0.007 C 
ATOM      4  C   UNL     1      33.677 -19.579 -20.741  0.00  0.00    -0.001 C 
ATOM      5  C   UNL     1      35.969 -18.818 -20.664  0.00  0.00    -0.001 C 
ATOM      6  C   UNL     1      34.961 -19.664 -20.203  0.00  0.00    +0.021 C 
ENDROOT
BRANCH   1   7
ATOM      7  C   UNL     1      34.110 -16.797 -23.285  0.00  0.00    -0.050 C 
BRANCH   7   8
ATOM      8  N   UNL     1      33.386 -15.637 -22.764  0.00  0.00    +0.390 N 
ATOM      9  C   UNL     1      32.710 -12.778 -22.522  0.00  0.00    +0.033 C 
ATOM     10  C   UNL     1      31.841 -13.778 -23.306  0.00  0.00    -0.015 C 
ATOM     11  C   UNL     1      33.559 -13.527 -21.479  0.00  0.00    -0.015 C 
ATOM     12  C   UNL     1      34.310 -14.717 -22.086  0.00  0.00    -0.076 C 
ATOM     13  C   UNL     1      32.657 -14.959 -23.844  0.00  0.00    -0.076 C 
ATOM     14  C   UNL     1      31.876 -11.684 -21.888  0.00  0.00    -0.019 C 
ATOM     15  C   UNL     1      33.581 -11.937 -23.456  0.00  0.00    -0.023 C 
ATOM     16  C   UNL     1      32.253 -10.438 -22.413  0.00  0.00    -0.004 C 
ATOM     17  C   UNL     1      33.313 -10.624 -23.384  0.00  0.00    -0.005 C 
ATOM     18  C   UNL     1      30.875 -11.778 -20.935  0.00  0.00    -0.004 C 
ATOM     19  C   UNL     1      31.640  -9.267 -21.998  0.00  0.00    -0.000 C 
ATOM     20  C   UNL     1      30.250 -10.603 -20.510  0.00  0.00    -0.000 C 
ATOM     21  C   UNL     1      30.630  -9.358 -21.037  0.00  0.00    -0.000 C 
ATOM     22  H   UNL     1      32.703 -15.957 -22.078  0.00  0.00    -0.079 HD
ENDBRANCH   7   8
ENDBRANCH   1   7
BRANCH   6  23
ATOM     23  C   UNL     1      35.257 -20.662 -19.135  0.00  0.00    +0.232 C 
BRANCH  23  24
ATOM     24  O   UNL     1      34.135 -21.522 -18.966  0.00  0.00    -0.471 OA
BRANCH  24  25
ATOM     25  C   UNL     1      33.918 -22.013 -17.707  0.00  0.00    +0.139 C 
ATOM     26  C   UNL     1      33.475 -23.012 -15.140  0.00  0.00    -0.010 C 
ATOM     27  C   UNL     1      32.694 -22.603 -17.389  0.00  0.00    +0.037 C 
ATOM     28  C   UNL     1      34.920 -21.923 -16.740  0.00  0.00    +0.037 C 
ATOM     29  C   UNL     1      32.473 -23.102 -16.105  0.00  0.00    -0.000 C 
ATOM     30  C   UNL     1      34.698 -22.422 -15.456  0.00  0.00    -0.000 C 
BRANCH  26  31
ATOM     31  C   UNL     1      33.239 -23.546 -13.767  0.00  0.00    +0.097 C 
BRANCH  31  32
ATOM     32  C   UNL     1      34.386 -23.261 -12.862  0.00  0.00    -0.087 C 
ATOM     33  C   UNL     1      35.322 -23.042 -12.140  0.00  0.00    -0.090 C 
ATOM     34  C   UNL     1      36.459 -22.779 -11.261  0.00  0.00    +0.090 C 
ENDBRANCH  31  32
BRANCH  31  35
ATOM     35  C   UNL     1      31.923 -23.007 -13.143  0.00  0.00    +0.127 C 
BRANCH  35  37
ATOM     36  O   UNL     1      29.637 -23.823 -12.883  0.00  0.00    -0.250 OA
ATOM     37  C   UNL     1      30.833 -24.051 -12.995  0.00  0.00    +0.315 C 
BRANCH  37  38
ATOM     38  O   UNL     1      31.348 -25.309 -13.017  0.00  0.00    -0.480 OA
ATOM     39  H   UNL     1      31.198 -25.889 -12.298  0.00  0.00    +0.295 HD
ENDBRANCH  37  38
ENDBRANCH  35  37
ENDBRANCH  31  35
ENDBRANCH  26  31
ENDBRANCH  24  25
ENDBRANCH  23  24
ENDBRANCH   6  23
TORSDOF 10
ENDMDL
MODEL 5
REMARK VINA RESULT:     -11.8      2.879      5.941
REMARK  Name = 51049992
REMARK  10 active torsions:
REMARK  status: ('A' for Active; 'I' for Inactive)
REMARK    1  A    between atoms: C_1  and  C_7
REMARK    2  A    between atoms: C_6  and  C_23
REMARK    3  A    between atoms: C_7  and  N_8
REMARK    4  A    between atoms: C_23  and  O_24
REMARK    5  A    between atoms: O_24  and  C_25
REMARK    6  A    between atoms: C_26  and  C_31
REMARK    7  A    between atoms: C_31  and  C_32
REMARK    8  A    between atoms: C_31  and  C_35
REMARK    9  A    between atoms: C_35  and  C_37
REMARK   10  A    between atoms: C_37  and  O_38
REMARK                            x       y       z     vdW  Elec       q    Type
REMARK                         _______ _______ _______ _____ _____    ______ ____
ROOT
ATOM      1  C   UNL     1      34.313 -17.841 -22.056  0.00  0.00    -0.043 C 
ATOM      2  C   UNL     1      33.248 -18.719 -21.852  0.00  0.00    -0.007 C 
ATOM      3  C   UNL     1      35.481 -17.976 -21.305  0.00  0.00    -0.007 C 
ATOM      4  C   UNL     1      33.351 -19.731 -20.898  0.00  0.00    -0.001 C 
ATOM      5  C   UNL     1      35.584 -18.989 -20.351  0.00  0.00    -0.001 C 
ATOM      6  C   UNL     1      34.520 -19.866 -20.148  0.00  0.00    +0.021 C 
ENDROOT
BRANCH   1   7
ATOM      7  C   UNL     1      34.201 -16.748 -23.084  0.00  0.00    -0.050 C 
BRANCH   7   8
ATOM      8  N   UNL     1      33.439 -15.604 -22.583  0.00  0.00    +0.390 N 
ATOM      9  C   UNL     1      32.683 -12.763 -22.373  0.00  0.00    +0.033 C 
ATOM     10  C   UNL     1      31.852 -13.793 -23.161  0.00  0.00    -0.015 C 
ATOM     11  C   UNL     1      33.537 -13.481 -21.313  0.00  0.00    -0.015 C 
ATOM     12  C   UNL     1      34.328 -14.655 -21.900  0.00  0.00    -0.076 C 
ATOM     13  C   UNL     1      32.707 -14.955 -23.678  0.00  0.00    -0.076 C 
ATOM     14  C   UNL     1      31.811 -11.688 -21.760  0.00  0.00    -0.019 C 
ATOM     15  C   UNL     1      33.543 -11.906 -23.301  0.00  0.00    -0.023 C 
ATOM     16  C   UNL     1      32.161 -10.436 -22.289  0.00  0.00    -0.004 C 
ATOM     17  C   UNL     1      33.240 -10.601 -23.244  0.00  0.00    -0.005 C 
ATOM     18  C   UNL     1      30.799 -11.801 -20.820  0.00  0.00    -0.004 C 
ATOM     19  C   UNL     1      31.511  -9.279 -21.892  0.00  0.00    -0.000 C 
ATOM     20  C   UNL     1      30.137 -10.640 -20.413  0.00  0.00    -0.000 C 
ATOM     21  C   UNL     1      30.490  -9.389 -20.944  0.00  0.00    -0.000 C 
ATOM     22  H   UNL     1      32.756 -15.937 -21.904  0.00  0.00    -0.079 HD
ENDBRANCH   7   8
ENDBRANCH   1   7
BRANCH   6  23
ATOM     23  C   UNL     1      34.631 -20.951 -19.131  0.00  0.00    +0.232 C 
BRANCH  23  24
ATOM     24  O   UNL     1      35.504 -20.533 -18.087  0.00  0.00    -0.471 OA
BRANCH  24  25
ATOM     25  C   UNL     1      35.556 -21.326 -16.972  0.00  0.00    +0.139 C 
ATOM     26  C   UNL     1      35.665 -22.944 -14.702  0.00  0.00    -0.010 C 
ATOM     27  C   UNL     1      36.704 -21.341 -16.180  0.00  0.00    +0.037 C 
ATOM     28  C   UNL     1      34.462 -22.121 -16.629  0.00  0.00    +0.037 C 
ATOM     29  C   UNL     1      36.758 -22.150 -15.044  0.00  0.00    -0.000 C 
ATOM     30  C   UNL     1      34.517 -22.930 -15.494  0.00  0.00    -0.000 C 
BRANCH  26  31
ATOM     31  C   UNL     1      35.721 -23.809 -13.488  0.00  0.00    +0.097 C 
BRANCH  31  32
ATOM     32  C   UNL     1      37.017 -24.536 -13.392  0.00  0.00    -0.087 C 
ATOM     33  C   UNL     1      38.070 -25.109 -13.306  0.00  0.00    -0.090 C 
ATOM     34  C   UNL     1      39.351 -25.804 -13.204  0.00  0.00    +0.090 C 
ENDBRANCH  31  32
BRANCH  31  35
ATOM     35  C   UNL     1      35.461 -23.011 -12.182  0.00  0.00    +0.127 C 
BRANCH  35  37
ATOM     36  O   UNL     1      34.251 -24.639 -10.825  0.00  0.00    -0.250 OA
ATOM     37  C   UNL     1      35.199 -23.879 -10.966  0.00  0.00    +0.315 C 
BRANCH  37  38
ATOM     38  O   UNL     1      36.171 -23.723 -10.029  0.00  0.00    -0.480 OA
ATOM     39  H   UNL     1      36.055 -24.080  -9.171  0.00  0.00    +0.295 HD
ENDBRANCH  37  38
ENDBRANCH  35  37
ENDBRANCH  31  35
ENDBRANCH  26  31
ENDBRANCH  24  25
ENDBRANCH  23  24
ENDBRANCH   6  23
TORSDOF 10
ENDMDL
MODEL 6
REMARK VINA RESULT:     -11.7      2.067      3.310
REMARK  Name = 51049992
REMARK  10 active torsions:
REMARK  status: ('A' for Active; 'I' for Inactive)
REMARK    1  A    between atoms: C_1  and  C_7
REMARK    2  A    between atoms: C_6  and  C_23
REMARK    3  A    between atoms: C_7  and  N_8
REMARK    4  A    between atoms: C_23  and  O_24
REMARK    5  A    between atoms: O_24  and  C_25
REMARK    6  A    between atoms: C_26  and  C_31
REMARK    7  A    between atoms: C_31  and  C_32
REMARK    8  A    between atoms: C_31  and  C_35
REMARK    9  A    between atoms: C_35  and  C_37
REMARK   10  A    between atoms: C_37  and  O_38
REMARK                            x       y       z     vdW  Elec       q    Type
REMARK                         _______ _______ _______ _____ _____    ______ ____
ROOT
ATOM      1  C   UNL     1      33.412 -15.573 -23.747  0.00  0.00    -0.043 C 
ATOM      2  C   UNL     1      33.782 -15.092 -22.490  0.00  0.00    -0.007 C 
ATOM      3  C   UNL     1      33.424 -16.946 -23.997  0.00  0.00    -0.007 C 
ATOM      4  C   UNL     1      34.162 -15.981 -21.486  0.00  0.00    -0.001 C 
ATOM      5  C   UNL     1      33.804 -17.836 -22.993  0.00  0.00    -0.001 C 
ATOM      6  C   UNL     1      34.173 -17.353 -21.737  0.00  0.00    +0.021 C 
ENDROOT
BRANCH   1   7
ATOM      7  C   UNL     1      33.002 -14.613 -24.830  0.00  0.00    -0.050 C 
BRANCH   7   8
ATOM      8  N   UNL     1      32.666 -13.295 -24.290  0.00  0.00    +0.390 N 
ATOM      9  C   UNL     1      33.122 -10.450 -23.668  0.00  0.00    +0.033 C 
ATOM     10  C   UNL     1      32.221 -10.918 -24.826  0.00  0.00    -0.015 C 
ATOM     11  C   UNL     1      33.241 -11.565 -22.614  0.00  0.00    -0.015 C 
ATOM     12  C   UNL     1      33.615 -12.915 -23.235  0.00  0.00    -0.076 C 
ATOM     13  C   UNL     1      32.634 -12.293 -25.364  0.00  0.00    -0.076 C 
ATOM     14  C   UNL     1      32.629  -9.152 -23.062  0.00  0.00    -0.019 C 
ATOM     15  C   UNL     1      34.494 -10.002 -24.169  0.00  0.00    -0.023 C 
ATOM     16  C   UNL     1      33.605  -8.157 -23.219  0.00  0.00    -0.004 C 
ATOM     17  C   UNL     1      34.753  -8.711 -23.909  0.00  0.00    -0.005 C 
ATOM     18  C   UNL     1      31.428  -8.874 -22.429  0.00  0.00    -0.004 C 
ATOM     19  C   UNL     1      33.402  -6.869 -22.749  0.00  0.00    -0.000 C 
ATOM     20  C   UNL     1      31.214  -7.579 -21.951  0.00  0.00    -0.000 C 
ATOM     21  C   UNL     1      32.193  -6.584 -22.110  0.00  0.00    -0.000 C 
ATOM     22  H   UNL     1      31.736 -13.338 -23.875  0.00  0.00    -0.079 HD
ENDBRANCH   7   8
ENDBRANCH   1   7
BRANCH   6  23
ATOM     23  C   UNL     1      34.576 -18.305 -20.663  0.00  0.00    +0.232 C 
BRANCH  23  24
ATOM     24  O   UNL     1      34.053 -19.596 -20.953  0.00  0.00    -0.471 OA
BRANCH  24  25
ATOM     25  C   UNL     1      33.704 -20.376 -19.883  0.00  0.00    +0.139 C 
ATOM     26  C   UNL     1      32.993 -21.961 -17.700  0.00  0.00    -0.010 C 
ATOM     27  C   UNL     1      32.363 -20.506 -19.522  0.00  0.00    +0.037 C 
ATOM     28  C   UNL     1      34.690 -21.039 -19.152  0.00  0.00    +0.037 C 
ATOM     29  C   UNL     1      32.007 -21.299 -18.431  0.00  0.00    -0.000 C 
ATOM     30  C   UNL     1      34.334 -21.831 -18.060  0.00  0.00    -0.000 C 
BRANCH  26  31
ATOM     31  C   UNL     1      32.613 -22.810 -16.533  0.00  0.00    +0.097 C 
BRANCH  31  32
ATOM     32  C   UNL     1      33.667 -22.800 -15.481  0.00  0.00    -0.087 C 
ATOM     33  C   UNL     1      34.525 -22.806 -14.640  0.00  0.00    -0.090 C 
ATOM     34  C   UNL     1      35.567 -22.815 -13.615  0.00  0.00    +0.090 C 
ENDBRANCH  31  32
BRANCH  31  35
ATOM     35  C   UNL     1      31.248 -22.395 -15.922  0.00  0.00    +0.127 C 
BRANCH  35  37
ATOM     36  O   UNL     1      30.698 -24.136 -14.302  0.00  0.00    -0.250 OA
ATOM     37  C   UNL     1      30.984 -22.972 -14.544  0.00  0.00    +0.315 C 
BRANCH  37  38
ATOM     38  O   UNL     1      31.119 -22.026 -13.578  0.00  0.00    -0.480 OA
ATOM     39  H   UNL     1      31.939 -21.590 -13.461  0.00  0.00    +0.295 HD
ENDBRANCH  37  38
ENDBRANCH  35  37
ENDBRANCH  31  35
ENDBRANCH  26  31
ENDBRANCH  24  25
ENDBRANCH  23  24
ENDBRANCH   6  23
TORSDOF 10
ENDMDL
MODEL 7
REMARK VINA RESULT:     -11.5      1.790      3.063
REMARK  Name = 51049992
REMARK  10 active torsions:
REMARK  status: ('A' for Active; 'I' for Inactive)
REMARK    1  A    between atoms: C_1  and  C_7
REMARK    2  A    between atoms: C_6  and  C_23
REMARK    3  A    between atoms: C_7  and  N_8
REMARK    4  A    between atoms: C_23  and  O_24
REMARK    5  A    between atoms: O_24  and  C_25
REMARK    6  A    between atoms: C_26  and  C_31
REMARK    7  A    between atoms: C_31  and  C_32
REMARK    8  A    between atoms: C_31  and  C_35
REMARK    9  A    between atoms: C_35  and  C_37
REMARK   10  A    between atoms: C_37  and  O_38
REMARK                            x       y       z     vdW  Elec       q    Type
REMARK                         _______ _______ _______ _____ _____    ______ ____
ROOT
ATOM      1  C   UNL     1      33.347 -12.419 -24.164  0.00  0.00    -0.043 C 
ATOM      2  C   UNL     1      33.747 -12.774 -22.876  0.00  0.00    -0.007 C 
ATOM      3  C   UNL     1      32.947 -13.405 -25.066  0.00  0.00    -0.007 C 
ATOM      4  C   UNL     1      33.746 -14.114 -22.489  0.00  0.00    -0.001 C 
ATOM      5  C   UNL     1      32.946 -14.745 -24.679  0.00  0.00    -0.001 C 
ATOM      6  C   UNL     1      33.346 -15.099 -23.391  0.00  0.00    +0.021 C 
ENDROOT
BRANCH   1   7
ATOM      7  C   UNL     1      33.349 -10.973 -24.581  0.00  0.00    -0.050 C 
BRANCH   7   8
ATOM      8  N   UNL     1      33.072 -10.081 -23.454  0.00  0.00    +0.390 N 
ATOM      9  C   UNL     1      31.746  -7.852 -22.053  0.00  0.00    +0.033 C 
ATOM     10  C   UNL     1      31.382  -9.328 -21.808  0.00  0.00    -0.015 C 
ATOM     11  C   UNL     1      33.175  -7.752 -22.617  0.00  0.00    -0.015 C 
ATOM     12  C   UNL     1      33.398  -8.692 -23.806  0.00  0.00    -0.076 C 
ATOM     13  C   UNL     1      31.673 -10.209 -23.028  0.00  0.00    -0.076 C 
ATOM     14  C   UNL     1      31.575  -7.016 -20.802  0.00  0.00    -0.019 C 
ATOM     15  C   UNL     1      30.732  -7.168 -22.968  0.00  0.00    -0.023 C 
ATOM     16  C   UNL     1      30.606  -6.025 -21.025  0.00  0.00    -0.004 C 
ATOM     17  C   UNL     1      30.099  -6.143 -22.378  0.00  0.00    -0.005 C 
ATOM     18  C   UNL     1      32.215  -7.118 -19.577  0.00  0.00    -0.004 C 
ATOM     19  C   UNL     1      30.258  -5.122 -20.034  0.00  0.00    -0.000 C 
ATOM     20  C   UNL     1      31.872  -6.211 -18.571  0.00  0.00    -0.000 C 
ATOM     21  C   UNL     1      30.902  -5.221 -18.798  0.00  0.00    -0.000 C 
ATOM     22  H   UNL     1      33.664 -10.351 -22.669  0.00  0.00    -0.079 HD
ENDBRANCH   7   8
ENDBRANCH   1   7
BRANCH   6  23
ATOM     23  C   UNL     1      33.342 -16.532 -22.977  0.00  0.00    +0.232 C 
BRANCH  23  24
ATOM     24  O   UNL     1      34.479 -16.792 -22.162  0.00  0.00    -0.471 OA
BRANCH  24  25
ATOM     25  C   UNL     1      34.427 -17.907 -21.368  0.00  0.00    +0.139 C 
ATOM     26  C   UNL     1      34.323 -20.180 -19.755  0.00  0.00    -0.010 C 
ATOM     27  C   UNL     1      35.578 -18.358 -20.722  0.00  0.00    +0.037 C 
ATOM     28  C   UNL     1      33.223 -18.594 -21.207  0.00  0.00    +0.037 C 
ATOM     29  C   UNL     1      35.526 -19.495 -19.915  0.00  0.00    -0.000 C 
ATOM     30  C   UNL     1      33.171 -19.731 -20.401  0.00  0.00    -0.000 C 
BRANCH  26  31
ATOM     31  C   UNL     1      34.265 -21.396 -18.892  0.00  0.00    +0.097 C 
BRANCH  31  32
ATOM     32  C   UNL     1      35.254 -21.328 -17.781  0.00  0.00    -0.087 C 
ATOM     33  C   UNL     1      36.050 -21.291 -16.881  0.00  0.00    -0.090 C 
ATOM     34  C   UNL     1      37.015 -21.245 -15.785  0.00  0.00    +0.090 C 
ENDBRANCH  31  32
BRANCH  31  35
ATOM     35  C   UNL     1      32.843 -21.649 -18.323  0.00  0.00    +0.127 C 
BRANCH  35  37
ATOM     36  O   UNL     1      32.631 -22.894 -16.234  0.00  0.00    -0.250 OA
ATOM     37  C   UNL     1      32.734 -22.886 -17.452  0.00  0.00    +0.315 C 
BRANCH  37  38
ATOM     38  O   UNL     1      32.752 -24.020 -18.201  0.00  0.00    -0.480 OA
ATOM     39  H   UNL     1      31.959 -24.342 -18.583  0.00  0.00    +0.295 HD
ENDBRANCH  37  38
ENDBRANCH  35  37
ENDBRANCH  31  35
ENDBRANCH  26  31
ENDBRANCH  24  25
ENDBRANCH  23  24
ENDBRANCH   6  23
TORSDOF 10
ENDMDL
MODEL 8
REMARK VINA RESULT:     -11.4      4.229     13.988
REMARK  Name = 51049992
REMARK  10 active torsions:
REMARK  status: ('A' for Active; 'I' for Inactive)
REMARK    1  A    between atoms: C_1  and  C_7
REMARK    2  A    between atoms: C_6  and  C_23
REMARK    3  A    between atoms: C_7  and  N_8
REMARK    4  A    between atoms: C_23  and  O_24
REMARK    5  A    between atoms: O_24  and  C_25
REMARK    6  A    between atoms: C_26  and  C_31
REMARK    7  A    between atoms: C_31  and  C_32
REMARK    8  A    between atoms: C_31  and  C_35
REMARK    9  A    between atoms: C_35  and  C_37
REMARK   10  A    between atoms: C_37  and  O_38
REMARK                            x       y       z     vdW  Elec       q    Type
REMARK                         _______ _______ _______ _____ _____    ______ ____
ROOT
ATOM      1  C   UNL     1      32.652 -21.510 -18.253  0.00  0.00    -0.043 C 
ATOM      2  C   UNL     1      31.837 -20.659 -19.000  0.00  0.00    -0.007 C 
ATOM      3  C   UNL     1      34.032 -21.517 -18.464  0.00  0.00    -0.007 C 
ATOM      4  C   UNL     1      32.401 -19.816 -19.957  0.00  0.00    -0.001 C 
ATOM      5  C   UNL     1      34.595 -20.673 -19.421  0.00  0.00    -0.001 C 
ATOM      6  C   UNL     1      33.780 -19.823 -20.167  0.00  0.00    +0.021 C 
ENDROOT
BRANCH   1   7
ATOM      7  C   UNL     1      32.043 -22.420 -17.220  0.00  0.00    -0.050 C 
BRANCH   7   8
ATOM      8  N   UNL     1      32.876 -22.518 -16.021  0.00  0.00    +0.390 N 
ATOM      9  C   UNL     1      34.706 -23.832 -14.120  0.00  0.00    +0.033 C 
ATOM     10  C   UNL     1      35.177 -22.785 -15.146  0.00  0.00    -0.015 C 
ATOM     11  C   UNL     1      33.202 -23.655 -13.846  0.00  0.00    -0.015 C 
ATOM     12  C   UNL     1      32.380 -23.580 -15.136  0.00  0.00    -0.076 C 
ATOM     13  C   UNL     1      34.280 -22.743 -16.388  0.00  0.00    -0.076 C 
ATOM     14  C   UNL     1      35.521 -23.778 -12.845  0.00  0.00    -0.019 C 
ATOM     15  C   UNL     1      35.029 -25.254 -14.579  0.00  0.00    -0.023 C 
ATOM     16  C   UNL     1      36.183 -25.000 -12.655  0.00  0.00    -0.004 C 
ATOM     17  C   UNL     1      35.860 -25.899 -13.746  0.00  0.00    -0.005 C 
ATOM     18  C   UNL     1      35.667 -22.744 -11.935  0.00  0.00    -0.004 C 
ATOM     19  C   UNL     1      37.000 -25.213 -11.557  0.00  0.00    -0.000 C 
ATOM     20  C   UNL     1      36.489 -22.949 -10.823  0.00  0.00    -0.000 C 
ATOM     21  C   UNL     1      37.150 -24.173 -10.636  0.00  0.00    -0.000 C 
ATOM     22  H   UNL     1      32.824 -21.636 -15.512  0.00  0.00    -0.079 HD
ENDBRANCH   7   8
ENDBRANCH   1   7
BRANCH   6  23
ATOM     23  C   UNL     1      34.384 -18.919 -21.188  0.00  0.00    +0.232 C 
BRANCH  23  24
ATOM     24  O   UNL     1      34.943 -17.781 -20.542  0.00  0.00    -0.471 OA
BRANCH  24  25
ATOM     25  C   UNL     1      34.396 -16.565 -20.851  0.00  0.00    +0.139 C 
ATOM     26  C   UNL     1      33.284 -14.085 -21.480  0.00  0.00    -0.010 C 
ATOM     27  C   UNL     1      34.332 -16.145 -22.180  0.00  0.00    +0.037 C 
ATOM     28  C   UNL     1      33.903 -15.743 -19.837  0.00  0.00    +0.037 C 
ATOM     29  C   UNL     1      33.776 -14.905 -22.495  0.00  0.00    -0.000 C 
ATOM     30  C   UNL     1      33.348 -14.503 -20.151  0.00  0.00    -0.000 C 
BRANCH  26  31
ATOM     31  C   UNL     1      32.689 -12.759 -21.816  0.00  0.00    +0.097 C 
BRANCH  31  32
ATOM     32  C   UNL     1      32.665 -12.523 -23.286  0.00  0.00    -0.087 C 
ATOM     33  C   UNL     1      32.652 -12.348 -24.475  0.00  0.00    -0.090 C 
ATOM     34  C   UNL     1      32.639 -12.136 -25.921  0.00  0.00    +0.090 C 
ENDBRANCH  31  32
BRANCH  31  35
ATOM     35  C   UNL     1      31.262 -12.586 -21.228  0.00  0.00    +0.127 C 
BRANCH  35  37
ATOM     36  O   UNL     1      30.744 -10.210 -21.020  0.00  0.00    -0.250 OA
ATOM     37  C   UNL     1      31.046 -11.274 -20.499  0.00  0.00    +0.315 C 
BRANCH  37  38
ATOM     38  O   UNL     1      31.216 -11.420 -19.158  0.00  0.00    -0.480 OA
ATOM     39  H   UNL     1      30.737 -12.077 -18.694  0.00  0.00    +0.295 HD
ENDBRANCH  37  38
ENDBRANCH  35  37
ENDBRANCH  31  35
ENDBRANCH  26  31
ENDBRANCH  24  25
ENDBRANCH  23  24
ENDBRANCH   6  23
TORSDOF 10
ENDMDL
MODEL 9
REMARK VINA RESULT:     -11.3      4.122     12.960
REMARK  Name = 51049992
REMARK  10 active torsions:
REMARK  status: ('A' for Active; 'I' for Inactive)
REMARK    1  A    between atoms: C_1  and  C_7
REMARK    2  A    between atoms: C_6  and  C_23
REMARK    3  A    between atoms: C_7  and  N_8
REMARK    4  A    between atoms: C_23  and  O_24
REMARK    5  A    between atoms: O_24  and  C_25
REMARK    6  A    between atoms: C_26  and  C_31
REMARK    7  A    between atoms: C_31  and  C_32
REMARK    8  A    between atoms: C_31  and  C_35
REMARK    9  A    between atoms: C_35  and  C_37
REMARK   10  A    between atoms: C_37  and  O_38
REMARK                            x       y       z     vdW  Elec       q    Type
REMARK                         _______ _______ _______ _____ _____    ______ ____
ROOT
ATOM      1  C   UNL     1      33.649 -14.946 -23.890  0.00  0.00    -0.043 C 
ATOM      2  C   UNL     1      32.894 -14.354 -24.904  0.00  0.00    -0.007 C 
ATOM      3  C   UNL     1      33.868 -14.261 -22.695  0.00  0.00    -0.007 C 
ATOM      4  C   UNL     1      32.360 -13.079 -24.722  0.00  0.00    -0.001 C 
ATOM      5  C   UNL     1      33.333 -12.986 -22.512  0.00  0.00    -0.001 C 
ATOM      6  C   UNL     1      32.579 -12.395 -23.526  0.00  0.00    +0.021 C 
ENDROOT
BRANCH   1   7
ATOM      7  C   UNL     1      34.226 -16.322 -24.088  0.00  0.00    -0.050 C 
BRANCH   7   8
ATOM      8  N   UNL     1      33.805 -17.245 -23.033  0.00  0.00    +0.390 N 
ATOM      9  C   UNL     1      34.193 -19.170 -20.835  0.00  0.00    +0.033 C 
ATOM     10  C   UNL     1      33.793 -17.702 -20.600  0.00  0.00    -0.015 C 
ATOM     11  C   UNL     1      33.797 -19.598 -22.260  0.00  0.00    -0.015 C 
ATOM     12  C   UNL     1      34.282 -18.604 -23.321  0.00  0.00    -0.076 C 
ATOM     13  C   UNL     1      34.279 -16.780 -21.724  0.00  0.00    -0.076 C 
ATOM     14  C   UNL     1      33.601 -20.089 -19.787  0.00  0.00    -0.019 C 
ATOM     15  C   UNL     1      35.681 -19.397 -20.574  0.00  0.00    -0.023 C 
ATOM     16  C   UNL     1      34.633 -20.716 -19.071  0.00  0.00    -0.004 C 
ATOM     17  C   UNL     1      35.914 -20.268 -19.580  0.00  0.00    -0.005 C 
ATOM     18  C   UNL     1      32.273 -20.349 -19.490  0.00  0.00    -0.004 C 
ATOM     19  C   UNL     1      34.360 -21.610 -18.049  0.00  0.00    -0.000 C 
ATOM     20  C   UNL     1      31.987 -21.251 -18.461  0.00  0.00    -0.000 C 
ATOM     21  C   UNL     1      33.022 -21.876 -17.747  0.00  0.00    -0.000 C 
ATOM     22  H   UNL     1      32.786 -17.270 -23.007  0.00  0.00    -0.079 HD
ENDBRANCH   7   8
ENDBRANCH   1   7
BRANCH   6  23
ATOM     23  C   UNL     1      32.005 -11.033 -23.329  0.00  0.00    +0.232 C 
BRANCH  23  24
ATOM     24  O   UNL     1      33.057 -10.107 -23.081  0.00  0.00    -0.471 OA
BRANCH  24  25
ATOM     25  C   UNL     1      32.697  -8.885 -22.578  0.00  0.00    +0.139 C 
ATOM     26  C   UNL     1      31.967  -6.396 -21.552  0.00  0.00    -0.010 C 
ATOM     27  C   UNL     1      33.536  -7.784 -22.754  0.00  0.00    +0.037 C 
ATOM     28  C   UNL     1      31.494  -8.741 -21.888  0.00  0.00    +0.037 C 
ATOM     29  C   UNL     1      33.170  -6.539 -22.241  0.00  0.00    -0.000 C 
ATOM     30  C   UNL     1      31.129  -7.497 -21.375  0.00  0.00    -0.000 C 
BRANCH  26  31
ATOM     31  C   UNL     1      31.575  -5.065 -21.003  0.00  0.00    +0.097 C 
BRANCH  31  32
ATOM     32  C   UNL     1      31.126  -4.138 -22.077  0.00  0.00    -0.087 C 
ATOM     33  C   UNL     1      30.756  -3.402 -22.953  0.00  0.00    -0.090 C 
ATOM     34  C   UNL     1      30.308  -2.509 -24.019  0.00  0.00    +0.090 C 
ENDBRANCH  31  32
BRANCH  31  35
ATOM     35  C   UNL     1      30.480  -5.178 -19.907  0.00  0.00    +0.127 C 
BRANCH  35  37
ATOM     36  O   UNL     1      30.720  -6.688 -18.005  0.00  0.00    -0.250 OA
ATOM     37  C   UNL     1      30.998  -5.633 -18.557  0.00  0.00    +0.315 C 
BRANCH  37  38
ATOM     38  O   UNL     1      31.843  -4.715 -18.017  0.00  0.00    -0.480 OA
ATOM     39  H   UNL     1      32.248  -4.072 -18.565  0.00  0.00    +0.295 HD
ENDBRANCH  37  38
ENDBRANCH  35  37
ENDBRANCH  31  35
ENDBRANCH  26  31
ENDBRANCH  24  25
ENDBRANCH  23  24
ENDBRANCH   6  23
TORSDOF 10
ENDMDL
