MODEL 1
REMARK VINA RESULT:     -12.3      0.000      0.000
REMARK  Name = 11987860
REMARK  5 active torsions:
REMARK  status: ('A' for Active; 'I' for Inactive)
REMARK    1  A    between atoms: N_2  and  C_19
REMARK    2  A    between atoms: C_3  and  C_11
REMARK    3  A    between atoms: N_9  and  O_17
REMARK    4  A    between atoms: C_19  and  C_20
REMARK    5  A    between atoms: C_23  and  C_26
REMARK                            x       y       z     vdW  Elec       q    Type
REMARK                         _______ _______ _______ _____ _____    ______ ____
ROOT
ATOM      1  O   UNL     1      33.014 -22.453 -14.247  0.00  0.00    -0.272 OA
ATOM      2  N   UNL     1      33.583 -23.191 -16.380  0.00  0.00    -0.298 N 
ATOM      3  C   UNL     1      33.787 -23.008 -15.023  0.00  0.00    +0.253 C 
ATOM      4  H   UNL     1      34.280 -23.654 -16.900  0.00  0.00    +0.150 HD
ENDROOT
BRANCH   3  11
ATOM      5  O   UNL     1      34.558 -24.493 -12.514  0.00  0.00    -0.327 OA
ATOM      6  O   UNL     1      34.961 -25.009 -14.742  0.00  0.00    -0.320 OA
ATOM      7  O   UNL     1      39.481 -24.181 -12.937  0.00  0.00    -0.250 OA
ATOM      8  N   UNL     1      37.284 -24.929 -13.022  0.00  0.00    -0.255 N 
ATOM      9  N   UNL     1      39.081 -26.368 -13.492  0.00  0.00    -0.181 N 
ATOM     10  C   UNL     1      35.304 -23.403 -13.070  0.00  0.00    +0.174 C 
ATOM     11  C   UNL     1      35.083 -23.595 -14.561  0.00  0.00    +0.222 C 
ATOM     12  C   UNL     1      34.913 -25.548 -13.413  0.00  0.00    +0.256 C 
ATOM     13  C   UNL     1      36.764 -23.605 -12.650  0.00  0.00    +0.128 C 
ATOM     14  C   UNL     1      36.311 -26.040 -13.040  0.00  0.00    +0.156 C 
ATOM     15  C   UNL     1      38.677 -25.098 -13.135  0.00  0.00    +0.326 C 
ATOM     16  H   UNL     1      38.442 -27.099 -13.650  0.00  0.00    +0.184 HD
BRANCH   9  17
ATOM     17  O   UNL     1      40.468 -26.544 -13.613  0.00  0.00    -0.294 OA
ATOM     18  H   UNL     1      40.912 -25.685 -13.523  0.00  0.00    +0.241 HD
ENDBRANCH   9  17
ENDBRANCH   3  11
BRANCH   2  19
ATOM     19  C   UNL     1      32.397 -22.736 -17.069  0.00  0.00    +0.116 C 
BRANCH  19  20
ATOM     20  C   UNL     1      32.755 -21.724 -18.122  0.00  0.00    -0.003 C 
ATOM     21  C   UNL     1      34.090 -21.519 -18.450  0.00  0.00    -0.003 C 
ATOM     22  C   UNL     1      31.749 -21.007 -18.755  0.00  0.00    -0.003 C 
ATOM     23  C   UNL     1      33.418 -19.856 -20.067  0.00  0.00    -0.000 C 
ATOM     24  C   UNL     1      34.422 -20.581 -19.427  0.00  0.00    -0.000 C 
ATOM     25  C   UNL     1      32.081 -20.069 -19.732  0.00  0.00    -0.000 C 
BRANCH  23  26
ATOM     26  C   UNL     1      33.763 -18.883 -21.082  0.00  0.00    -0.000 C 
ATOM     27  C   UNL     1      33.426 -19.116 -22.415  0.00  0.00    -0.000 C 
ATOM     28  C   UNL     1      34.429 -17.711 -20.726  0.00  0.00    -0.000 C 
ATOM     29  C   UNL     1      33.757 -18.178 -23.393  0.00  0.00    +0.000 C 
ATOM     30  C   UNL     1      34.760 -16.772 -21.703  0.00  0.00    +0.000 C 
ATOM     31  C   UNL     1      34.424 -17.006 -23.037  0.00  0.00    +0.000 C 
ENDBRANCH  23  26
ENDBRANCH  19  20
ENDBRANCH   2  19
TORSDOF 5
ENDMDL
MODEL 2
REMARK VINA RESULT:     -11.5      8.838     13.231
REMARK  Name = 11987860
REMARK  5 active torsions:
REMARK  status: ('A' for Active; 'I' for Inactive)
REMARK    1  A    between atoms: N_2  and  C_19
REMARK    2  A    between atoms: C_3  and  C_11
REMARK    3  A    between atoms: N_9  and  O_17
REMARK    4  A    between atoms: C_19  and  C_20
REMARK    5  A    between atoms: C_23  and  C_26
REMARK                            x       y       z     vdW  Elec       q    Type
REMARK                         _______ _______ _______ _____ _____    ______ ____
ROOT
ATOM      1  O   UNL     1      32.179 -14.261 -25.747  0.00  0.00    -0.272 OA
ATOM      2  N   UNL     1      33.461 -14.718 -23.858  0.00  0.00    -0.298 N 
ATOM      3  C   UNL     1      32.584 -13.969 -24.625  0.00  0.00    +0.253 C 
ATOM      4  H   UNL     1      33.713 -14.378 -22.969  0.00  0.00    +0.150 HD
ENDROOT
BRANCH   3  11
ATOM      5  O   UNL     1      34.031 -12.011 -22.845  0.00  0.00    -0.327 OA
ATOM      6  O   UNL     1      32.659 -11.635 -24.681  0.00  0.00    -0.320 OA
ATOM      7  O   UNL     1      30.100  -9.684 -20.936  0.00  0.00    -0.250 OA
ATOM      8  N   UNL     1      31.929 -10.247 -22.250  0.00  0.00    -0.255 N 
ATOM      9  N   UNL     1      30.907  -8.139 -22.423  0.00  0.00    -0.181 N 
ATOM     10  C   UNL     1      32.754 -12.590 -22.542  0.00  0.00    +0.174 C 
ATOM     11  C   UNL     1      32.134 -12.728 -23.922  0.00  0.00    +0.222 C 
ATOM     12  C   UNL     1      33.661 -11.049 -23.837  0.00  0.00    +0.256 C 
ATOM     13  C   UNL     1      32.014 -11.588 -21.651  0.00  0.00    +0.128 C 
ATOM     14  C   UNL     1      33.049  -9.843 -23.125  0.00  0.00    +0.156 C 
ATOM     15  C   UNL     1      30.919  -9.373 -21.807  0.00  0.00    +0.326 C 
ATOM     16  H   UNL     1      31.559  -7.890 -23.117  0.00  0.00    +0.184 HD
BRANCH   9  17
ATOM     17  O   UNL     1      29.900  -7.263 -21.991  0.00  0.00    -0.294 OA
ATOM     18  H   UNL     1      29.437  -6.896 -22.761  0.00  0.00    +0.241 HD
ENDBRANCH   9  17
ENDBRANCH   3  11
BRANCH   2  19
ATOM     19  C   UNL     1      34.024 -15.973 -24.300  0.00  0.00    +0.116 C 
BRANCH  19  20
ATOM     20  C   UNL     1      33.967 -16.994 -23.198  0.00  0.00    -0.003 C 
ATOM     21  C   UNL     1      34.393 -16.647 -21.921  0.00  0.00    -0.003 C 
ATOM     22  C   UNL     1      33.491 -18.270 -23.468  0.00  0.00    -0.003 C 
ATOM     23  C   UNL     1      33.864 -18.878 -21.161  0.00  0.00    -0.000 C 
ATOM     24  C   UNL     1      34.341 -17.595 -20.899  0.00  0.00    -0.000 C 
ATOM     25  C   UNL     1      33.439 -19.216 -22.446  0.00  0.00    -0.000 C 
BRANCH  23  26
ATOM     26  C   UNL     1      33.809 -19.861 -20.099  0.00  0.00    -0.000 C 
ATOM     27  C   UNL     1      32.575 -20.302 -19.621  0.00  0.00    -0.000 C 
ATOM     28  C   UNL     1      34.989 -20.368 -19.557  0.00  0.00    -0.000 C 
ATOM     29  C   UNL     1      32.522 -21.250 -18.599  0.00  0.00    +0.000 C 
ATOM     30  C   UNL     1      34.936 -21.315 -18.535  0.00  0.00    +0.000 C 
ATOM     31  C   UNL     1      33.703 -21.756 -18.055  0.00  0.00    +0.000 C 
ENDBRANCH  23  26
ENDBRANCH  19  20
ENDBRANCH   2  19
TORSDOF 5
ENDMDL
MODEL 3
REMARK VINA RESULT:     -11.3      1.697      2.339
REMARK  Name = 11987860
REMARK  5 active torsions:
REMARK  status: ('A' for Active; 'I' for Inactive)
REMARK    1  A    between atoms: N_2  and  C_19
REMARK    2  A    between atoms: C_3  and  C_11
REMARK    3  A    between atoms: N_9  and  O_17
REMARK    4  A    between atoms: C_19  and  C_20
REMARK    5  A    between atoms: C_23  and  C_26
REMARK                            x       y       z     vdW  Elec       q    Type
REMARK                         _______ _______ _______ _____ _____    ______ ____
ROOT
ATOM      1  O   UNL     1      31.498 -22.924 -14.789  0.00  0.00    -0.272 OA
ATOM      2  N   UNL     1      33.189 -22.929 -16.389  0.00  0.00    -0.298 N 
ATOM      3  C   UNL     1      32.686 -22.930 -15.099  0.00  0.00    +0.253 C 
ATOM      4  H   UNL     1      34.166 -22.935 -16.511  0.00  0.00    +0.150 HD
ENDROOT
BRANCH   3  11
ATOM      5  O   UNL     1      33.805 -25.167 -13.413  0.00  0.00    -0.327 OA
ATOM      6  O   UNL     1      34.896 -23.575 -14.705  0.00  0.00    -0.320 OA
ATOM      7  O   UNL     1      36.284 -22.446 -10.103  0.00  0.00    -0.250 OA
ATOM      8  N   UNL     1      35.731 -23.752 -11.941  0.00  0.00    -0.255 N 
ATOM      9  N   UNL     1      37.971 -23.279 -11.411  0.00  0.00    -0.181 N 
ATOM     10  C   UNL     1      33.427 -23.881 -12.904  0.00  0.00    +0.174 C 
ATOM     11  C   UNL     1      33.769 -22.966 -14.069  0.00  0.00    +0.222 C 
ATOM     12  C   UNL     1      35.041 -24.848 -14.058  0.00  0.00    +0.256 C 
ATOM     13  C   UNL     1      34.292 -23.623 -11.666  0.00  0.00    +0.128 C 
ATOM     14  C   UNL     1      36.120 -24.724 -12.983  0.00  0.00    +0.156 C 
ATOM     15  C   UNL     1      36.642 -23.112 -11.080  0.00  0.00    +0.326 C 
ATOM     16  H   UNL     1      38.257 -23.810 -12.188  0.00  0.00    +0.184 HD
BRANCH   9  17
ATOM     17  O   UNL     1      38.885 -22.640 -10.560  0.00  0.00    -0.294 OA
ATOM     18  H   UNL     1      39.478 -22.078 -11.085  0.00  0.00    +0.241 HD
ENDBRANCH   9  17
ENDBRANCH   3  11
BRANCH   2  19
ATOM     19  C   UNL     1      32.348 -22.919 -17.565  0.00  0.00    +0.116 C 
BRANCH  19  20
ATOM     20  C   UNL     1      32.739 -21.793 -18.482  0.00  0.00    -0.003 C 
ATOM     21  C   UNL     1      31.749 -21.045 -19.108  0.00  0.00    -0.003 C 
ATOM     22  C   UNL     1      34.082 -21.515 -18.693  0.00  0.00    -0.003 C 
ATOM     23  C   UNL     1      33.458 -19.714 -20.177  0.00  0.00    -0.000 C 
ATOM     24  C   UNL     1      32.111 -20.001 -19.959  0.00  0.00    -0.000 C 
ATOM     25  C   UNL     1      34.444 -20.471 -19.543  0.00  0.00    -0.000 C 
BRANCH  23  26
ATOM     26  C   UNL     1      33.834 -18.630 -21.059  0.00  0.00    -0.000 C 
ATOM     27  C   UNL     1      34.427 -17.480 -20.538  0.00  0.00    -0.000 C 
ATOM     28  C   UNL     1      33.605 -18.736 -22.430  0.00  0.00    -0.000 C 
ATOM     29  C   UNL     1      34.790 -16.436 -21.388  0.00  0.00    +0.000 C 
ATOM     30  C   UNL     1      33.968 -17.692 -23.281  0.00  0.00    +0.000 C 
ATOM     31  C   UNL     1      34.561 -16.541 -22.760  0.00  0.00    +0.000 C 
ENDBRANCH  23  26
ENDBRANCH  19  20
ENDBRANCH   2  19
TORSDOF 5
ENDMDL
MODEL 4
REMARK VINA RESULT:     -10.4     11.205     15.183
REMARK  Name = 11987860
REMARK  5 active torsions:
REMARK  status: ('A' for Active; 'I' for Inactive)
REMARK    1  A    between atoms: N_2  and  C_19
REMARK    2  A    between atoms: C_3  and  C_11
REMARK    3  A    between atoms: N_9  and  O_17
REMARK    4  A    between atoms: C_19  and  C_20
REMARK    5  A    between atoms: C_23  and  C_26
REMARK                            x       y       z     vdW  Elec       q    Type
REMARK                         _______ _______ _______ _____ _____    ______ ____
ROOT
ATOM      1  O   UNL     1      34.055  -9.008 -24.441  0.00  0.00    -0.272 OA
ATOM      2  N   UNL     1      32.526 -10.627 -23.762  0.00  0.00    -0.298 N 
ATOM      3  C   UNL     1      33.190  -9.416 -23.670  0.00  0.00    +0.253 C 
ATOM      4  H   UNL     1      31.848 -10.842 -23.080  0.00  0.00    +0.150 HD
ENDROOT
BRANCH   3  11
ATOM      5  O   UNL     1      31.635  -6.836 -23.505  0.00  0.00    -0.327 OA
ATOM      6  O   UNL     1      31.317  -8.851 -22.393  0.00  0.00    -0.320 OA
ATOM      7  O   UNL     1      32.518  -5.729 -18.761  0.00  0.00    -0.250 OA
ATOM      8  N   UNL     1      31.539  -6.502 -20.719  0.00  0.00    -0.255 N 
ATOM      9  N   UNL     1      30.343  -6.445 -18.698  0.00  0.00    -0.181 N 
ATOM     10  C   UNL     1      32.837  -7.106 -22.770  0.00  0.00    +0.174 C 
ATOM     11  C   UNL     1      32.720  -8.598 -22.509  0.00  0.00    +0.222 C 
ATOM     12  C   UNL     1      30.689  -7.616 -22.768  0.00  0.00    +0.256 C 
ATOM     13  C   UNL     1      32.770  -6.267 -21.489  0.00  0.00    +0.128 C 
ATOM     14  C   UNL     1      30.331  -6.849 -21.494  0.00  0.00    +0.156 C 
ATOM     15  C   UNL     1      31.533  -6.191 -19.346  0.00  0.00    +0.326 C 
ATOM     16  H   UNL     1      29.558  -6.813 -19.163  0.00  0.00    +0.184 HD
BRANCH   9  17
ATOM     17  O   UNL     1      30.330  -6.142 -17.327  0.00  0.00    -0.294 OA
ATOM     18  H   UNL     1      30.684  -5.248 -17.190  0.00  0.00    +0.241 HD
ENDBRANCH   9  17
ENDBRANCH   3  11
BRANCH   2  19
ATOM     19  C   UNL     1      32.780 -11.590 -24.809  0.00  0.00    +0.116 C 
BRANCH  19  20
ATOM     20  C   UNL     1      33.066 -12.944 -24.221  0.00  0.00    -0.003 C 
ATOM     21  C   UNL     1      32.909 -14.080 -25.007  0.00  0.00    -0.003 C 
ATOM     22  C   UNL     1      33.484 -13.045 -22.901  0.00  0.00    -0.003 C 
ATOM     23  C   UNL     1      33.594 -15.446 -23.138  0.00  0.00    -0.000 C 
ATOM     24  C   UNL     1      33.174 -15.335 -24.462  0.00  0.00    -0.000 C 
ATOM     25  C   UNL     1      33.749 -14.301 -22.357  0.00  0.00    -0.000 C 
BRANCH  23  26
ATOM     26  C   UNL     1      33.871 -16.750 -22.572  0.00  0.00    -0.000 C 
ATOM     27  C   UNL     1      33.647 -17.900 -23.329  0.00  0.00    -0.000 C 
ATOM     28  C   UNL     1      34.362 -16.855 -21.271  0.00  0.00    -0.000 C 
ATOM     29  C   UNL     1      33.915 -19.156 -22.784  0.00  0.00    +0.000 C 
ATOM     30  C   UNL     1      34.629 -18.110 -20.726  0.00  0.00    +0.000 C 
ATOM     31  C   UNL     1      34.405 -19.262 -21.482  0.00  0.00    +0.000 C 
ENDBRANCH  23  26
ENDBRANCH  19  20
ENDBRANCH   2  19
TORSDOF 5
ENDMDL
MODEL 5
REMARK VINA RESULT:     -10.3      3.831      6.096
REMARK  Name = 11987860
REMARK  5 active torsions:
REMARK  status: ('A' for Active; 'I' for Inactive)
REMARK    1  A    between atoms: N_2  and  C_19
REMARK    2  A    between atoms: C_3  and  C_11
REMARK    3  A    between atoms: N_9  and  O_17
REMARK    4  A    between atoms: C_19  and  C_20
REMARK    5  A    between atoms: C_23  and  C_26
REMARK                            x       y       z     vdW  Elec       q    Type
REMARK                         _______ _______ _______ _____ _____    ______ ____
ROOT
ATOM      1  O   UNL     1      33.923 -23.341 -15.852  0.00  0.00    -0.272 OA
ATOM      2  N   UNL     1      33.220 -21.992 -17.614  0.00  0.00    -0.298 N 
ATOM      3  C   UNL     1      33.036 -22.783 -16.493  0.00  0.00    +0.253 C 
ATOM      4  H   UNL     1      32.427 -21.597 -18.043  0.00  0.00    +0.150 HD
ENDROOT
BRANCH   3  11
ATOM      5  O   UNL     1      31.686 -23.764 -13.980  0.00  0.00    -0.327 OA
ATOM      6  O   UNL     1      31.365 -21.805 -15.185  0.00  0.00    -0.320 OA
ATOM      7  O   UNL     1      27.070 -24.180 -15.721  0.00  0.00    -0.250 OA
ATOM      8  N   UNL     1      28.997 -23.391 -14.694  0.00  0.00    -0.255 N 
ATOM      9  N   UNL     1      26.939 -22.287 -14.436  0.00  0.00    -0.181 N 
ATOM     10  C   UNL     1      31.301 -24.145 -15.308  0.00  0.00    +0.174 C 
ATOM     11  C   UNL     1      31.597 -22.881 -16.098  0.00  0.00    +0.222 C 
ATOM     12  C   UNL     1      31.153 -22.439 -13.915  0.00  0.00    +0.256 C 
ATOM     13  C   UNL     1      29.807 -24.482 -15.256  0.00  0.00    +0.128 C 
ATOM     14  C   UNL     1      29.647 -22.543 -13.673  0.00  0.00    +0.156 C 
ATOM     15  C   UNL     1      27.624 -23.344 -14.999  0.00  0.00    +0.326 C 
ATOM     16  H   UNL     1      27.379 -21.621 -13.862  0.00  0.00    +0.184 HD
BRANCH   9  17
ATOM     17  O   UNL     1      25.570 -22.230 -14.741  0.00  0.00    -0.294 OA
ATOM     18  H   UNL     1      25.422 -22.579 -15.635  0.00  0.00    +0.241 HD
ENDBRANCH   9  17
ENDBRANCH   3  11
BRANCH   2  19
ATOM     19  C   UNL     1      34.519 -21.721 -18.185  0.00  0.00    +0.116 C 
BRANCH  19  20
ATOM     20  C   UNL     1      34.427 -20.622 -19.207  0.00  0.00    -0.003 C 
ATOM     21  C   UNL     1      35.583 -19.974 -19.623  0.00  0.00    -0.003 C 
ATOM     22  C   UNL     1      33.187 -20.269 -19.724  0.00  0.00    -0.003 C 
ATOM     23  C   UNL     1      34.257 -18.593 -21.096  0.00  0.00    -0.000 C 
ATOM     24  C   UNL     1      35.497 -18.955 -20.572  0.00  0.00    -0.000 C 
ATOM     25  C   UNL     1      33.102 -19.251 -20.673  0.00  0.00    -0.000 C 
BRANCH  23  26
ATOM     26  C   UNL     1      34.168 -17.537 -22.082  0.00  0.00    -0.000 C 
ATOM     27  C   UNL     1      33.922 -17.849 -23.418  0.00  0.00    -0.000 C 
ATOM     28  C   UNL     1      34.325 -16.207 -21.693  0.00  0.00    -0.000 C 
ATOM     29  C   UNL     1      33.834 -16.831 -24.368  0.00  0.00    +0.000 C 
ATOM     30  C   UNL     1      34.238 -15.188 -22.642  0.00  0.00    +0.000 C 
ATOM     31  C   UNL     1      33.993 -15.500 -23.980  0.00  0.00    +0.000 C 
ENDBRANCH  23  26
ENDBRANCH  19  20
ENDBRANCH   2  19
TORSDOF 5
ENDMDL
MODEL 6
REMARK VINA RESULT:      -9.9      2.990      4.774
REMARK  Name = 11987860
REMARK  5 active torsions:
REMARK  status: ('A' for Active; 'I' for Inactive)
REMARK    1  A    between atoms: N_2  and  C_19
REMARK    2  A    between atoms: C_3  and  C_11
REMARK    3  A    between atoms: N_9  and  O_17
REMARK    4  A    between atoms: C_19  and  C_20
REMARK    5  A    between atoms: C_23  and  C_26
REMARK                            x       y       z     vdW  Elec       q    Type
REMARK                         _______ _______ _______ _____ _____    ______ ____
ROOT
ATOM      1  O   UNL     1      36.549 -21.754 -15.965  0.00  0.00    -0.272 OA
ATOM      2  N   UNL     1      34.998 -21.602 -17.694  0.00  0.00    -0.298 N 
ATOM      3  C   UNL     1      35.395 -21.795 -16.382  0.00  0.00    +0.253 C 
ATOM      4  H   UNL     1      34.038 -21.659 -17.907  0.00  0.00    +0.150 HD
ENDROOT
BRANCH   3  11
ATOM      5  O   UNL     1      34.120 -24.337 -15.376  0.00  0.00    -0.327 OA
ATOM      6  O   UNL     1      34.798 -22.441 -14.218  0.00  0.00    -0.320 OA
ATOM      7  O   UNL     1      29.894 -22.425 -13.644  0.00  0.00    -0.250 OA
ATOM      8  N   UNL     1      32.054 -23.260 -13.809  0.00  0.00    -0.255 N 
ATOM      9  N   UNL     1      31.060 -22.855 -11.719  0.00  0.00    -0.181 N 
ATOM     10  C   UNL     1      33.393 -23.228 -15.921  0.00  0.00    +0.174 C 
ATOM     11  C   UNL     1      34.235 -22.045 -15.471  0.00  0.00    +0.222 C 
ATOM     12  C   UNL     1      34.455 -23.828 -14.081  0.00  0.00    +0.256 C 
ATOM     13  C   UNL     1      32.002 -23.251 -15.279  0.00  0.00    +0.128 C 
ATOM     14  C   UNL     1      33.215 -23.934 -13.193  0.00  0.00    +0.156 C 
ATOM     15  C   UNL     1      30.926 -22.819 -13.091  0.00  0.00    +0.326 C 
ATOM     16  H   UNL     1      31.881 -23.169 -11.278  0.00  0.00    +0.184 HD
BRANCH   9  17
ATOM     17  O   UNL     1      29.941 -22.412 -10.996  0.00  0.00    -0.294 OA
ATOM     18  H   UNL     1      29.355 -21.909 -11.584  0.00  0.00    +0.241 HD
ENDBRANCH   9  17
ENDBRANCH   3  11
BRANCH   2  19
ATOM     19  C   UNL     1      35.926 -21.320 -18.766  0.00  0.00    +0.116 C 
BRANCH  19  20
ATOM     20  C   UNL     1      35.443 -20.159 -19.590  0.00  0.00    -0.003 C 
ATOM     21  C   UNL     1      36.321 -19.127 -19.900  0.00  0.00    -0.003 C 
ATOM     22  C   UNL     1      34.127 -20.131 -20.031  0.00  0.00    -0.003 C 
ATOM     23  C   UNL     1      34.553 -18.012 -21.111  0.00  0.00    -0.000 C 
ATOM     24  C   UNL     1      35.872 -18.049 -20.664  0.00  0.00    -0.000 C 
ATOM     25  C   UNL     1      33.679 -19.053 -20.794  0.00  0.00    -0.000 C 
BRANCH  23  26
ATOM     26  C   UNL     1      34.088 -16.894 -21.904  0.00  0.00    -0.000 C 
ATOM     27  C   UNL     1      33.904 -15.646 -21.310  0.00  0.00    -0.000 C 
ATOM     28  C   UNL     1      33.825 -17.066 -23.263  0.00  0.00    -0.000 C 
ATOM     29  C   UNL     1      33.457 -14.568 -22.075  0.00  0.00    +0.000 C 
ATOM     30  C   UNL     1      33.378 -15.989 -24.028  0.00  0.00    +0.000 C 
ATOM     31  C   UNL     1      33.193 -14.740 -23.434  0.00  0.00    +0.000 C 
ENDBRANCH  23  26
ENDBRANCH  19  20
ENDBRANCH   2  19
TORSDOF 5
ENDMDL
MODEL 7
REMARK VINA RESULT:      -9.8      2.832      5.003
REMARK  Name = 11987860
REMARK  5 active torsions:
REMARK  status: ('A' for Active; 'I' for Inactive)
REMARK    1  A    between atoms: N_2  and  C_19
REMARK    2  A    between atoms: C_3  and  C_11
REMARK    3  A    between atoms: N_9  and  O_17
REMARK    4  A    between atoms: C_19  and  C_20
REMARK    5  A    between atoms: C_23  and  C_26
REMARK                            x       y       z     vdW  Elec       q    Type
REMARK                         _______ _______ _______ _____ _____    ______ ____
ROOT
ATOM      1  O   UNL     1      35.755 -23.617 -14.956  0.00  0.00    -0.272 OA
ATOM      2  N   UNL     1      34.635 -22.263 -16.482  0.00  0.00    -0.298 N 
ATOM      3  C   UNL     1      34.719 -23.179 -15.447  0.00  0.00    +0.253 C 
ATOM      4  H   UNL     1      33.742 -21.986 -16.791  0.00  0.00    +0.150 HD
ENDROOT
BRANCH   3  11
ATOM      5  O   UNL     1      32.078 -21.728 -15.320  0.00  0.00    -0.327 OA
ATOM      6  O   UNL     1      32.581 -23.856 -16.102  0.00  0.00    -0.320 OA
ATOM      7  O   UNL     1      29.717 -24.739 -12.178  0.00  0.00    -0.250 OA
ATOM      8  N   UNL     1      30.495 -23.702 -14.104  0.00  0.00    -0.255 N 
ATOM      9  N   UNL     1      28.745 -25.268 -14.184  0.00  0.00    -0.181 N 
ATOM     10  C   UNL     1      32.657 -22.452 -14.226  0.00  0.00    +0.174 C 
ATOM     11  C   UNL     1      33.372 -23.587 -14.941  0.00  0.00    +0.222 C 
ATOM     12  C   UNL     1      31.605 -22.805 -16.135  0.00  0.00    +0.256 C 
ATOM     13  C   UNL     1      31.497 -22.934 -13.350  0.00  0.00    +0.128 C 
ATOM     14  C   UNL     1      30.307 -23.330 -15.521  0.00  0.00    +0.156 C 
ATOM     15  C   UNL     1      29.651 -24.583 -13.402  0.00  0.00    +0.326 C 
ATOM     16  H   UNL     1      28.691 -25.144 -15.159  0.00  0.00    +0.184 HD
BRANCH   9  17
ATOM     17  O   UNL     1      27.903 -26.152 -13.492  0.00  0.00    -0.294 OA
ATOM     18  H   UNL     1      27.864 -25.896 -12.556  0.00  0.00    +0.241 HD
ENDBRANCH   9  17
ENDBRANCH   3  11
BRANCH   2  19
ATOM     19  C   UNL     1      35.795 -21.696 -17.131  0.00  0.00    +0.116 C 
BRANCH  19  20
ATOM     20  C   UNL     1      35.384 -20.863 -18.313  0.00  0.00    -0.003 C 
ATOM     21  C   UNL     1      36.293 -19.974 -18.875  0.00  0.00    -0.003 C 
ATOM     22  C   UNL     1      34.101 -20.991 -18.829  0.00  0.00    -0.003 C 
ATOM     23  C   UNL     1      34.625 -19.323 -20.496  0.00  0.00    -0.000 C 
ATOM     24  C   UNL     1      35.910 -19.201 -19.971  0.00  0.00    -0.000 C 
ATOM     25  C   UNL     1      33.720 -20.218 -19.925  0.00  0.00    -0.000 C 
BRANCH  23  26
ATOM     26  C   UNL     1      34.229 -18.522 -21.635  0.00  0.00    -0.000 C 
ATOM     27  C   UNL     1      33.576 -19.118 -22.713  0.00  0.00    -0.000 C 
ATOM     28  C   UNL     1      34.498 -17.154 -21.652  0.00  0.00    -0.000 C 
ATOM     29  C   UNL     1      33.193 -18.346 -23.810  0.00  0.00    +0.000 C 
ATOM     30  C   UNL     1      34.115 -16.381 -22.748  0.00  0.00    +0.000 C 
ATOM     31  C   UNL     1      33.463 -16.977 -23.828  0.00  0.00    +0.000 C 
ENDBRANCH  23  26
ENDBRANCH  19  20
ENDBRANCH   2  19
TORSDOF 5
ENDMDL
MODEL 8
REMARK VINA RESULT:      -9.8     10.416     14.363
REMARK  Name = 11987860
REMARK  5 active torsions:
REMARK  status: ('A' for Active; 'I' for Inactive)
REMARK    1  A    between atoms: N_2  and  C_19
REMARK    2  A    between atoms: C_3  and  C_11
REMARK    3  A    between atoms: N_9  and  O_17
REMARK    4  A    between atoms: C_19  and  C_20
REMARK    5  A    between atoms: C_23  and  C_26
REMARK                            x       y       z     vdW  Elec       q    Type
REMARK                         _______ _______ _______ _____ _____    ______ ____
ROOT
ATOM      1  O   UNL     1      30.682 -12.012 -19.783  0.00  0.00    -0.272 OA
ATOM      2  N   UNL     1      31.504 -10.675 -21.503  0.00  0.00    -0.298 N 
ATOM      3  C   UNL     1      31.217 -11.878 -20.880  0.00  0.00    +0.253 C 
ATOM      4  H   UNL     1      31.936 -10.697 -22.387  0.00  0.00    +0.150 HD
ENDROOT
BRANCH   3  11
ATOM      5  O   UNL     1      33.685 -12.470 -22.509  0.00  0.00    -0.327 OA
ATOM      6  O   UNL     1      32.576 -13.777 -20.941  0.00  0.00    -0.320 OA
ATOM      7  O   UNL     1      31.947 -16.280 -25.151  0.00  0.00    -0.250 OA
ATOM      8  N   UNL     1      33.002 -14.994 -23.530  0.00  0.00    -0.255 N 
ATOM      9  N   UNL     1      33.320 -17.320 -23.640  0.00  0.00    -0.181 N 
ATOM     10  C   UNL     1      32.343 -12.646 -22.981  0.00  0.00    +0.174 C 
ATOM     11  C   UNL     1      31.612 -13.055 -21.713  0.00  0.00    +0.222 C 
ATOM     12  C   UNL     1      33.816 -13.602 -21.643  0.00  0.00    +0.256 C 
ATOM     13  C   UNL     1      32.385 -13.758 -24.034  0.00  0.00    +0.128 C 
ATOM     14  C   UNL     1      34.059 -14.838 -22.510  0.00  0.00    +0.156 C 
ATOM     15  C   UNL     1      32.705 -16.209 -24.178  0.00  0.00    +0.326 C 
ATOM     16  H   UNL     1      33.924 -17.264 -22.865  0.00  0.00    +0.184 HD
BRANCH   9  17
ATOM     17  O   UNL     1      33.025 -18.535 -24.277  0.00  0.00    -0.294 OA
ATOM     18  H   UNL     1      33.653 -19.215 -23.984  0.00  0.00    +0.241 HD
ENDBRANCH   9  17
ENDBRANCH   3  11
BRANCH   2  19
ATOM     19  C   UNL     1      31.199  -9.390 -20.916  0.00  0.00    +0.116 C 
BRANCH  19  20
ATOM     20  C   UNL     1      31.671  -8.277 -21.811  0.00  0.00    -0.003 C 
ATOM     21  C   UNL     1      31.835  -7.000 -21.287  0.00  0.00    -0.003 C 
ATOM     22  C   UNL     1      31.938  -8.538 -23.148  0.00  0.00    -0.003 C 
ATOM     23  C   UNL     1      32.543  -6.221 -23.461  0.00  0.00    -0.000 C 
ATOM     24  C   UNL     1      32.273  -5.968 -22.117  0.00  0.00    -0.000 C 
ATOM     25  C   UNL     1      32.376  -7.506 -23.977  0.00  0.00    -0.000 C 
BRANCH  23  26
ATOM     26  C   UNL     1      32.998  -5.150 -24.322  0.00  0.00    -0.000 C 
ATOM     27  C   UNL     1      34.200  -5.278 -25.019  0.00  0.00    -0.000 C 
ATOM     28  C   UNL     1      32.234  -3.991 -24.457  0.00  0.00    -0.000 C 
ATOM     29  C   UNL     1      34.638  -4.247 -25.849  0.00  0.00    +0.000 C 
ATOM     30  C   UNL     1      32.672  -2.960 -25.287  0.00  0.00    +0.000 C 
ATOM     31  C   UNL     1      33.874  -3.087 -25.984  0.00  0.00    +0.000 C 
ENDBRANCH  23  26
ENDBRANCH  19  20
ENDBRANCH   2  19
TORSDOF 5
ENDMDL
MODEL 9
REMARK VINA RESULT:      -9.8      5.427     10.369
REMARK  Name = 11987860
REMARK  5 active torsions:
REMARK  status: ('A' for Active; 'I' for Inactive)
REMARK    1  A    between atoms: N_2  and  C_19
REMARK    2  A    between atoms: C_3  and  C_11
REMARK    3  A    between atoms: N_9  and  O_17
REMARK    4  A    between atoms: C_19  and  C_20
REMARK    5  A    between atoms: C_23  and  C_26
REMARK                            x       y       z     vdW  Elec       q    Type
REMARK                         _______ _______ _______ _____ _____    ______ ____
ROOT
ATOM      1  O   UNL     1      36.253 -18.556 -19.501  0.00  0.00    -0.272 OA
ATOM      2  N   UNL     1      34.796 -20.372 -19.477  0.00  0.00    -0.298 N 
ATOM      3  C   UNL     1      35.269 -19.153 -19.931  0.00  0.00    +0.253 C 
ATOM      4  H   UNL     1      33.993 -20.751 -19.903  0.00  0.00    +0.150 HD
ENDROOT
BRANCH   3  11
ATOM      5  O   UNL     1      35.787 -18.963 -22.896  0.00  0.00    -0.327 OA
ATOM      6  O   UNL     1      33.929 -19.754 -21.748  0.00  0.00    -0.320 OA
ATOM      7  O   UNL     1      32.201 -15.761 -24.082  0.00  0.00    -0.250 OA
ATOM      8  N   UNL     1      33.417 -17.707 -23.726  0.00  0.00    -0.255 N 
ATOM      9  N   UNL     1      31.369 -17.743 -24.876  0.00  0.00    -0.181 N 
ATOM     10  C   UNL     1      35.299 -17.883 -22.089  0.00  0.00    +0.174 C 
ATOM     11  C   UNL     1      34.451 -18.614 -21.061  0.00  0.00    +0.222 C 
ATOM     12  C   UNL     1      34.608 -19.765 -23.013  0.00  0.00    +0.256 C 
ATOM     13  C   UNL     1      34.475 -16.978 -23.011  0.00  0.00    +0.128 C 
ATOM     14  C   UNL     1      33.695 -19.120 -24.056  0.00  0.00    +0.156 C 
ATOM     15  C   UNL     1      32.317 -16.983 -24.223  0.00  0.00    +0.326 C 
ATOM     16  H   UNL     1      31.459 -18.716 -24.989  0.00  0.00    +0.184 HD
BRANCH   9  17
ATOM     17  O   UNL     1      30.265 -17.029 -25.370  0.00  0.00    -0.294 OA
ATOM     18  H   UNL     1      30.437 -16.076 -25.297  0.00  0.00    +0.241 HD
ENDBRANCH   9  17
ENDBRANCH   3  11
BRANCH   2  19
ATOM     19  C   UNL     1      35.422 -21.113 -18.406  0.00  0.00    +0.116 C 
BRANCH  19  20
ATOM     20  C   UNL     1      34.383 -21.700 -17.492  0.00  0.00    -0.003 C 
ATOM     21  C   UNL     1      34.740 -22.083 -16.204  0.00  0.00    -0.003 C 
ATOM     22  C   UNL     1      33.079 -21.852 -17.944  0.00  0.00    -0.003 C 
ATOM     23  C   UNL     1      32.464 -22.784 -15.802  0.00  0.00    -0.000 C 
ATOM     24  C   UNL     1      33.775 -22.627 -15.357  0.00  0.00    -0.000 C 
ATOM     25  C   UNL     1      32.115 -22.396 -17.096  0.00  0.00    -0.000 C 
BRANCH  23  26
ATOM     26  C   UNL     1      31.462 -23.348 -14.922  0.00  0.00    -0.000 C 
ATOM     27  C   UNL     1      30.108 -23.189 -15.215  0.00  0.00    -0.000 C 
ATOM     28  C   UNL     1      31.852 -24.050 -13.782  0.00  0.00    -0.000 C 
ATOM     29  C   UNL     1      29.143 -23.734 -14.367  0.00  0.00    +0.000 C 
ATOM     30  C   UNL     1      30.888 -24.595 -12.935  0.00  0.00    +0.000 C 
ATOM     31  C   UNL     1      29.533 -24.436 -13.226  0.00  0.00    +0.000 C 
ENDBRANCH  23  26
ENDBRANCH  19  20
ENDBRANCH   2  19
TORSDOF 5
ENDMDL
