MODEL 1
REMARK VINA RESULT:     -11.8      0.000      0.000
REMARK  Name = 42627755
REMARK  2 active torsions:
REMARK  status: ('A' for Active; 'I' for Inactive)
REMARK    1  A    between atoms: N_5  and  C_20
REMARK    2  A    between atoms: C_7  and  C_28
REMARK                            x       y       z     vdW  Elec       q    Type
REMARK                         _______ _______ _______ _____ _____    ______ ____
ROOT
ATOM      1  N   UNL     1      34.558 -21.337 -18.498  0.00  0.00    -0.239 N 
ATOM      2  N   UNL     1      33.860 -21.931 -17.516  0.00  0.00    -0.166 NA
ATOM      3  N   UNL     1      31.455 -22.054 -17.113  0.00  0.00    -0.271 N 
ATOM      4  N   UNL     1      32.391 -23.281 -15.299  0.00  0.00    -0.322 NA
ATOM      5  N   UNL     1      33.267 -24.495 -13.499  0.00  0.00    -0.247 N 
ATOM      6  N   UNL     1      30.941 -24.267 -13.646  0.00  0.00    -0.170 NA
ATOM      7  C   UNL     1      33.780 -20.696 -19.417  0.00  0.00    +0.045 C 
ATOM      8  C   UNL     1      32.483 -20.886 -19.008  0.00  0.00    +0.048 C 
ATOM      9  C   UNL     1      32.592 -21.652 -17.832  0.00  0.00    +0.152 C 
ATOM     10  C   UNL     1      31.293 -22.811 -15.927  0.00  0.00    +0.199 C 
ATOM     11  C   UNL     1      30.005 -23.025 -15.482  0.00  0.00    +0.070 C 
ATOM     12  C   UNL     1      32.145 -23.990 -14.180  0.00  0.00    +0.150 C 
ATOM     13  C   UNL     1      29.888 -23.766 -14.324  0.00  0.00    +0.116 C 
ATOM     14  H   UNL     1      35.541 -21.361 -18.550  0.00  0.00    +0.174 HD
ATOM     15  H   UNL     1      30.608 -21.749 -17.509  0.00  0.00    +0.156 HD
ATOM     16  H   UNL     1      33.041 -25.007 -12.689  0.00  0.00    +0.165 HD
ENDROOT
BRANCH   5  20
ATOM     17  N   UNL     1      37.891 -26.234 -13.604  0.00  0.00    -0.315 N 
ATOM     18  N   UNL     1      38.751 -24.356 -14.424  0.00  0.00    -0.315 N 
ATOM     19  C   UNL     1      36.831 -25.379 -13.746  0.00  0.00    +0.060 C 
ATOM     20  C   UNL     1      34.656 -24.413 -13.751  0.00  0.00    +0.059 C 
ATOM     21  C   UNL     1      37.393 -24.213 -14.259  0.00  0.00    +0.059 C 
ATOM     22  C   UNL     1      35.469 -25.518 -13.478  0.00  0.00    +0.031 C 
ATOM     23  C   UNL     1      35.190 -23.230 -14.266  0.00  0.00    +0.017 C 
ATOM     24  C   UNL     1      36.561 -23.112 -14.528  0.00  0.00    +0.017 C 
ATOM     25  C   UNL     1      39.017 -25.578 -14.021  0.00  0.00    +0.182 C 
ATOM     26  H   UNL     1      37.852 -27.157 -13.262  0.00  0.00    +0.148 HD
ATOM     27  H   UNL     1      39.387 -23.688 -14.769  0.00  0.00    +0.148 HD
ENDBRANCH   5  20
BRANCH   7  28
ATOM     28  C   UNL     1      34.261 -19.930 -20.642  0.00  0.00    +0.037 C 
ATOM     29  C   UNL     1      35.448 -19.023 -20.506  0.00  0.00    +0.006 C 
ATOM     30  C   UNL     1      34.076 -18.441 -20.680  0.00  0.00    +0.006 C 
ENDBRANCH   7  28
TORSDOF 2
ENDMDL
MODEL 2
REMARK VINA RESULT:     -11.4      1.930      5.551
REMARK  Name = 42627755
REMARK  2 active torsions:
REMARK  status: ('A' for Active; 'I' for Inactive)
REMARK    1  A    between atoms: N_5  and  C_20
REMARK    2  A    between atoms: C_7  and  C_28
REMARK                            x       y       z     vdW  Elec       q    Type
REMARK                         _______ _______ _______ _____ _____    ______ ____
ROOT
ATOM      1  N   UNL     1      33.176 -21.720 -18.034  0.00  0.00    -0.239 N 
ATOM      2  N   UNL     1      33.479 -22.202 -16.817  0.00  0.00    -0.166 NA
ATOM      3  N   UNL     1      35.613 -22.351 -15.642  0.00  0.00    -0.271 N 
ATOM      4  N   UNL     1      34.060 -23.294 -14.103  0.00  0.00    -0.322 NA
ATOM      5  N   UNL     1      32.568 -24.229 -12.559  0.00  0.00    -0.247 N 
ATOM      6  N   UNL     1      34.829 -24.100 -11.966  0.00  0.00    -0.170 NA
ATOM      7  C   UNL     1      34.252 -21.235 -18.718  0.00  0.00    +0.045 C 
ATOM      8  C   UNL     1      35.334 -21.413 -17.890  0.00  0.00    +0.048 C 
ATOM      9  C   UNL     1      34.799 -22.013 -16.735  0.00  0.00    +0.152 C 
ATOM     10  C   UNL     1      35.333 -22.950 -14.390  0.00  0.00    +0.199 C 
ATOM     11  C   UNL     1      36.392 -23.146 -13.528  0.00  0.00    +0.070 C 
ATOM     12  C   UNL     1      33.882 -23.856 -12.892  0.00  0.00    +0.150 C 
ATOM     13  C   UNL     1      36.079 -23.731 -12.319  0.00  0.00    +0.116 C 
ATOM     14  H   UNL     1      32.261 -21.715 -18.399  0.00  0.00    +0.174 HD
ATOM     15  H   UNL     1      36.563 -22.130 -15.772  0.00  0.00    +0.156 HD
ATOM     16  H   UNL     1      32.485 -24.634 -11.666  0.00  0.00    +0.165 HD
ENDROOT
BRANCH   5  20
ATOM     17  N   UNL     1      29.453 -22.259 -15.852  0.00  0.00    -0.315 N 
ATOM     18  N   UNL     1      27.816 -23.695 -15.404  0.00  0.00    -0.315 N 
ATOM     19  C   UNL     1      29.948 -23.085 -14.877  0.00  0.00    +0.060 C 
ATOM     20  C   UNL     1      31.341 -24.133 -13.257  0.00  0.00    +0.059 C 
ATOM     21  C   UNL     1      28.908 -23.972 -14.614  0.00  0.00    +0.059 C 
ATOM     22  C   UNL     1      31.178 -23.131 -14.221  0.00  0.00    +0.031 C 
ATOM     23  C   UNL     1      30.318 -25.037 -12.972  0.00  0.00    +0.017 C 
ATOM     24  C   UNL     1      29.090 -24.972 -13.643  0.00  0.00    +0.017 C 
ATOM     25  C   UNL     1      28.177 -22.663 -16.133  0.00  0.00    +0.182 C 
ATOM     26  H   UNL     1      29.930 -21.509 -16.275  0.00  0.00    +0.148 HD
ATOM     27  H   UNL     1      26.953 -24.167 -15.420  0.00  0.00    +0.148 HD
ENDBRANCH   5  20
BRANCH   7  28
ATOM     28  C   UNL     1      34.246 -20.625 -20.113  0.00  0.00    +0.037 C 
ATOM     29  C   UNL     1      34.871 -19.276 -20.313  0.00  0.00    +0.006 C 
ATOM     30  C   UNL     1      33.379 -19.426 -20.371  0.00  0.00    +0.006 C 
ENDBRANCH   7  28
TORSDOF 2
ENDMDL
MODEL 3
REMARK VINA RESULT:     -11.4      1.938      7.028
REMARK  Name = 42627755
REMARK  2 active torsions:
REMARK  status: ('A' for Active; 'I' for Inactive)
REMARK    1  A    between atoms: N_5  and  C_20
REMARK    2  A    between atoms: C_7  and  C_28
REMARK                            x       y       z     vdW  Elec       q    Type
REMARK                         _______ _______ _______ _____ _____    ______ ____
ROOT
ATOM      1  N   UNL     1      30.030 -22.556 -16.135  0.00  0.00    -0.239 N 
ATOM      2  N   UNL     1      31.360 -22.568 -15.944  0.00  0.00    -0.166 NA
ATOM      3  N   UNL     1      32.706 -23.491 -14.128  0.00  0.00    -0.271 N 
ATOM      4  N   UNL     1      34.323 -22.552 -15.601  0.00  0.00    -0.322 NA
ATOM      5  N   UNL     1      35.948 -21.641 -17.021  0.00  0.00    -0.247 N 
ATOM      6  N   UNL     1      36.666 -22.692 -15.056  0.00  0.00    -0.170 NA
ATOM      7  C   UNL     1      29.324 -23.163 -15.138  0.00  0.00    +0.045 C 
ATOM      8  C   UNL     1      30.259 -23.604 -14.232  0.00  0.00    +0.048 C 
ATOM      9  C   UNL     1      31.494 -23.210 -14.779  0.00  0.00    +0.152 C 
ATOM     10  C   UNL     1      34.055 -23.212 -14.455  0.00  0.00    +0.199 C 
ATOM     11  C   UNL     1      35.025 -23.638 -13.572  0.00  0.00    +0.070 C 
ATOM     12  C   UNL     1      35.631 -22.328 -15.836  0.00  0.00    +0.150 C 
ATOM     13  C   UNL     1      36.326 -23.348 -13.926  0.00  0.00    +0.116 C 
ATOM     14  H   UNL     1      29.603 -22.147 -16.922  0.00  0.00    +0.174 HD
ATOM     15  H   UNL     1      32.596 -23.975 -13.278  0.00  0.00    +0.156 HD
ATOM     16  H   UNL     1      36.913 -21.501 -17.151  0.00  0.00    +0.165 HD
ENDROOT
BRANCH   5  20
ATOM     17  N   UNL     1      35.103 -18.872 -21.026  0.00  0.00    -0.315 N 
ATOM     18  N   UNL     1      32.966 -19.465 -21.184  0.00  0.00    -0.315 N 
ATOM     19  C   UNL     1      34.886 -19.737 -19.986  0.00  0.00    +0.060 C 
ATOM     20  C   UNL     1      35.150 -21.114 -18.063  0.00  0.00    +0.059 C 
ATOM     21  C   UNL     1      33.545 -20.094 -20.105  0.00  0.00    +0.059 C 
ATOM     22  C   UNL     1      35.720 -20.225 -18.980  0.00  0.00    +0.031 C 
ATOM     23  C   UNL     1      33.809 -21.490 -18.157  0.00  0.00    +0.017 C 
ATOM     24  C   UNL     1      32.988 -20.989 -19.176  0.00  0.00    +0.017 C 
ATOM     25  C   UNL     1      33.927 -18.741 -21.713  0.00  0.00    +0.182 C 
ATOM     26  H   UNL     1      35.953 -18.425 -21.242  0.00  0.00    +0.148 HD
ATOM     27  H   UNL     1      32.034 -19.541 -21.493  0.00  0.00    +0.148 HD
ENDBRANCH   5  20
BRANCH   7  28
ATOM     28  C   UNL     1      27.812 -23.316 -15.055  0.00  0.00    +0.037 C 
ATOM     29  C   UNL     1      26.976 -22.861 -16.214  0.00  0.00    +0.006 C 
ATOM     30  C   UNL     1      26.969 -22.080 -14.933  0.00  0.00    +0.006 C 
ENDBRANCH   7  28
TORSDOF 2
ENDMDL
MODEL 4
REMARK VINA RESULT:     -11.2      1.739      5.387
REMARK  Name = 42627755
REMARK  2 active torsions:
REMARK  status: ('A' for Active; 'I' for Inactive)
REMARK    1  A    between atoms: N_5  and  C_20
REMARK    2  A    between atoms: C_7  and  C_28
REMARK                            x       y       z     vdW  Elec       q    Type
REMARK                         _______ _______ _______ _____ _____    ______ ____
ROOT
ATOM      1  N   UNL     1      33.553 -21.331 -18.280  0.00  0.00    -0.239 N 
ATOM      2  N   UNL     1      33.937 -21.914 -17.133  0.00  0.00    -0.166 NA
ATOM      3  N   UNL     1      36.156 -22.228 -16.164  0.00  0.00    -0.271 N 
ATOM      4  N   UNL     1      34.700 -23.226 -14.565  0.00  0.00    -0.322 NA
ATOM      5  N   UNL     1      33.306 -24.218 -12.966  0.00  0.00    -0.247 N 
ATOM      6  N   UNL     1      35.614 -24.216 -12.567  0.00  0.00    -0.170 NA
ATOM      7  C   UNL     1      34.586 -20.837 -19.021  0.00  0.00    +0.045 C 
ATOM      8  C   UNL     1      35.726 -21.115 -18.305  0.00  0.00    +0.048 C 
ATOM      9  C   UNL     1      35.266 -21.780 -17.154  0.00  0.00    +0.152 C 
ATOM     10  C   UNL     1      35.958 -22.908 -14.937  0.00  0.00    +0.199 C 
ATOM     11  C   UNL     1      37.077 -23.206 -14.188  0.00  0.00    +0.070 C 
ATOM     12  C   UNL     1      34.603 -23.870 -13.385  0.00  0.00    +0.150 C 
ATOM     13  C   UNL     1      36.843 -23.868 -13.001  0.00  0.00    +0.116 C 
ATOM     14  H   UNL     1      32.611 -21.266 -18.562  0.00  0.00    +0.174 HD
ATOM     15  H   UNL     1      37.099 -22.032 -16.361  0.00  0.00    +0.156 HD
ATOM     16  H   UNL     1      33.283 -24.685 -12.100  0.00  0.00    +0.165 HD
ENDROOT
BRANCH   5  20
ATOM     17  N   UNL     1      28.497 -25.176 -13.577  0.00  0.00    -0.315 N 
ATOM     18  N   UNL     1      28.217 -23.609 -15.128  0.00  0.00    -0.315 N 
ATOM     19  C   UNL     1      29.727 -24.594 -13.735  0.00  0.00    +0.060 C 
ATOM     20  C   UNL     1      32.030 -24.025 -13.544  0.00  0.00    +0.059 C 
ATOM     21  C   UNL     1      29.527 -23.619 -14.708  0.00  0.00    +0.059 C 
ATOM     22  C   UNL     1      30.962 -24.828 -13.130  0.00  0.00    +0.031 C 
ATOM     23  C   UNL     1      31.861 -23.040 -14.518  0.00  0.00    +0.017 C 
ATOM     24  C   UNL     1      30.611 -22.821 -15.113  0.00  0.00    +0.017 C 
ATOM     25  C   UNL     1      27.628 -24.554 -14.431  0.00  0.00    +0.182 C 
ATOM     26  H   UNL     1      28.277 -25.910 -12.960  0.00  0.00    +0.148 HD
ATOM     27  H   UNL     1      27.809 -23.021 -15.805  0.00  0.00    +0.148 HD
ENDBRANCH   5  20
BRANCH   7  28
ATOM     28  C   UNL     1      34.487 -20.124 -20.362  0.00  0.00    +0.037 C 
ATOM     29  C   UNL     1      35.303 -18.885 -20.583  0.00  0.00    +0.006 C 
ATOM     30  C   UNL     1      33.815 -18.783 -20.418  0.00  0.00    +0.006 C 
ENDBRANCH   7  28
TORSDOF 2
ENDMDL
MODEL 5
REMARK VINA RESULT:     -11.1      1.372      6.632
REMARK  Name = 42627755
REMARK  2 active torsions:
REMARK  status: ('A' for Active; 'I' for Inactive)
REMARK    1  A    between atoms: N_5  and  C_20
REMARK    2  A    between atoms: C_7  and  C_28
REMARK                            x       y       z     vdW  Elec       q    Type
REMARK                         _______ _______ _______ _____ _____    ______ ____
ROOT
ATOM      1  N   UNL     1      36.538 -23.567 -14.800  0.00  0.00    -0.239 N 
ATOM      2  N   UNL     1      35.208 -23.461 -14.956  0.00  0.00    -0.166 NA
ATOM      3  N   UNL     1      33.367 -24.305 -13.592  0.00  0.00    -0.271 N 
ATOM      4  N   UNL     1      32.270 -23.176 -15.378  0.00  0.00    -0.322 NA
ATOM      5  N   UNL     1      31.148 -22.077 -17.116  0.00  0.00    -0.247 N 
ATOM      6  N   UNL     1      29.862 -23.111 -15.455  0.00  0.00    -0.170 NA
ATOM      7  C   UNL     1      36.910 -24.268 -13.691  0.00  0.00    +0.045 C 
ATOM      8  C   UNL     1      35.740 -24.645 -13.077  0.00  0.00    +0.048 C 
ATOM      9  C   UNL     1      34.725 -24.123 -13.900  0.00  0.00    +0.152 C 
ATOM     10  C   UNL     1      32.177 -23.892 -14.238  0.00  0.00    +0.199 C 
ATOM     11  C   UNL     1      30.980 -24.250 -13.654  0.00  0.00    +0.070 C 
ATOM     12  C   UNL     1      31.090 -22.824 -15.926  0.00  0.00    +0.150 C 
ATOM     13  C   UNL     1      29.843 -23.830 -14.313  0.00  0.00    +0.116 C 
ATOM     14  H   UNL     1      37.187 -23.175 -15.430  0.00  0.00    +0.174 HD
ATOM     15  H   UNL     1      33.214 -24.821 -12.769  0.00  0.00    +0.156 HD
ATOM     16  H   UNL     1      30.264 -21.842 -17.479  0.00  0.00    +0.165 HD
ENDROOT
BRANCH   5  20
ATOM     17  N   UNL     1      33.214 -19.341 -20.674  0.00  0.00    -0.315 N 
ATOM     18  N   UNL     1      35.272 -20.077 -20.270  0.00  0.00    -0.315 N 
ATOM     19  C   UNL     1      33.088 -20.227 -19.637  0.00  0.00    +0.060 C 
ATOM     20  C   UNL     1      32.229 -21.597 -17.891  0.00  0.00    +0.059 C 
ATOM     21  C   UNL     1      34.385 -20.673 -19.402  0.00  0.00    +0.059 C 
ATOM     22  C   UNL     1      31.984 -20.664 -18.905  0.00  0.00    +0.031 C 
ATOM     23  C   UNL     1      33.519 -22.063 -17.632  0.00  0.00    +0.017 C 
ATOM     24  C   UNL     1      34.613 -21.610 -18.380  0.00  0.00    +0.017 C 
ATOM     25  C   UNL     1      34.537 -19.286 -21.018  0.00  0.00    +0.182 C 
ATOM     26  H   UNL     1      32.484 -18.834 -21.098  0.00  0.00    +0.148 HD
ATOM     27  H   UNL     1      36.246 -20.214 -20.319  0.00  0.00    +0.148 HD
ENDBRANCH   5  20
BRANCH   7  28
ATOM     28  C   UNL     1      38.332 -24.565 -13.234  0.00  0.00    +0.037 C 
ATOM     29  C   UNL     1      39.408 -24.703 -14.270  0.00  0.00    +0.006 C 
ATOM     30  C   UNL     1      38.917 -25.915 -13.533  0.00  0.00    +0.006 C 
ENDBRANCH   7  28
TORSDOF 2
ENDMDL
MODEL 6
REMARK VINA RESULT:     -10.9      1.859      6.742
REMARK  Name = 42627755
REMARK  2 active torsions:
REMARK  status: ('A' for Active; 'I' for Inactive)
REMARK    1  A    between atoms: N_5  and  C_20
REMARK    2  A    between atoms: C_7  and  C_28
REMARK                            x       y       z     vdW  Elec       q    Type
REMARK                         _______ _______ _______ _____ _____    ______ ____
ROOT
ATOM      1  N   UNL     1      30.103 -22.730 -15.911  0.00  0.00    -0.239 N 
ATOM      2  N   UNL     1      31.421 -22.812 -15.665  0.00  0.00    -0.166 NA
ATOM      3  N   UNL     1      32.642 -23.876 -13.838  0.00  0.00    -0.271 N 
ATOM      4  N   UNL     1      34.363 -22.948 -15.196  0.00  0.00    -0.322 NA
ATOM      5  N   UNL     1      36.088 -22.051 -16.502  0.00  0.00    -0.247 N 
ATOM      6  N   UNL     1      36.671 -23.221 -14.559  0.00  0.00    -0.170 NA
ATOM      7  C   UNL     1      29.327 -23.347 -14.974  0.00  0.00    +0.045 C 
ATOM      8  C   UNL     1      30.200 -23.871 -14.051  0.00  0.00    +0.048 C 
ATOM      9  C   UNL     1      31.474 -23.510 -14.526  0.00  0.00    +0.152 C 
ATOM     10  C   UNL     1      34.015 -23.645 -14.095  0.00  0.00    +0.199 C 
ATOM     11  C   UNL     1      34.925 -24.155 -13.192  0.00  0.00    +0.070 C 
ATOM     12  C   UNL     1      35.689 -22.775 -15.364  0.00  0.00    +0.150 C 
ATOM     13  C   UNL     1      36.252 -23.909 -13.476  0.00  0.00    +0.116 C 
ATOM     14  H   UNL     1      29.730 -22.266 -16.696  0.00  0.00    +0.174 HD
ATOM     15  H   UNL     1      32.473 -24.392 -13.017  0.00  0.00    +0.156 HD
ATOM     16  H   UNL     1      37.064 -21.951 -16.584  0.00  0.00    +0.165 HD
ENDROOT
BRANCH   5  20
ATOM     17  N   UNL     1      31.990 -20.943 -19.031  0.00  0.00    -0.315 N 
ATOM     18  N   UNL     1      33.063 -19.734 -20.556  0.00  0.00    -0.315 N 
ATOM     19  C   UNL     1      33.311 -20.989 -18.670  0.00  0.00    +0.060 C 
ATOM     20  C   UNL     1      35.362 -21.442 -17.551  0.00  0.00    +0.059 C 
ATOM     21  C   UNL     1      33.961 -20.227 -19.636  0.00  0.00    +0.059 C 
ATOM     22  C   UNL     1      33.975 -21.613 -17.613  0.00  0.00    +0.031 C 
ATOM     23  C   UNL     1      36.042 -20.684 -18.506  0.00  0.00    +0.017 C 
ATOM     24  C   UNL     1      35.355 -20.067 -19.559  0.00  0.00    +0.017 C 
ATOM     25  C   UNL     1      31.892 -20.183 -20.163  0.00  0.00    +0.182 C 
ATOM     26  H   UNL     1      31.244 -21.380 -18.560  0.00  0.00    +0.148 HD
ATOM     27  H   UNL     1      33.257 -19.168 -21.337  0.00  0.00    +0.148 HD
ENDBRANCH   5  20
BRANCH   7  28
ATOM     28  C   UNL     1      27.807 -23.433 -14.963  0.00  0.00    +0.037 C 
ATOM     29  C   UNL     1      27.052 -23.019 -16.191  0.00  0.00    +0.006 C 
ATOM     30  C   UNL     1      27.013 -22.159 -14.961  0.00  0.00    +0.006 C 
ENDBRANCH   7  28
TORSDOF 2
ENDMDL
MODEL 7
REMARK VINA RESULT:     -10.3      1.875      5.409
REMARK  Name = 42627755
REMARK  2 active torsions:
REMARK  status: ('A' for Active; 'I' for Inactive)
REMARK    1  A    between atoms: N_5  and  C_20
REMARK    2  A    between atoms: C_7  and  C_28
REMARK                            x       y       z     vdW  Elec       q    Type
REMARK                         _______ _______ _______ _____ _____    ______ ____
ROOT
ATOM      1  N   UNL     1      30.804 -23.522 -14.518  0.00  0.00    -0.239 N 
ATOM      2  N   UNL     1      31.872 -23.086 -15.206  0.00  0.00    -0.166 NA
ATOM      3  N   UNL     1      32.036 -21.998 -17.385  0.00  0.00    -0.271 N 
ATOM      4  N   UNL     1      34.299 -22.145 -16.662  0.00  0.00    -0.322 NA
ATOM      5  N   UNL     1      36.540 -22.269 -15.990  0.00  0.00    -0.247 N 
ATOM      6  N   UNL     1      36.063 -21.292 -18.064  0.00  0.00    -0.170 NA
ATOM      7  C   UNL     1      29.616 -23.318 -15.157  0.00  0.00    +0.045 C 
ATOM      8  C   UNL     1      29.931 -22.705 -16.346  0.00  0.00    +0.048 C 
ATOM      9  C   UNL     1      31.333 -22.588 -16.322  0.00  0.00    +0.152 C 
ATOM     10  C   UNL     1      33.414 -21.763 -17.606  0.00  0.00    +0.199 C 
ATOM     11  C   UNL     1      33.773 -21.148 -18.788  0.00  0.00    +0.070 C 
ATOM     12  C   UNL     1      35.589 -21.883 -16.952  0.00  0.00    +0.150 C 
ATOM     13  C   UNL     1      35.124 -20.936 -18.966  0.00  0.00    +0.116 C 
ATOM     14  H   UNL     1      30.871 -23.950 -13.633  0.00  0.00    +0.174 HD
ATOM     15  H   UNL     1      31.458 -21.690 -18.119  0.00  0.00    +0.156 HD
ATOM     16  H   UNL     1      37.467 -22.057 -16.244  0.00  0.00    +0.165 HD
ENDROOT
BRANCH   5  20
ATOM     17  N   UNL     1      34.420 -23.116 -11.607  0.00  0.00    -0.315 N 
ATOM     18  N   UNL     1      35.918 -24.639 -10.996  0.00  0.00    -0.315 N 
ATOM     19  C   UNL     1      35.299 -23.205 -12.655  0.00  0.00    +0.060 C 
ATOM     20  C   UNL     1      36.423 -22.899 -14.730  0.00  0.00    +0.059 C 
ATOM     21  C   UNL     1      36.224 -24.162 -12.249  0.00  0.00    +0.059 C 
ATOM     22  C   UNL     1      35.363 -22.551 -13.885  0.00  0.00    +0.031 C 
ATOM     23  C   UNL     1      37.367 -23.855 -14.351  0.00  0.00    +0.017 C 
ATOM     24  C   UNL     1      37.283 -24.500 -13.110  0.00  0.00    +0.017 C 
ATOM     25  C   UNL     1      34.832 -23.991 -10.640  0.00  0.00    +0.182 C 
ATOM     26  H   UNL     1      33.632 -22.527 -11.559  0.00  0.00    +0.148 HD
ATOM     27  H   UNL     1      36.406 -25.319 -10.477  0.00  0.00    +0.148 HD
ENDBRANCH   5  20
BRANCH   7  28
ATOM     28  C   UNL     1      28.231 -23.697 -14.650  0.00  0.00    +0.037 C 
ATOM     29  C   UNL     1      27.150 -23.983 -15.649  0.00  0.00    +0.006 C 
ATOM     30  C   UNL     1      27.105 -22.722 -14.836  0.00  0.00    +0.006 C 
ENDBRANCH   7  28
TORSDOF 2
ENDMDL
MODEL 8
REMARK VINA RESULT:     -10.3      1.513      6.206
REMARK  Name = 42627755
REMARK  2 active torsions:
REMARK  status: ('A' for Active; 'I' for Inactive)
REMARK    1  A    between atoms: N_5  and  C_20
REMARK    2  A    between atoms: C_7  and  C_28
REMARK                            x       y       z     vdW  Elec       q    Type
REMARK                         _______ _______ _______ _____ _____    ______ ____
ROOT
ATOM      1  N   UNL     1      36.454 -23.799 -14.465  0.00  0.00    -0.239 N 
ATOM      2  N   UNL     1      35.114 -23.751 -14.540  0.00  0.00    -0.166 NA
ATOM      3  N   UNL     1      33.397 -24.704 -13.089  0.00  0.00    -0.271 N 
ATOM      4  N   UNL     1      32.145 -23.592 -14.783  0.00  0.00    -0.322 NA
ATOM      5  N   UNL     1      30.875 -22.512 -16.427  0.00  0.00    -0.247 N 
ATOM      6  N   UNL     1      29.737 -23.635 -14.717  0.00  0.00    -0.170 NA
ATOM      7  C   UNL     1      36.922 -24.504 -13.395  0.00  0.00    +0.045 C 
ATOM      8  C   UNL     1      35.808 -24.945 -12.722  0.00  0.00    +0.048 C 
ATOM      9  C   UNL     1      34.724 -24.454 -13.472  0.00  0.00    +0.152 C 
ATOM     10  C   UNL     1      32.153 -24.333 -13.655  0.00  0.00    +0.199 C 
ATOM     11  C   UNL     1      31.009 -24.756 -13.010  0.00  0.00    +0.070 C 
ATOM     12  C   UNL     1      30.921 -23.283 -15.252  0.00  0.00    +0.150 C 
ATOM     13  C   UNL     1      29.818 -24.375 -13.591  0.00  0.00    +0.116 C 
ATOM     14  H   UNL     1      37.046 -23.366 -15.123  0.00  0.00    +0.174 HD
ATOM     15  H   UNL     1      33.315 -25.241 -12.270  0.00  0.00    +0.156 HD
ATOM     16  H   UNL     1      29.961 -22.310 -16.733  0.00  0.00    +0.165 HD
ENDROOT
BRANCH   5  20
ATOM     17  N   UNL     1      35.551 -21.599 -17.740  0.00  0.00    -0.315 N 
ATOM     18  N   UNL     1      34.986 -20.448 -19.556  0.00  0.00    -0.315 N 
ATOM     19  C   UNL     1      34.181 -21.605 -17.766  0.00  0.00    +0.060 C 
ATOM     20  C   UNL     1      31.885 -21.968 -17.254  0.00  0.00    +0.059 C 
ATOM     21  C   UNL     1      33.852 -20.881 -18.908  0.00  0.00    +0.059 C 
ATOM     22  C   UNL     1      33.228 -22.164 -16.913  0.00  0.00    +0.031 C 
ATOM     23  C   UNL     1      31.525 -21.247 -18.393  0.00  0.00    +0.017 C 
ATOM     24  C   UNL     1      32.498 -20.694 -19.235  0.00  0.00    +0.017 C 
ATOM     25  C   UNL     1      35.986 -20.896 -18.830  0.00  0.00    +0.182 C 
ATOM     26  H   UNL     1      36.121 -22.025 -17.060  0.00  0.00    +0.148 HD
ATOM     27  H   UNL     1      35.038 -19.919 -20.385  0.00  0.00    +0.148 HD
ENDBRANCH   5  20
BRANCH   7  28
ATOM     28  C   UNL     1      38.380 -24.745 -13.029  0.00  0.00    +0.037 C 
ATOM     29  C   UNL     1      39.397 -24.817 -14.129  0.00  0.00    +0.006 C 
ATOM     30  C   UNL     1      39.004 -26.062 -13.388  0.00  0.00    +0.006 C 
ENDBRANCH   7  28
TORSDOF 2
ENDMDL
MODEL 9
REMARK VINA RESULT:      -9.9      1.785      6.821
REMARK  Name = 42627755
REMARK  2 active torsions:
REMARK  status: ('A' for Active; 'I' for Inactive)
REMARK    1  A    between atoms: N_5  and  C_20
REMARK    2  A    between atoms: C_7  and  C_28
REMARK                            x       y       z     vdW  Elec       q    Type
REMARK                         _______ _______ _______ _____ _____    ______ ____
ROOT
ATOM      1  N   UNL     1      35.471 -23.755 -13.558  0.00  0.00    -0.239 N 
ATOM      2  N   UNL     1      34.833 -23.222 -14.612  0.00  0.00    -0.166 NA
ATOM      3  N   UNL     1      35.695 -22.133 -16.620  0.00  0.00    -0.271 N 
ATOM      4  N   UNL     1      33.333 -22.065 -16.916  0.00  0.00    -0.322 NA
ATOM      5  N   UNL     1      31.017 -21.976 -17.249  0.00  0.00    -0.247 N 
ATOM      6  N   UNL     1      32.403 -21.056 -18.897  0.00  0.00    -0.170 NA
ATOM      7  C   UNL     1      36.830 -23.664 -13.632  0.00  0.00    +0.045 C 
ATOM      8  C   UNL     1      37.098 -23.028 -14.820  0.00  0.00    +0.048 C 
ATOM      9  C   UNL     1      35.832 -22.779 -15.381  0.00  0.00    +0.152 C 
ATOM     10  C   UNL     1      34.562 -21.770 -17.389  0.00  0.00    +0.199 C 
ATOM     11  C   UNL     1      34.788 -21.129 -18.589  0.00  0.00    +0.070 C 
ATOM     12  C   UNL     1      32.313 -21.685 -17.710  0.00  0.00    +0.150 C 
ATOM     13  C   UNL     1      33.660 -20.791 -19.309  0.00  0.00    +0.116 C 
ATOM     14  H   UNL     1      35.002 -24.173 -12.799  0.00  0.00    +0.174 HD
ATOM     15  H   UNL     1      36.552 -21.883 -17.034  0.00  0.00    +0.156 HD
ATOM     16  H   UNL     1      30.304 -21.681 -17.861  0.00  0.00    +0.165 HD
ENDROOT
BRANCH   5  20
ATOM     17  N   UNL     1      31.480 -24.649 -13.119  0.00  0.00    -0.315 N 
ATOM     18  N   UNL     1      29.319 -24.535 -12.610  0.00  0.00    -0.315 N 
ATOM     19  C   UNL     1      30.907 -23.909 -14.120  0.00  0.00    +0.060 C 
ATOM     20  C   UNL     1      30.538 -22.610 -16.080  0.00  0.00    +0.059 C 
ATOM     21  C   UNL     1      29.559 -23.852 -13.780  0.00  0.00    +0.059 C 
ATOM     22  C   UNL     1      31.436 -23.303 -15.260  0.00  0.00    +0.031 C 
ATOM     23  C   UNL     1      29.180 -22.535 -15.765  0.00  0.00    +0.017 C 
ATOM     24  C   UNL     1      28.671 -23.151 -14.615  0.00  0.00    +0.017 C 
ATOM     25  C   UNL     1      30.491 -25.000 -12.241  0.00  0.00    +0.182 C 
ATOM     26  H   UNL     1      32.432 -24.886 -13.044  0.00  0.00    +0.148 HD
ATOM     27  H   UNL     1      28.457 -24.650 -12.149  0.00  0.00    +0.148 HD
ENDBRANCH   5  20
BRANCH   7  28
ATOM     28  C   UNL     1      37.835 -24.167 -12.605  0.00  0.00    +0.037 C 
ATOM     29  C   UNL     1      38.702 -25.338 -12.958  0.00  0.00    +0.006 C 
ATOM     30  C   UNL     1      37.596 -25.499 -11.956  0.00  0.00    +0.006 C 
ENDBRANCH   7  28
TORSDOF 2
ENDMDL
