MODEL 1
REMARK VINA RESULT:     -11.8      0.000      0.000
REMARK  Name = 5326929
REMARK  3 active torsions:
REMARK  status: ('A' for Active; 'I' for Inactive)
REMARK    1  A    between atoms: C_7  and  C_21
REMARK    2  A    between atoms: C_21  and  C_22
REMARK    3  A    between atoms: C_22  and  C_23
REMARK                            x       y       z     vdW  Elec       q    Type
REMARK                         _______ _______ _______ _____ _____    ______ ____
ROOT
ATOM      1  O   UNL     1      34.611 -24.672 -11.655  0.00  0.00    -0.209 OA
ATOM      2  N   UNL     1      34.564 -22.776 -15.183  0.00  0.00    -0.275 N 
ATOM      3  N   UNL     1      29.795 -25.091 -13.714  0.00  0.00    -0.315 N 
ATOM      4  N   UNL     1      29.801 -24.030 -15.666  0.00  0.00    -0.316 N 
ATOM      5  N   UNL     1      35.744 -23.457 -13.231  0.00  0.00    -0.302 NA
ATOM      6  N   UNL     1      36.772 -22.210 -14.927  0.00  0.00    -0.320 N 
ATOM      7  C   UNL     1      32.217 -23.323 -15.555  0.00  0.00    +0.007 C 
ATOM      8  C   UNL     1      33.376 -23.381 -14.764  0.00  0.00    +0.060 C 
ATOM      9  C   UNL     1      31.047 -23.948 -15.088  0.00  0.00    +0.056 C 
ATOM     10  C   UNL     1      31.069 -24.604 -13.863  0.00  0.00    +0.060 C 
ATOM     11  C   UNL     1      33.358 -24.054 -13.532  0.00  0.00    +0.109 C 
ATOM     12  C   UNL     1      32.201 -24.685 -13.050  0.00  0.00    +0.029 C 
ATOM     13  C   UNL     1      34.617 -24.086 -12.734  0.00  0.00    +0.208 C 
ATOM     14  C   UNL     1      29.076 -24.722 -14.817  0.00  0.00    +0.182 C 
ATOM     15  C   UNL     1      35.684 -22.850 -14.387  0.00  0.00    +0.248 C 
ATOM     16  H   UNL     1      34.599 -22.299 -16.043  0.00  0.00    +0.156 HD
ATOM     17  H   UNL     1      29.459 -25.613 -12.951  0.00  0.00    +0.148 HD
ATOM     18  H   UNL     1      29.515 -23.653 -16.530  0.00  0.00    +0.148 HD
ATOM     19  H   UNL     1      36.695 -21.761 -15.801  0.00  0.00    +0.146 HD
ATOM     20  H   UNL     1      37.628 -22.200 -14.443  0.00  0.00    +0.146 HD
ENDROOT
BRANCH   7  21
ATOM     21  C   UNL     1      32.228 -22.606 -16.869  0.00  0.00    +0.034 C 
BRANCH  21  22
ATOM     22  C   UNL     1      33.291 -23.128 -17.853  0.00  0.00    +0.031 C 
BRANCH  22  23
ATOM     23  C   UNL     1      33.889 -22.043 -18.714  0.00  0.00    -0.022 C 
ATOM     24  C   UNL     1      33.052 -21.227 -19.461  0.00  0.00    -0.005 C 
ATOM     25  C   UNL     1      35.265 -21.879 -18.744  0.00  0.00    -0.005 C 
ATOM     26  C   UNL     1      34.989 -20.049 -20.297  0.00  0.00    -0.022 C 
ATOM     27  C   UNL     1      33.606 -20.225 -20.257  0.00  0.00    -0.005 C 
ATOM     28  C   UNL     1      35.819 -20.876 -19.539  0.00  0.00    -0.005 C 
ATOM     29  C   UNL     1      35.580 -18.977 -21.146  0.00  0.00    +0.031 C 
ENDBRANCH  22  23
ENDBRANCH  21  22
ENDBRANCH   7  21
TORSDOF 3
ENDMDL
MODEL 2
REMARK VINA RESULT:     -11.5      1.745      4.291
REMARK  Name = 5326929
REMARK  3 active torsions:
REMARK  status: ('A' for Active; 'I' for Inactive)
REMARK    1  A    between atoms: C_7  and  C_21
REMARK    2  A    between atoms: C_21  and  C_22
REMARK    3  A    between atoms: C_22  and  C_23
REMARK                            x       y       z     vdW  Elec       q    Type
REMARK                         _______ _______ _______ _____ _____    ______ ____
ROOT
ATOM      1  O   UNL     1      28.588 -25.362 -13.601  0.00  0.00    -0.209 OA
ATOM      2  N   UNL     1      29.695 -22.984 -16.627  0.00  0.00    -0.275 N 
ATOM      3  N   UNL     1      33.788 -24.653 -13.353  0.00  0.00    -0.315 N 
ATOM      4  N   UNL     1      34.371 -23.333 -15.043  0.00  0.00    -0.316 N 
ATOM      5  N   UNL     1      27.985 -24.136 -15.438  0.00  0.00    -0.302 NA
ATOM      6  N   UNL     1      27.518 -22.844 -17.336  0.00  0.00    -0.320 N 
ATOM      7  C   UNL     1      32.039 -23.064 -15.961  0.00  0.00    +0.007 C 
ATOM      8  C   UNL     1      30.699 -23.435 -15.766  0.00  0.00    +0.060 C 
ATOM      9  C   UNL     1      33.012 -23.546 -15.067  0.00  0.00    +0.056 C 
ATOM     10  C   UNL     1      32.622 -24.372 -14.018  0.00  0.00    +0.060 C 
ATOM     11  C   UNL     1      30.345 -24.270 -14.695  0.00  0.00    +0.109 C 
ATOM     12  C   UNL     1      31.300 -24.760 -13.791  0.00  0.00    +0.029 C 
ATOM     13  C   UNL     1      28.907 -24.632 -14.534  0.00  0.00    +0.208 C 
ATOM     14  C   UNL     1      34.804 -24.009 -14.004  0.00  0.00    +0.182 C 
ATOM     15  C   UNL     1      28.390 -23.363 -16.412  0.00  0.00    +0.248 C 
ATOM     16  H   UNL     1      29.920 -22.397 -17.384  0.00  0.00    +0.156 HD
ATOM     17  H   UNL     1      33.878 -25.216 -12.552  0.00  0.00    +0.148 HD
ATOM     18  H   UNL     1      34.903 -22.789 -15.668  0.00  0.00    +0.148 HD
ATOM     19  H   UNL     1      27.854 -22.264 -18.058  0.00  0.00    +0.146 HD
ATOM     20  H   UNL     1      26.558 -23.050 -17.277  0.00  0.00    +0.146 HD
ENDROOT
BRANCH   7  21
ATOM     21  C   UNL     1      32.424 -22.175 -17.101  0.00  0.00    +0.034 C 
BRANCH  21  22
ATOM     22  C   UNL     1      33.500 -22.777 -18.025  0.00  0.00    +0.031 C 
BRANCH  22  23
ATOM     23  C   UNL     1      34.196 -21.747 -18.879  0.00  0.00    -0.022 C 
ATOM     24  C   UNL     1      35.581 -21.678 -18.869  0.00  0.00    -0.005 C 
ATOM     25  C   UNL     1      33.440 -20.887 -19.660  0.00  0.00    -0.005 C 
ATOM     26  C   UNL     1      35.475 -19.853 -20.449  0.00  0.00    -0.022 C 
ATOM     27  C   UNL     1      36.224 -20.725 -19.659  0.00  0.00    -0.005 C 
ATOM     28  C   UNL     1      34.082 -19.934 -20.450  0.00  0.00    -0.005 C 
ATOM     29  C   UNL     1      36.163 -18.835 -21.294  0.00  0.00    +0.031 C 
ENDBRANCH  22  23
ENDBRANCH  21  22
ENDBRANCH   7  21
TORSDOF 3
ENDMDL
MODEL 3
REMARK VINA RESULT:     -11.1      1.254      4.029
REMARK  Name = 5326929
REMARK  3 active torsions:
REMARK  status: ('A' for Active; 'I' for Inactive)
REMARK    1  A    between atoms: C_7  and  C_21
REMARK    2  A    between atoms: C_21  and  C_22
REMARK    3  A    between atoms: C_22  and  C_23
REMARK                            x       y       z     vdW  Elec       q    Type
REMARK                         _______ _______ _______ _____ _____    ______ ____
ROOT
ATOM      1  O   UNL     1      30.818 -23.970 -12.005  0.00  0.00    -0.209 OA
ATOM      2  N   UNL     1      30.982 -23.697 -15.997  0.00  0.00    -0.275 N 
ATOM      3  N   UNL     1      35.813 -23.161 -13.421  0.00  0.00    -0.315 N 
ATOM      4  N   UNL     1      35.871 -23.016 -15.637  0.00  0.00    -0.316 N 
ATOM      5  N   UNL     1      29.711 -24.003 -14.008  0.00  0.00    -0.302 NA
ATOM      6  N   UNL     1      28.715 -24.016 -16.129  0.00  0.00    -0.320 N 
ATOM      7  C   UNL     1      33.396 -23.350 -15.971  0.00  0.00    +0.007 C 
ATOM      8  C   UNL     1      32.184 -23.567 -15.295  0.00  0.00    +0.060 C 
ATOM      9  C   UNL     1      34.577 -23.227 -15.219  0.00  0.00    +0.056 C 
ATOM     10  C   UNL     1      34.515 -23.323 -13.833  0.00  0.00    +0.060 C 
ATOM     11  C   UNL     1      32.162 -23.658 -13.895  0.00  0.00    +0.109 C 
ATOM     12  C   UNL     1      33.330 -23.537 -13.127  0.00  0.00    +0.029 C 
ATOM     13  C   UNL     1      30.847 -23.888 -13.229  0.00  0.00    +0.208 C 
ATOM     14  C   UNL     1      36.585 -22.981 -14.536  0.00  0.00    +0.182 C 
ATOM     15  C   UNL     1      29.810 -23.908 -15.309  0.00  0.00    +0.248 C 
ATOM     16  H   UNL     1      30.974 -23.636 -16.979  0.00  0.00    +0.156 HD
ATOM     17  H   UNL     1      36.132 -23.173 -12.490  0.00  0.00    +0.148 HD
ATOM     18  H   UNL     1      36.192 -22.912 -16.562  0.00  0.00    +0.148 HD
ATOM     19  H   UNL     1      28.822 -23.939 -17.105  0.00  0.00    +0.146 HD
ATOM     20  H   UNL     1      27.823 -24.168 -15.742  0.00  0.00    +0.146 HD
ENDROOT
BRANCH   7  21
ATOM     21  C   UNL     1      33.427 -23.253 -17.464  0.00  0.00    +0.034 C 
BRANCH  21  22
ATOM     22  C   UNL     1      32.710 -22.010 -18.023  0.00  0.00    +0.031 C 
BRANCH  22  23
ATOM     23  C   UNL     1      33.538 -21.246 -19.026  0.00  0.00    -0.022 C 
ATOM     24  C   UNL     1      34.921 -21.331 -18.974  0.00  0.00    -0.005 C 
ATOM     25  C   UNL     1      32.902 -20.472 -19.984  0.00  0.00    -0.005 C 
ATOM     26  C   UNL     1      35.058 -19.840 -20.870  0.00  0.00    -0.022 C 
ATOM     27  C   UNL     1      35.685 -20.624 -19.902  0.00  0.00    -0.005 C 
ATOM     28  C   UNL     1      33.666 -19.764 -20.911  0.00  0.00    -0.005 C 
ATOM     29  C   UNL     1      35.875 -19.086 -21.863  0.00  0.00    +0.031 C 
ENDBRANCH  22  23
ENDBRANCH  21  22
ENDBRANCH   7  21
TORSDOF 3
ENDMDL
MODEL 4
REMARK VINA RESULT:     -11.1      1.494      4.017
REMARK  Name = 5326929
REMARK  3 active torsions:
REMARK  status: ('A' for Active; 'I' for Inactive)
REMARK    1  A    between atoms: C_7  and  C_21
REMARK    2  A    between atoms: C_21  and  C_22
REMARK    3  A    between atoms: C_22  and  C_23
REMARK                            x       y       z     vdW  Elec       q    Type
REMARK                         _______ _______ _______ _____ _____    ______ ____
ROOT
ATOM      1  O   UNL     1      30.486 -23.495 -12.656  0.00  0.00    -0.209 OA
ATOM      2  N   UNL     1      30.883 -23.147 -16.626  0.00  0.00    -0.275 N 
ATOM      3  N   UNL     1      35.608 -23.408 -13.821  0.00  0.00    -0.315 N 
ATOM      4  N   UNL     1      35.796 -23.216 -16.027  0.00  0.00    -0.316 N 
ATOM      5  N   UNL     1      29.485 -23.311 -14.707  0.00  0.00    -0.302 NA
ATOM      6  N   UNL     1      28.603 -23.119 -16.869  0.00  0.00    -0.320 N 
ATOM      7  C   UNL     1      33.317 -23.167 -16.482  0.00  0.00    +0.007 C 
ATOM      8  C   UNL     1      32.056 -23.217 -15.868  0.00  0.00    +0.060 C 
ATOM      9  C   UNL     1      34.466 -23.242 -15.674  0.00  0.00    +0.056 C 
ATOM     10  C   UNL     1      34.322 -23.363 -14.296  0.00  0.00    +0.060 C 
ATOM     11  C   UNL     1      31.951 -23.339 -14.473  0.00  0.00    +0.109 C 
ATOM     12  C   UNL     1      33.086 -23.414 -13.651  0.00  0.00    +0.029 C 
ATOM     13  C   UNL     1      30.586 -23.387 -13.874  0.00  0.00    +0.208 C 
ATOM     14  C   UNL     1      36.452 -23.317 -14.894  0.00  0.00    +0.182 C 
ATOM     15  C   UNL     1      29.660 -23.198 -15.998  0.00  0.00    +0.248 C 
ATOM     16  H   UNL     1      30.933 -23.060 -17.605  0.00  0.00    +0.156 HD
ATOM     17  H   UNL     1      35.877 -23.491 -12.878  0.00  0.00    +0.148 HD
ATOM     18  H   UNL     1      36.173 -23.138 -16.933  0.00  0.00    +0.148 HD
ATOM     19  H   UNL     1      28.768 -23.034 -17.837  0.00  0.00    +0.146 HD
ATOM     20  H   UNL     1      27.681 -23.146 -16.528  0.00  0.00    +0.146 HD
ENDROOT
BRANCH   7  21
ATOM     21  C   UNL     1      33.436 -23.038 -17.967  0.00  0.00    +0.034 C 
BRANCH  21  22
ATOM     22  C   UNL     1      32.966 -21.677 -18.514  0.00  0.00    +0.031 C 
BRANCH  22  23
ATOM     23  C   UNL     1      34.034 -20.944 -19.287  0.00  0.00    -0.022 C 
ATOM     24  C   UNL     1      33.663 -20.048 -20.278  0.00  0.00    -0.005 C 
ATOM     25  C   UNL     1      35.368 -21.178 -18.993  0.00  0.00    -0.005 C 
ATOM     26  C   UNL     1      35.998 -19.597 -20.708  0.00  0.00    -0.022 C 
ATOM     27  C   UNL     1      34.651 -19.371 -20.993  0.00  0.00    -0.005 C 
ATOM     28  C   UNL     1      36.356 -20.501 -19.707  0.00  0.00    -0.005 C 
ATOM     29  C   UNL     1      37.053 -18.872 -21.471  0.00  0.00    +0.031 C 
ENDBRANCH  22  23
ENDBRANCH  21  22
ENDBRANCH   7  21
TORSDOF 3
ENDMDL
MODEL 5
REMARK VINA RESULT:     -10.5      1.915      2.574
REMARK  Name = 5326929
REMARK  3 active torsions:
REMARK  status: ('A' for Active; 'I' for Inactive)
REMARK    1  A    between atoms: C_7  and  C_21
REMARK    2  A    between atoms: C_21  and  C_22
REMARK    3  A    between atoms: C_22  and  C_23
REMARK                            x       y       z     vdW  Elec       q    Type
REMARK                         _______ _______ _______ _____ _____    ______ ____
ROOT
ATOM      1  O   UNL     1      36.835 -25.988 -11.362  0.00  0.00    -0.209 OA
ATOM      2  N   UNL     1      37.413 -24.253 -14.925  0.00  0.00    -0.275 N 
ATOM      3  N   UNL     1      32.389 -23.578 -12.787  0.00  0.00    -0.315 N 
ATOM      4  N   UNL     1      32.742 -22.625 -14.763  0.00  0.00    -0.316 N 
ATOM      5  N   UNL     1      38.246 -25.550 -13.111  0.00  0.00    -0.302 NA
ATOM      6  N   UNL     1      39.574 -25.021 -14.968  0.00  0.00    -0.320 N 
ATOM      7  C   UNL     1      35.135 -23.386 -14.981  0.00  0.00    +0.007 C 
ATOM      8  C   UNL     1      36.152 -24.110 -14.339  0.00  0.00    +0.060 C 
ATOM      9  C   UNL     1      33.884 -23.272 -14.349  0.00  0.00    +0.056 C 
ATOM     10  C   UNL     1      33.688 -23.877 -13.112  0.00  0.00    +0.060 C 
ATOM     11  C   UNL     1      35.916 -24.707 -13.090  0.00  0.00    +0.109 C 
ATOM     12  C   UNL     1      34.675 -24.605 -12.445  0.00  0.00    +0.029 C 
ATOM     13  C   UNL     1      37.032 -25.464 -12.454  0.00  0.00    +0.208 C 
ATOM     14  C   UNL     1      31.867 -22.829 -13.806  0.00  0.00    +0.182 C 
ATOM     15  C   UNL     1      38.391 -24.968 -14.273  0.00  0.00    +0.248 C 
ATOM     16  H   UNL     1      37.600 -23.843 -15.800  0.00  0.00    +0.156 HD
ATOM     17  H   UNL     1      31.918 -23.853 -11.969  0.00  0.00    +0.148 HD
ATOM     18  H   UNL     1      32.610 -22.120 -15.598  0.00  0.00    +0.148 HD
ATOM     19  H   UNL     1      39.652 -24.572 -15.841  0.00  0.00    +0.146 HD
ATOM     20  H   UNL     1      40.343 -25.508 -14.594  0.00  0.00    +0.146 HD
ENDROOT
BRANCH   7  21
ATOM     21  C   UNL     1      35.379 -22.747 -16.311  0.00  0.00    +0.034 C 
BRANCH  21  22
ATOM     22  C   UNL     1      34.148 -22.745 -17.237  0.00  0.00    +0.031 C 
BRANCH  22  23
ATOM     23  C   UNL     1      34.290 -21.813 -18.415  0.00  0.00    -0.022 C 
ATOM     24  C   UNL     1      33.151 -21.322 -19.036  0.00  0.00    -0.005 C 
ATOM     25  C   UNL     1      35.556 -21.463 -18.856  0.00  0.00    -0.005 C 
ATOM     26  C   UNL     1      34.551 -20.101 -20.580  0.00  0.00    -0.022 C 
ATOM     27  C   UNL     1      33.283 -20.461 -20.125  0.00  0.00    -0.005 C 
ATOM     28  C   UNL     1      35.688 -20.602 -19.945  0.00  0.00    -0.005 C 
ATOM     29  C   UNL     1      34.692 -19.180 -21.743  0.00  0.00    +0.031 C 
ENDBRANCH  22  23
ENDBRANCH  21  22
ENDBRANCH   7  21
TORSDOF 3
ENDMDL
MODEL 6
REMARK VINA RESULT:     -10.2      3.927      7.190
REMARK  Name = 5326929
REMARK  3 active torsions:
REMARK  status: ('A' for Active; 'I' for Inactive)
REMARK    1  A    between atoms: C_7  and  C_21
REMARK    2  A    between atoms: C_21  and  C_22
REMARK    3  A    between atoms: C_22  and  C_23
REMARK                            x       y       z     vdW  Elec       q    Type
REMARK                         _______ _______ _______ _____ _____    ______ ____
ROOT
ATOM      1  O   UNL     1      33.395 -19.226 -22.031  0.00  0.00    -0.209 OA
ATOM      2  N   UNL     1      36.796 -19.948 -20.043  0.00  0.00    -0.275 N 
ATOM      3  N   UNL     1      32.344 -22.493 -18.052  0.00  0.00    -0.315 N 
ATOM      4  N   UNL     1      34.248 -22.875 -16.971  0.00  0.00    -0.316 N 
ATOM      5  N   UNL     1      35.646 -18.862 -21.821  0.00  0.00    -0.302 NA
ATOM      6  N   UNL     1      37.948 -18.586 -21.485  0.00  0.00    -0.320 N 
ATOM      7  C   UNL     1      35.670 -21.416 -18.454  0.00  0.00    +0.007 C 
ATOM      8  C   UNL     1      35.636 -20.572 -19.576  0.00  0.00    +0.060 C 
ATOM      9  C   UNL     1      34.475 -22.020 -18.025  0.00  0.00    +0.056 C 
ATOM     10  C   UNL     1      33.297 -21.766 -18.719  0.00  0.00    +0.060 C 
ATOM     11  C   UNL     1      34.426 -20.340 -20.250  0.00  0.00    +0.109 C 
ATOM     12  C   UNL     1      33.224 -20.932 -19.837  0.00  0.00    +0.029 C 
ATOM     13  C   UNL     1      34.447 -19.434 -21.435  0.00  0.00    +0.208 C 
ATOM     14  C   UNL     1      32.962 -23.138 -17.016  0.00  0.00    +0.182 C 
ATOM     15  C   UNL     1      36.733 -19.125 -21.144  0.00  0.00    +0.248 C 
ATOM     16  H   UNL     1      37.655 -20.095 -19.585  0.00  0.00    +0.156 HD
ATOM     17  H   UNL     1      31.388 -22.543 -18.278  0.00  0.00    +0.148 HD
ATOM     18  H   UNL     1      34.906 -23.215 -16.324  0.00  0.00    +0.148 HD
ATOM     19  H   UNL     1      38.749 -18.803 -20.954  0.00  0.00    +0.146 HD
ATOM     20  H   UNL     1      38.019 -17.981 -22.258  0.00  0.00    +0.146 HD
ENDROOT
BRANCH   7  21
ATOM     21  C   UNL     1      36.955 -21.668 -17.731  0.00  0.00    +0.034 C 
BRANCH  21  22
ATOM     22  C   UNL     1      36.930 -21.247 -16.250  0.00  0.00    +0.031 C 
BRANCH  22  23
ATOM     23  C   UNL     1      37.237 -22.380 -15.303  0.00  0.00    -0.022 C 
ATOM     24  C   UNL     1      36.391 -22.619 -14.231  0.00  0.00    -0.005 C 
ATOM     25  C   UNL     1      38.359 -23.163 -15.521  0.00  0.00    -0.005 C 
ATOM     26  C   UNL     1      37.802 -24.463 -13.562  0.00  0.00    -0.022 C 
ATOM     27  C   UNL     1      36.676 -23.667 -13.356  0.00  0.00    -0.005 C 
ATOM     28  C   UNL     1      38.644 -24.211 -14.646  0.00  0.00    -0.005 C 
ATOM     29  C   UNL     1      38.106 -25.583 -12.627  0.00  0.00    +0.031 C 
ENDBRANCH  22  23
ENDBRANCH  21  22
ENDBRANCH   7  21
TORSDOF 3
ENDMDL
MODEL 7
REMARK VINA RESULT:      -9.9      3.982      6.474
REMARK  Name = 5326929
REMARK  3 active torsions:
REMARK  status: ('A' for Active; 'I' for Inactive)
REMARK    1  A    between atoms: C_7  and  C_21
REMARK    2  A    between atoms: C_21  and  C_22
REMARK    3  A    between atoms: C_22  and  C_23
REMARK                            x       y       z     vdW  Elec       q    Type
REMARK                         _______ _______ _______ _____ _____    ______ ____
ROOT
ATOM      1  O   UNL     1      41.001 -26.790 -14.117  0.00  0.00    -0.209 OA
ATOM      2  N   UNL     1      37.168 -26.755 -15.280  0.00  0.00    -0.275 N 
ATOM      3  N   UNL     1      38.391 -23.312 -11.167  0.00  0.00    -0.315 N 
ATOM      4  N   UNL     1      36.272 -23.314 -11.836  0.00  0.00    -0.316 N 
ATOM      5  N   UNL     1      39.378 -27.607 -15.510  0.00  0.00    -0.302 NA
ATOM      6  N   UNL     1      37.617 -28.348 -16.866  0.00  0.00    -0.320 N 
ATOM      7  C   UNL     1      36.582 -25.060 -13.627  0.00  0.00    +0.007 C 
ATOM      8  C   UNL     1      37.530 -25.897 -14.237  0.00  0.00    +0.060 C 
ATOM      9  C   UNL     1      36.997 -24.215 -12.583  0.00  0.00    +0.056 C 
ATOM     10  C   UNL     1      38.329 -24.231 -12.183  0.00  0.00    +0.060 C 
ATOM     11  C   UNL     1      38.866 -25.885 -13.805  0.00  0.00    +0.109 C 
ATOM     12  C   UNL     1      39.299 -25.050 -12.764  0.00  0.00    +0.029 C 
ATOM     13  C   UNL     1      39.831 -26.794 -14.487  0.00  0.00    +0.208 C 
ATOM     14  C   UNL     1      37.138 -22.792 -10.998  0.00  0.00    +0.182 C 
ATOM     15  C   UNL     1      38.119 -27.564 -15.858  0.00  0.00    +0.248 C 
ATOM     16  H   UNL     1      36.237 -26.780 -15.598  0.00  0.00    +0.156 HD
ATOM     17  H   UNL     1      39.194 -23.069 -10.652  0.00  0.00    +0.148 HD
ATOM     18  H   UNL     1      35.313 -23.107 -11.913  0.00  0.00    +0.148 HD
ATOM     19  H   UNL     1      36.663 -28.293 -17.105  0.00  0.00    +0.146 HD
ATOM     20  H   UNL     1      38.210 -28.967 -17.350  0.00  0.00    +0.146 HD
ENDROOT
BRANCH   7  21
ATOM     21  C   UNL     1      35.156 -25.067 -14.083  0.00  0.00    +0.034 C 
BRANCH  21  22
ATOM     22  C   UNL     1      34.805 -23.917 -15.046  0.00  0.00    +0.031 C 
BRANCH  22  23
ATOM     23  C   UNL     1      33.339 -23.560 -15.037  0.00  0.00    -0.022 C 
ATOM     24  C   UNL     1      32.701 -23.275 -16.235  0.00  0.00    -0.005 C 
ATOM     25  C   UNL     1      32.655 -23.523 -13.832  0.00  0.00    -0.005 C 
ATOM     26  C   UNL     1      30.645 -22.903 -15.020  0.00  0.00    -0.022 C 
ATOM     27  C   UNL     1      31.346 -22.945 -16.226  0.00  0.00    -0.005 C 
ATOM     28  C   UNL     1      31.300 -23.193 -13.823  0.00  0.00    -0.005 C 
ATOM     29  C   UNL     1      29.197 -22.552 -15.011  0.00  0.00    +0.031 C 
ENDBRANCH  22  23
ENDBRANCH  21  22
ENDBRANCH   7  21
TORSDOF 3
ENDMDL
MODEL 8
REMARK VINA RESULT:      -9.9      3.660      5.365
REMARK  Name = 5326929
REMARK  3 active torsions:
REMARK  status: ('A' for Active; 'I' for Inactive)
REMARK    1  A    between atoms: C_7  and  C_21
REMARK    2  A    between atoms: C_21  and  C_22
REMARK    3  A    between atoms: C_22  and  C_23
REMARK                            x       y       z     vdW  Elec       q    Type
REMARK                         _______ _______ _______ _____ _____    ______ ____
ROOT
ATOM      1  O   UNL     1      37.962 -29.016 -12.220  0.00  0.00    -0.209 OA
ATOM      2  N   UNL     1      37.521 -26.471 -15.282  0.00  0.00    -0.275 N 
ATOM      3  N   UNL     1      37.139 -24.200 -10.286  0.00  0.00    -0.315 N 
ATOM      4  N   UNL     1      36.900 -22.814 -12.005  0.00  0.00    -0.316 N 
ATOM      5  N   UNL     1      37.901 -28.681 -14.485  0.00  0.00    -0.302 NA
ATOM      6  N   UNL     1      37.814 -28.188 -16.773  0.00  0.00    -0.320 N 
ATOM      7  C   UNL     1      37.198 -24.574 -13.784  0.00  0.00    +0.007 C 
ATOM      8  C   UNL     1      37.432 -25.943 -13.991  0.00  0.00    +0.060 C 
ATOM      9  C   UNL     1      37.118 -24.092 -12.466  0.00  0.00    +0.056 C 
ATOM     10  C   UNL     1      37.271 -24.980 -11.407  0.00  0.00    +0.060 C 
ATOM     11  C   UNL     1      37.582 -26.808 -12.895  0.00  0.00    +0.109 C 
ATOM     12  C   UNL     1      37.504 -26.346 -11.572  0.00  0.00    +0.029 C 
ATOM     13  C   UNL     1      37.829 -28.252 -13.172  0.00  0.00    +0.208 C 
ATOM     14  C   UNL     1      36.918 -22.915 -10.697  0.00  0.00    +0.182 C 
ATOM     15  C   UNL     1      37.752 -27.817 -15.454  0.00  0.00    +0.248 C 
ATOM     16  H   UNL     1      37.419 -25.883 -16.064  0.00  0.00    +0.156 HD
ATOM     17  H   UNL     1      37.192 -24.510  -9.354  0.00  0.00    +0.148 HD
ATOM     18  H   UNL     1      36.760 -22.000 -12.542  0.00  0.00    +0.148 HD
ATOM     19  H   UNL     1      37.698 -27.513 -17.482  0.00  0.00    +0.146 HD
ATOM     20  H   UNL     1      37.975 -29.129 -17.013  0.00  0.00    +0.146 HD
ENDROOT
BRANCH   7  21
ATOM     21  C   UNL     1      37.038 -23.646 -14.947  0.00  0.00    +0.034 C 
BRANCH  21  22
ATOM     22  C   UNL     1      35.573 -23.400 -15.351  0.00  0.00    +0.031 C 
BRANCH  22  23
ATOM     23  C   UNL     1      35.431 -22.636 -16.645  0.00  0.00    -0.022 C 
ATOM     24  C   UNL     1      36.536 -21.989 -17.177  0.00  0.00    -0.005 C 
ATOM     25  C   UNL     1      34.200 -22.595 -17.279  0.00  0.00    -0.005 C 
ATOM     26  C   UNL     1      35.170 -21.232 -19.021  0.00  0.00    -0.022 C 
ATOM     27  C   UNL     1      36.404 -21.283 -18.373  0.00  0.00    -0.005 C 
ATOM     28  C   UNL     1      34.068 -21.889 -18.474  0.00  0.00    -0.005 C 
ATOM     29  C   UNL     1      35.030 -20.479 -20.300  0.00  0.00    +0.031 C 
ENDBRANCH  22  23
ENDBRANCH  21  22
ENDBRANCH   7  21
TORSDOF 3
ENDMDL
MODEL 9
REMARK VINA RESULT:      -9.8      2.953      6.027
REMARK  Name = 5326929
REMARK  3 active torsions:
REMARK  status: ('A' for Active; 'I' for Inactive)
REMARK    1  A    between atoms: C_7  and  C_21
REMARK    2  A    between atoms: C_21  and  C_22
REMARK    3  A    between atoms: C_22  and  C_23
REMARK                            x       y       z     vdW  Elec       q    Type
REMARK                         _______ _______ _______ _____ _____    ______ ____
ROOT
ATOM      1  O   UNL     1      37.509 -21.473 -16.678  0.00  0.00    -0.209 OA
ATOM      2  N   UNL     1      34.044 -23.399 -16.105  0.00  0.00    -0.275 N 
ATOM      3  N   UNL     1      37.391 -23.268 -11.741  0.00  0.00    -0.315 N 
ATOM      4  N   UNL     1      35.460 -24.328 -11.455  0.00  0.00    -0.316 N 
ATOM      5  N   UNL     1      35.502 -22.172 -17.531  0.00  0.00    -0.302 NA
ATOM      6  N   UNL     1      33.418 -22.951 -18.266  0.00  0.00    -0.320 N 
ATOM      7  C   UNL     1      34.610 -23.931 -13.794  0.00  0.00    +0.007 C 
ATOM      8  C   UNL     1      34.930 -23.338 -15.026  0.00  0.00    +0.060 C 
ATOM      9  C   UNL     1      35.536 -23.840 -12.739  0.00  0.00    +0.056 C 
ATOM     10  C   UNL     1      36.737 -23.170 -12.943  0.00  0.00    +0.060 C 
ATOM     11  C   UNL     1      36.154 -22.670 -15.193  0.00  0.00    +0.109 C 
ATOM     12  C   UNL     1      37.090 -22.570 -14.153  0.00  0.00    +0.029 C 
ATOM     13  C   UNL     1      36.442 -22.059 -16.523  0.00  0.00    +0.208 C 
ATOM     14  C   UNL     1      36.587 -23.968 -10.885  0.00  0.00    +0.182 C 
ATOM     15  C   UNL     1      34.384 -22.809 -17.301  0.00  0.00    +0.248 C 
ATOM     16  H   UNL     1      33.181 -23.863 -16.011  0.00  0.00    +0.156 HD
ATOM     17  H   UNL     1      38.279 -22.900 -11.532  0.00  0.00    +0.148 HD
ATOM     18  H   UNL     1      34.720 -24.838 -11.051  0.00  0.00    +0.148 HD
ATOM     19  H   UNL     1      32.586 -23.437 -18.061  0.00  0.00    +0.146 HD
ATOM     20  H   UNL     1      33.556 -22.567 -19.161  0.00  0.00    +0.146 HD
ENDROOT
BRANCH   7  21
ATOM     21  C   UNL     1      33.308 -24.643 -13.608  0.00  0.00    +0.034 C 
BRANCH  21  22
ATOM     22  C   UNL     1      32.162 -23.732 -13.130  0.00  0.00    +0.031 C 
BRANCH  22  23
ATOM     23  C   UNL     1      30.999 -23.685 -14.090  0.00  0.00    -0.022 C 
ATOM     24  C   UNL     1      30.968 -22.710 -15.076  0.00  0.00    -0.005 C 
ATOM     25  C   UNL     1      29.981 -24.617 -13.970  0.00  0.00    -0.005 C 
ATOM     26  C   UNL     1      28.860 -23.599 -15.853  0.00  0.00    -0.022 C 
ATOM     27  C   UNL     1      29.892 -22.668 -15.962  0.00  0.00    -0.005 C 
ATOM     28  C   UNL     1      28.905 -24.575 -14.857  0.00  0.00    -0.005 C 
ATOM     29  C   UNL     1      27.711 -23.554 -16.801  0.00  0.00    +0.031 C 
ENDBRANCH  22  23
ENDBRANCH  21  22
ENDBRANCH   7  21
TORSDOF 3
ENDMDL
