MODEL 1
REMARK VINA RESULT:     -12.1      0.000      0.000
REMARK  Name = 3151
REMARK  5 active torsions:
REMARK  status: ('A' for Active; 'I' for Inactive)
REMARK    1  A    between atoms: N_1  and  C_20
REMARK    2  A    between atoms: C_2  and  N_10
REMARK    3  A    between atoms: C_20  and  C_21
REMARK    4  A    between atoms: C_21  and  C_22
REMARK    5  A    between atoms: C_22  and  N_24
REMARK                            x       y       z     vdW  Elec       q    Type
REMARK                         _______ _______ _______ _____ _____    ______ ____
ROOT
ATOM      1  N   UNL     1      34.659 -14.598 -23.341  0.00  0.00    +0.387 N 
ATOM      2  C   UNL     1      32.771 -12.500 -22.572  0.00  0.00    +0.086 C 
ATOM      3  C   UNL     1      33.220 -12.703 -24.019  0.00  0.00    -0.000 C 
ATOM      4  C   UNL     1      33.830 -13.039 -21.609  0.00  0.00    -0.000 C 
ATOM      5  C   UNL     1      33.616 -14.157 -24.278  0.00  0.00    -0.075 C 
ATOM      6  C   UNL     1      34.204 -14.483 -21.948  0.00  0.00    -0.075 C 
ATOM      7  H   UNL     1      35.467 -13.988 -23.459  0.00  0.00    -0.080 HD
ENDROOT
BRANCH   2  10
ATOM      8 CL   UNL     1      34.954  -6.080 -24.021  0.00  0.00    -0.082 Cl
ATOM      9  O   UNL     1      30.603 -11.219 -20.871  0.00  0.00    -0.247 OA
ATOM     10  N   UNL     1      32.492 -11.110 -22.311  0.00  0.00    -0.282 N 
ATOM     11  N   UNL     1      31.584  -9.177 -21.551  0.00  0.00    -0.305 N 
ATOM     12  C   UNL     1      33.232 -10.044 -22.840  0.00  0.00    +0.079 A 
ATOM     13  C   UNL     1      31.448 -10.594 -21.496  0.00  0.00    +0.328 A 
ATOM     14  C   UNL     1      32.668  -8.860 -22.369  0.00  0.00    +0.077 A 
ATOM     15  C   UNL     1      34.328 -10.038 -23.678  0.00  0.00    +0.020 C 
ATOM     16  C   UNL     1      33.164  -7.621 -22.706  0.00  0.00    +0.030 C 
ATOM     17  C   UNL     1      34.851  -8.791 -24.034  0.00  0.00    +0.013 C 
ATOM     18  C   UNL     1      34.275  -7.596 -23.554  0.00  0.00    +0.059 C 
ATOM     19  H   UNL     1      31.006  -8.529 -21.089  0.00  0.00    +0.170 HD
ENDBRANCH   2  10
BRANCH   1  20
ATOM     20  C   UNL     1      35.061 -15.974 -23.635  0.00  0.00    -0.075 C 
BRANCH  20  21
ATOM     21  C   UNL     1      35.207 -16.811 -22.361  0.00  0.00    +0.002 C 
BRANCH  21  22
ATOM     22  C   UNL     1      35.025 -18.314 -22.568  0.00  0.00    +0.108 C 
BRANCH  22  24
ATOM     23  O   UNL     1      37.838 -18.548 -21.497  0.00  0.00    -0.247 OA
ATOM     24  N   UNL     1      35.520 -19.087 -21.462  0.00  0.00    -0.280 N 
ATOM     25  N   UNL     1      36.892 -20.023 -19.910  0.00  0.00    -0.305 N 
ATOM     26  C   UNL     1      34.749 -19.918 -20.633  0.00  0.00    +0.079 A 
ATOM     27  C   UNL     1      36.876 -19.138 -21.024  0.00  0.00    +0.328 A 
ATOM     28  C   UNL     1      35.595 -20.489 -19.685  0.00  0.00    +0.076 A 
ATOM     29  C   UNL     1      33.398 -20.198 -20.654  0.00  0.00    +0.019 C 
ATOM     30  C   UNL     1      35.143 -21.359 -18.718  0.00  0.00    +0.019 C 
ATOM     31  C   UNL     1      32.914 -21.081 -19.682  0.00  0.00    +0.002 C 
ATOM     32  C   UNL     1      33.777 -21.654 -18.724  0.00  0.00    +0.002 C 
ATOM     33  H   UNL     1      37.688 -20.268 -19.384  0.00  0.00    +0.170 HD
ENDBRANCH  22  24
ENDBRANCH  21  22
ENDBRANCH  20  21
ENDBRANCH   1  20
TORSDOF 5
ENDMDL
MODEL 2
REMARK VINA RESULT:     -11.8      2.653      4.171
REMARK  Name = 3151
REMARK  5 active torsions:
REMARK  status: ('A' for Active; 'I' for Inactive)
REMARK    1  A    between atoms: N_1  and  C_20
REMARK    2  A    between atoms: C_2  and  N_10
REMARK    3  A    between atoms: C_20  and  C_21
REMARK    4  A    between atoms: C_21  and  C_22
REMARK    5  A    between atoms: C_22  and  N_24
REMARK                            x       y       z     vdW  Elec       q    Type
REMARK                         _______ _______ _______ _____ _____    ______ ____
ROOT
ATOM      1  N   UNL     1      32.752 -11.813 -22.048  0.00  0.00    +0.387 N 
ATOM      2  C   UNL     1      31.869  -9.025 -22.104  0.00  0.00    +0.086 C 
ATOM      3  C   UNL     1      33.155  -9.488 -22.790  0.00  0.00    -0.000 C 
ATOM      4  C   UNL     1      31.511  -9.972 -20.959  0.00  0.00    -0.000 C 
ATOM      5  C   UNL     1      33.065 -10.959 -23.201  0.00  0.00    -0.075 C 
ATOM      6  C   UNL     1      31.476 -11.426 -21.431  0.00  0.00    -0.075 C 
ATOM      7  H   UNL     1      33.487 -11.688 -21.353  0.00  0.00    -0.080 HD
ENDROOT
BRANCH   2  10
ATOM      8 CL   UNL     1      31.320  -2.420 -24.141  0.00  0.00    -0.082 Cl
ATOM      9  O   UNL     1      32.618  -7.961 -19.359  0.00  0.00    -0.247 OA
ATOM     10  N   UNL     1      31.998  -7.668 -21.635  0.00  0.00    -0.282 N 
ATOM     11  N   UNL     1      32.349  -5.832 -20.353  0.00  0.00    -0.305 N 
ATOM     12  C   UNL     1      31.783  -6.535 -22.431  0.00  0.00    +0.079 A 
ATOM     13  C   UNL     1      32.356  -7.256 -20.323  0.00  0.00    +0.328 A 
ATOM     14  C   UNL     1      32.000  -5.410 -21.637  0.00  0.00    +0.077 A 
ATOM     15  C   UNL     1      31.421  -6.421 -23.757  0.00  0.00    +0.020 C 
ATOM     16  C   UNL     1      31.869  -4.128 -22.120  0.00  0.00    +0.030 C 
ATOM     17  C   UNL     1      31.282  -5.129 -24.272  0.00  0.00    +0.013 C 
ATOM     18  C   UNL     1      31.504  -3.995 -23.463  0.00  0.00    +0.059 C 
ATOM     19  H   UNL     1      32.556  -5.242 -19.593  0.00  0.00    +0.170 HD
ENDBRANCH   2  10
BRANCH   1  20
ATOM     20  C   UNL     1      32.720 -13.221 -22.448  0.00  0.00    -0.075 C 
BRANCH  20  21
ATOM     21  C   UNL     1      33.792 -14.045 -21.730  0.00  0.00    +0.002 C 
BRANCH  21  22
ATOM     22  C   UNL     1      34.930 -14.521 -22.630  0.00  0.00    +0.108 C 
BRANCH  22  24
ATOM     23  O   UNL     1      33.882 -15.438 -25.309  0.00  0.00    -0.247 OA
ATOM     24  N   UNL     1      34.722 -15.856 -23.122  0.00  0.00    -0.280 N 
ATOM     25  N   UNL     1      34.184 -17.620 -24.450  0.00  0.00    -0.305 N 
ATOM     26  C   UNL     1      34.981 -17.040 -22.412  0.00  0.00    +0.079 A 
ATOM     27  C   UNL     1      34.218 -16.198 -24.411  0.00  0.00    +0.328 A 
ATOM     28  C   UNL     1      34.649 -18.117 -23.231  0.00  0.00    +0.076 A 
ATOM     29  C   UNL     1      35.472 -17.230 -21.136  0.00  0.00    +0.019 C 
ATOM     30  C   UNL     1      34.788 -19.425 -22.826  0.00  0.00    +0.019 C 
ATOM     31  C   UNL     1      35.623 -18.551 -20.701  0.00  0.00    +0.002 C 
ATOM     32  C   UNL     1      35.285 -19.636 -21.537  0.00  0.00    +0.002 C 
ATOM     33  H   UNL     1      33.881 -18.166 -25.212  0.00  0.00    +0.170 HD
ENDBRANCH  22  24
ENDBRANCH  21  22
ENDBRANCH  20  21
ENDBRANCH   1  20
TORSDOF 5
ENDMDL
MODEL 3
REMARK VINA RESULT:     -11.7      3.856     10.032
REMARK  Name = 3151
REMARK  5 active torsions:
REMARK  status: ('A' for Active; 'I' for Inactive)
REMARK    1  A    between atoms: N_1  and  C_20
REMARK    2  A    between atoms: C_2  and  N_10
REMARK    3  A    between atoms: C_20  and  C_21
REMARK    4  A    between atoms: C_21  and  C_22
REMARK    5  A    between atoms: C_22  and  N_24
REMARK                            x       y       z     vdW  Elec       q    Type
REMARK                         _______ _______ _______ _____ _____    ______ ____
ROOT
ATOM      1  N   UNL     1      34.945 -16.449 -23.916  0.00  0.00    +0.387 N 
ATOM      2  C   UNL     1      34.731 -18.344 -21.699  0.00  0.00    +0.086 C 
ATOM      3  C   UNL     1      35.341 -16.954 -21.527  0.00  0.00    -0.000 C 
ATOM      4  C   UNL     1      34.854 -18.800 -23.153  0.00  0.00    -0.000 C 
ATOM      5  C   UNL     1      34.763 -15.965 -22.541  0.00  0.00    -0.075 C 
ATOM      6  C   UNL     1      34.290 -17.750 -24.112  0.00  0.00    -0.075 C 
ATOM      7  H   UNL     1      35.944 -16.572 -24.077  0.00  0.00    -0.080 HD
ENDROOT
BRANCH   2  10
ATOM      8 CL   UNL     1      33.298 -23.459 -17.241  0.00  0.00    -0.082 Cl
ATOM      9  O   UNL     1      37.664 -18.807 -21.056  0.00  0.00    -0.247 OA
ATOM     10  N   UNL     1      35.350 -19.291 -20.804  0.00  0.00    -0.282 N 
ATOM     11  N   UNL     1      36.854 -20.495 -19.611  0.00  0.00    -0.305 N 
ATOM     12  C   UNL     1      34.645 -20.221 -20.029  0.00  0.00    +0.079 A 
ATOM     13  C   UNL     1      36.742 -19.441 -20.562  0.00  0.00    +0.328 A 
ATOM     14  C   UNL     1      35.576 -20.957 -19.298  0.00  0.00    +0.077 A 
ATOM     15  C   UNL     1      33.291 -20.461 -19.921  0.00  0.00    +0.020 C 
ATOM     16  C   UNL     1      35.207 -21.960 -18.430  0.00  0.00    +0.030 C 
ATOM     17  C   UNL     1      32.891 -21.475 -19.045  0.00  0.00    +0.013 C 
ATOM     18  C   UNL     1      33.838 -22.217 -18.308  0.00  0.00    +0.059 C 
ATOM     19  H   UNL     1      37.696 -20.841 -19.236  0.00  0.00    +0.170 HD
ENDBRANCH   2  10
BRANCH   1  20
ATOM     20  C   UNL     1      34.432 -15.469 -24.875  0.00  0.00    -0.075 C 
BRANCH  20  21
ATOM     21  C   UNL     1      33.620 -14.368 -24.187  0.00  0.00    +0.002 C 
BRANCH  21  22
ATOM     22  C   UNL     1      34.464 -13.297 -23.499  0.00  0.00    +0.108 C 
BRANCH  22  24
ATOM     23  O   UNL     1      34.491 -10.835 -25.245  0.00  0.00    -0.247 OA
ATOM     24  N   UNL     1      33.757 -12.056 -23.340  0.00  0.00    -0.280 N 
ATOM     25  N   UNL     1      32.971  -9.949 -23.666  0.00  0.00    -0.305 N 
ATOM     26  C   UNL     1      32.878 -11.743 -22.289  0.00  0.00    +0.079 A 
ATOM     27  C   UNL     1      33.830 -10.938 -24.221  0.00  0.00    +0.328 A 
ATOM     28  C   UNL     1      32.400 -10.451 -22.495  0.00  0.00    +0.076 A 
ATOM     29  C   UNL     1      32.482 -12.492 -21.200  0.00  0.00    +0.019 C 
ATOM     30  C   UNL     1      31.513  -9.845 -21.635  0.00  0.00    +0.019 C 
ATOM     31  C   UNL     1      31.581 -11.898 -20.311  0.00  0.00    +0.002 C 
ATOM     32  C   UNL     1      31.100 -10.589 -20.526  0.00  0.00    +0.002 C 
ATOM     33  H   UNL     1      32.805  -9.054 -24.046  0.00  0.00    +0.170 HD
ENDBRANCH  22  24
ENDBRANCH  21  22
ENDBRANCH  20  21
ENDBRANCH   1  20
TORSDOF 5
ENDMDL
MODEL 4
REMARK VINA RESULT:     -11.7      3.484     10.633
REMARK  Name = 3151
REMARK  5 active torsions:
REMARK  status: ('A' for Active; 'I' for Inactive)
REMARK    1  A    between atoms: N_1  and  C_20
REMARK    2  A    between atoms: C_2  and  N_10
REMARK    3  A    between atoms: C_20  and  C_21
REMARK    4  A    between atoms: C_21  and  C_22
REMARK    5  A    between atoms: C_22  and  N_24
REMARK                            x       y       z     vdW  Elec       q    Type
REMARK                         _______ _______ _______ _____ _____    ______ ____
ROOT
ATOM      1  N   UNL     1      35.005 -15.389 -23.209  0.00  0.00    +0.387 N 
ATOM      2  C   UNL     1      34.795 -17.831 -21.612  0.00  0.00    +0.086 C 
ATOM      3  C   UNL     1      35.094 -16.470 -20.985  0.00  0.00    -0.000 C 
ATOM      4  C   UNL     1      35.238 -17.848 -23.075  0.00  0.00    -0.000 C 
ATOM      5  C   UNL     1      34.512 -15.332 -21.826  0.00  0.00    -0.075 C 
ATOM      6  C   UNL     1      34.650 -16.665 -23.847  0.00  0.00    -0.075 C 
ATOM      7  H   UNL     1      36.022 -15.322 -23.184  0.00  0.00    -0.080 HD
ENDROOT
BRANCH   2  10
ATOM      8 CL   UNL     1      33.429 -23.449 -17.785  0.00  0.00    -0.082 Cl
ATOM      9  O   UNL     1      37.740 -18.406 -21.135  0.00  0.00    -0.247 OA
ATOM     10  N   UNL     1      35.428 -18.890 -20.866  0.00  0.00    -0.282 N 
ATOM     11  N   UNL     1      36.952 -20.253 -19.886  0.00  0.00    -0.305 N 
ATOM     12  C   UNL     1      34.735 -19.902 -20.189  0.00  0.00    +0.079 A 
ATOM     13  C   UNL     1      36.825 -19.086 -20.693  0.00  0.00    +0.328 A 
ATOM     14  C   UNL     1      35.677 -20.735 -19.589  0.00  0.00    +0.077 A 
ATOM     15  C   UNL     1      33.381 -20.138 -20.065  0.00  0.00    +0.020 C 
ATOM     16  C   UNL     1      35.321 -21.836 -18.843  0.00  0.00    +0.030 C 
ATOM     17  C   UNL     1      32.994 -21.249 -19.310  0.00  0.00    +0.013 C 
ATOM     18  C   UNL     1      33.953 -22.089 -18.706  0.00  0.00    +0.059 C 
ATOM     19  H   UNL     1      37.800 -20.653 -19.588  0.00  0.00    +0.170 HD
ENDBRANCH   2  10
BRANCH   1  20
ATOM     20  C   UNL     1      34.479 -14.266 -23.986  0.00  0.00    -0.075 C 
BRANCH  20  21
ATOM     21  C   UNL     1      34.163 -13.057 -23.101  0.00  0.00    +0.002 C 
BRANCH  21  22
ATOM     22  C   UNL     1      33.671 -11.828 -23.863  0.00  0.00    +0.108 C 
BRANCH  22  24
ATOM     23  O   UNL     1      31.544 -12.005 -21.728  0.00  0.00    -0.247 OA
ATOM     24  N   UNL     1      33.165 -10.804 -22.989  0.00  0.00    -0.280 N 
ATOM     25  N   UNL     1      31.981  -9.706 -21.391  0.00  0.00    -0.305 N 
ATOM     26  C   UNL     1      33.588  -9.464 -22.967  0.00  0.00    +0.079 A 
ATOM     27  C   UNL     1      32.151 -10.979 -22.003  0.00  0.00    +0.328 A 
ATOM     28  C   UNL     1      32.858  -8.798 -21.985  0.00  0.00    +0.076 A 
ATOM     29  C   UNL     1      34.540  -8.813 -23.725  0.00  0.00    +0.019 C 
ATOM     30  C   UNL     1      33.037  -7.460 -21.711  0.00  0.00    +0.019 C 
ATOM     31  C   UNL     1      34.740  -7.453 -23.465  0.00  0.00    +0.002 C 
ATOM     32  C   UNL     1      33.998  -6.784 -22.469  0.00  0.00    +0.002 C 
ATOM     33  H   UNL     1      31.346  -9.498 -20.666  0.00  0.00    +0.170 HD
ENDBRANCH  22  24
ENDBRANCH  21  22
ENDBRANCH  20  21
ENDBRANCH   1  20
TORSDOF 5
ENDMDL
MODEL 5
REMARK VINA RESULT:     -11.4      4.098     10.936
REMARK  Name = 3151
REMARK  5 active torsions:
REMARK  status: ('A' for Active; 'I' for Inactive)
REMARK    1  A    between atoms: N_1  and  C_20
REMARK    2  A    between atoms: C_2  and  N_10
REMARK    3  A    between atoms: C_20  and  C_21
REMARK    4  A    between atoms: C_21  and  C_22
REMARK    5  A    between atoms: C_22  and  N_24
REMARK                            x       y       z     vdW  Elec       q    Type
REMARK                         _______ _______ _______ _____ _____    ______ ____
ROOT
ATOM      1  N   UNL     1      31.954 -10.032 -22.432  0.00  0.00    +0.387 N 
ATOM      2  C   UNL     1      33.539 -12.481 -22.660  0.00  0.00    +0.086 C 
ATOM      3  C   UNL     1      33.688 -11.318 -23.641  0.00  0.00    -0.000 C 
ATOM      4  C   UNL     1      32.146 -12.465 -22.030  0.00  0.00    -0.000 C 
ATOM      5  C   UNL     1      33.315  -9.987 -22.986  0.00  0.00    -0.075 C 
ATOM      6  C   UNL     1      31.825 -11.096 -21.427  0.00  0.00    -0.075 C 
ATOM      7  H   UNL     1      31.311 -10.240 -23.194  0.00  0.00    -0.080 HD
ENDROOT
BRANCH   2  10
ATOM      8 CL   UNL     1      35.911 -18.893 -21.507  0.00  0.00    -0.082 Cl
ATOM      9  O   UNL     1      33.134 -13.311 -25.554  0.00  0.00    -0.247 OA
ATOM     10  N   UNL     1      33.799 -13.739 -23.312  0.00  0.00    -0.282 N 
ATOM     11  N   UNL     1      33.986 -15.400 -24.844  0.00  0.00    -0.305 N 
ATOM     12  C   UNL     1      34.321 -14.869 -22.667  0.00  0.00    +0.079 A 
ATOM     13  C   UNL     1      33.579 -14.045 -24.683  0.00  0.00    +0.328 A 
ATOM     14  C   UNL     1      34.432 -15.885 -23.615  0.00  0.00    +0.077 A 
ATOM     15  C   UNL     1      34.691 -15.065 -21.353  0.00  0.00    +0.020 C 
ATOM     16  C   UNL     1      34.915 -17.136 -23.302  0.00  0.00    +0.030 C 
ATOM     17  C   UNL     1      35.186 -16.327 -21.011  0.00  0.00    +0.013 C 
ATOM     18  C   UNL     1      35.296 -17.351 -21.975  0.00  0.00    +0.059 C 
ATOM     19  H   UNL     1      33.956 -15.910 -25.685  0.00  0.00    +0.170 HD
ENDBRANCH   2  10
BRANCH   1  20
ATOM     20  C   UNL     1      31.595  -8.736 -21.853  0.00  0.00    -0.075 C 
BRANCH  20  21
ATOM     21  C   UNL     1      32.766  -8.106 -21.093  0.00  0.00    +0.002 C 
BRANCH  21  22
ATOM     22  C   UNL     1      32.611  -6.611 -20.822  0.00  0.00    +0.108 C 
BRANCH  22  24
ATOM     23  O   UNL     1      30.008  -5.226 -21.469  0.00  0.00    -0.247 OA
ATOM     24  N   UNL     1      32.236  -5.874 -21.998  0.00  0.00    -0.280 N 
ATOM     25  N   UNL     1      31.060  -4.646 -23.506  0.00  0.00    -0.305 N 
ATOM     26  C   UNL     1      33.052  -5.651 -23.120  0.00  0.00    +0.079 A 
ATOM     27  C   UNL     1      30.974  -5.249 -22.220  0.00  0.00    +0.328 A 
ATOM     28  C   UNL     1      32.325  -4.898 -24.040  0.00  0.00    +0.076 A 
ATOM     29  C   UNL     1      34.346  -6.052 -23.379  0.00  0.00    +0.019 C 
ATOM     30  C   UNL     1      32.846  -4.509 -25.253  0.00  0.00    +0.019 C 
ATOM     31  C   UNL     1      34.898  -5.669 -24.606  0.00  0.00    +0.002 C 
ATOM     32  C   UNL     1      34.157  -4.905 -25.532  0.00  0.00    +0.002 C 
ATOM     33  H   UNL     1      30.343  -4.134 -23.949  0.00  0.00    +0.170 HD
ENDBRANCH  22  24
ENDBRANCH  21  22
ENDBRANCH  20  21
ENDBRANCH   1  20
TORSDOF 5
ENDMDL
MODEL 6
REMARK VINA RESULT:     -11.1      8.718     12.371
REMARK  Name = 3151
REMARK  5 active torsions:
REMARK  status: ('A' for Active; 'I' for Inactive)
REMARK    1  A    between atoms: N_1  and  C_20
REMARK    2  A    between atoms: C_2  and  N_10
REMARK    3  A    between atoms: C_20  and  C_21
REMARK    4  A    between atoms: C_21  and  C_22
REMARK    5  A    between atoms: C_22  and  N_24
REMARK                            x       y       z     vdW  Elec       q    Type
REMARK                         _______ _______ _______ _____ _____    ______ ____
ROOT
ATOM      1  N   UNL     1      36.585 -23.410 -13.614  0.00  0.00    +0.387 N 
ATOM      2  C   UNL     1      34.867 -23.489 -15.981  0.00  0.00    +0.086 C 
ATOM      3  C   UNL     1      36.220 -22.779 -15.979  0.00  0.00    -0.000 C 
ATOM      4  C   UNL     1      34.305 -23.559 -14.561  0.00  0.00    -0.000 C 
ATOM      5  C   UNL     1      37.174 -23.406 -14.961  0.00  0.00    -0.075 C 
ATOM      6  C   UNL     1      35.322 -24.161 -13.590  0.00  0.00    -0.075 C 
ATOM      7  H   UNL     1      36.382 -22.445 -13.357  0.00  0.00    -0.080 HD
ENDROOT
BRANCH   2  10
ATOM      8 CL   UNL     1      34.580 -19.452 -21.610  0.00  0.00    -0.082 Cl
ATOM      9  O   UNL     1      31.829 -23.437 -15.971  0.00  0.00    -0.247 OA
ATOM     10  N   UNL     1      33.944 -22.832 -16.872  0.00  0.00    -0.282 N 
ATOM     11  N   UNL     1      32.065 -22.070 -17.886  0.00  0.00    -0.305 N 
ATOM     12  C   UNL     1      34.329 -22.053 -17.971  0.00  0.00    +0.079 A 
ATOM     13  C   UNL     1      32.525 -22.861 -16.795  0.00  0.00    +0.328 A 
ATOM     14  C   UNL     1      33.169 -21.588 -18.589  0.00  0.00    +0.077 A 
ATOM     15  C   UNL     1      35.581 -21.732 -18.454  0.00  0.00    +0.020 C 
ATOM     16  C   UNL     1      33.200 -20.787 -19.709  0.00  0.00    +0.030 C 
ATOM     17  C   UNL     1      35.638 -20.919 -19.590  0.00  0.00    +0.013 C 
ATOM     18  C   UNL     1      34.461 -20.452 -20.210  0.00  0.00    +0.059 C 
ATOM     19  H   UNL     1      31.123 -21.894 -18.108  0.00  0.00    +0.170 HD
ENDBRANCH   2  10
BRANCH   1  20
ATOM     20  C   UNL     1      37.529 -23.966 -12.645  0.00  0.00    -0.075 C 
BRANCH  20  21
ATOM     21  C   UNL     1      38.514 -24.939 -13.300  0.00  0.00    +0.002 C 
BRANCH  21  22
ATOM     22  C   UNL     1      38.139 -26.412 -13.151  0.00  0.00    +0.108 C 
BRANCH  22  24
ATOM     23  O   UNL     1      36.071 -26.744 -15.324  0.00  0.00    -0.247 OA
ATOM     24  N   UNL     1      38.226 -27.131 -14.393  0.00  0.00    -0.280 N 
ATOM     25  N   UNL     1      37.723 -28.034 -16.417  0.00  0.00    -0.305 N 
ATOM     26  C   UNL     1      39.345 -27.848 -14.848  0.00  0.00    +0.079 A 
ATOM     27  C   UNL     1      37.190 -27.235 -15.367  0.00  0.00    +0.328 A 
ATOM     28  C   UNL     1      39.030 -28.399 -16.089  0.00  0.00    +0.076 A 
ATOM     29  C   UNL     1      40.581 -28.043 -14.266  0.00  0.00    +0.019 C 
ATOM     30  C   UNL     1      39.921 -29.165 -16.805  0.00  0.00    +0.019 C 
ATOM     31  C   UNL     1      41.504 -28.818 -14.975  0.00  0.00    +0.002 C 
ATOM     32  C   UNL     1      41.179 -29.372 -16.231  0.00  0.00    +0.002 C 
ATOM     33  H   UNL     1      37.247 -28.290 -17.241  0.00  0.00    +0.170 HD
ENDBRANCH  22  24
ENDBRANCH  21  22
ENDBRANCH  20  21
ENDBRANCH   1  20
TORSDOF 5
ENDMDL
MODEL 7
REMARK VINA RESULT:     -11.0      4.909     11.116
REMARK  Name = 3151
REMARK  5 active torsions:
REMARK  status: ('A' for Active; 'I' for Inactive)
REMARK    1  A    between atoms: N_1  and  C_20
REMARK    2  A    between atoms: C_2  and  N_10
REMARK    3  A    between atoms: C_20  and  C_21
REMARK    4  A    between atoms: C_21  and  C_22
REMARK    5  A    between atoms: C_22  and  N_24
REMARK                            x       y       z     vdW  Elec       q    Type
REMARK                         _______ _______ _______ _____ _____    ______ ____
ROOT
ATOM      1  N   UNL     1      35.456 -19.614 -20.436  0.00  0.00    +0.387 N 
ATOM      2  C   UNL     1      34.774 -21.891 -18.732  0.00  0.00    +0.086 C 
ATOM      3  C   UNL     1      33.719 -20.908 -19.240  0.00  0.00    -0.000 C 
ATOM      4  C   UNL     1      36.145 -21.218 -18.684  0.00  0.00    -0.000 C 
ATOM      5  C   UNL     1      34.147 -20.271 -20.563  0.00  0.00    -0.075 C 
ATOM      6  C   UNL     1      36.493 -20.571 -20.026  0.00  0.00    -0.075 C 
ATOM      7  H   UNL     1      35.381 -18.901 -19.712  0.00  0.00    -0.080 HD
ENDROOT
BRANCH   2  10
ATOM      8 CL   UNL     1      37.335 -23.364 -12.459  0.00  0.00    -0.082 Cl
ATOM      9  O   UNL     1      32.093 -22.891 -17.708  0.00  0.00    -0.247 OA
ATOM     10  N   UNL     1      34.407 -22.414 -17.440  0.00  0.00    -0.282 N 
ATOM     11  N   UNL     1      33.259 -23.282 -15.688  0.00  0.00    -0.305 N 
ATOM     12  C   UNL     1      35.295 -22.556 -16.365  0.00  0.00    +0.079 A 
ATOM     13  C   UNL     1      33.119 -22.863 -17.042  0.00  0.00    +0.328 A 
ATOM     14  C   UNL     1      34.583 -23.090 -15.293  0.00  0.00    +0.077 A 
ATOM     15  C   UNL     1      36.639 -22.261 -16.263  0.00  0.00    +0.020 C 
ATOM     16  C   UNL     1      35.170 -23.354 -14.075  0.00  0.00    +0.030 C 
ATOM     17  C   UNL     1      37.257 -22.521 -15.036  0.00  0.00    +0.013 C 
ATOM     18  C   UNL     1      36.531 -23.061 -13.954  0.00  0.00    +0.059 C 
ATOM     19  H   UNL     1      32.540 -23.646 -15.124  0.00  0.00    +0.170 HD
ENDBRANCH   2  10
BRANCH   1  20
ATOM     20  C   UNL     1      35.827 -18.967 -21.696  0.00  0.00    -0.075 C 
BRANCH  20  21
ATOM     21  C   UNL     1      34.854 -17.845 -22.070  0.00  0.00    +0.002 C 
BRANCH  21  22
ATOM     22  C   UNL     1      35.516 -16.491 -22.316  0.00  0.00    +0.108 C 
BRANCH  22  24
ATOM     23  O   UNL     1      34.556 -16.038 -25.142  0.00  0.00    -0.247 OA
ATOM     24  N   UNL     1      34.595 -15.510 -22.822  0.00  0.00    -0.280 N 
ATOM     25  N   UNL     1      33.282 -14.278 -24.209  0.00  0.00    -0.305 N 
ATOM     26  C   UNL     1      33.938 -14.532 -22.057  0.00  0.00    +0.079 A 
ATOM     27  C   UNL     1      34.196 -15.369 -24.183  0.00  0.00    +0.328 A 
ATOM     28  C   UNL     1      33.135 -13.781 -22.913  0.00  0.00    +0.076 A 
ATOM     29  C   UNL     1      33.995 -14.266 -20.704  0.00  0.00    +0.019 C 
ATOM     30  C   UNL     1      32.356 -12.737 -22.469  0.00  0.00    +0.019 C 
ATOM     31  C   UNL     1      33.212 -13.209 -20.229  0.00  0.00    +0.002 C 
ATOM     32  C   UNL     1      32.401 -12.453 -21.101  0.00  0.00    +0.002 C 
ATOM     33  H   UNL     1      32.827 -13.930 -25.011  0.00  0.00    +0.170 HD
ENDBRANCH  22  24
ENDBRANCH  21  22
ENDBRANCH  20  21
ENDBRANCH   1  20
TORSDOF 5
ENDMDL
MODEL 8
REMARK VINA RESULT:     -11.0      5.171     11.262
REMARK  Name = 3151
REMARK  5 active torsions:
REMARK  status: ('A' for Active; 'I' for Inactive)
REMARK    1  A    between atoms: N_1  and  C_20
REMARK    2  A    between atoms: C_2  and  N_10
REMARK    3  A    between atoms: C_20  and  C_21
REMARK    4  A    between atoms: C_21  and  C_22
REMARK    5  A    between atoms: C_22  and  N_24
REMARK                            x       y       z     vdW  Elec       q    Type
REMARK                         _______ _______ _______ _____ _____    ______ ____
ROOT
ATOM      1  N   UNL     1      34.217 -19.855 -20.533  0.00  0.00    +0.387 N 
ATOM      2  C   UNL     1      34.484 -22.009 -18.571  0.00  0.00    +0.086 C 
ATOM      3  C   UNL     1      33.180 -21.232 -18.758  0.00  0.00    -0.000 C 
ATOM      4  C   UNL     1      35.674 -21.159 -19.018  0.00  0.00    -0.000 C 
ATOM      5  C   UNL     1      33.058 -20.688 -20.182  0.00  0.00    -0.075 C 
ATOM      6  C   UNL     1      35.469 -20.618 -20.434  0.00  0.00    -0.075 C 
ATOM      7  H   UNL     1      34.265 -19.085 -19.866  0.00  0.00    -0.080 HD
ENDROOT
BRANCH   2  10
ATOM      8 CL   UNL     1      30.941 -24.505 -13.159  0.00  0.00    -0.082 Cl
ATOM      9  O   UNL     1      36.957 -22.112 -16.810  0.00  0.00    -0.247 OA
ATOM     10  N   UNL     1      34.635 -22.435 -17.203  0.00  0.00    -0.282 N 
ATOM     11  N   UNL     1      35.481 -22.950 -15.163  0.00  0.00    -0.305 N 
ATOM     12  C   UNL     1      33.585 -22.907 -16.403  0.00  0.00    +0.079 A 
ATOM     13  C   UNL     1      35.839 -22.451 -16.448  0.00  0.00    +0.328 A 
ATOM     14  C   UNL     1      34.112 -23.221 -15.151  0.00  0.00    +0.077 A 
ATOM     15  C   UNL     1      32.245 -23.076 -16.683  0.00  0.00    +0.020 C 
ATOM     16  C   UNL     1      33.337 -23.714 -14.126  0.00  0.00    +0.030 C 
ATOM     17  C   UNL     1      31.437 -23.575 -15.657  0.00  0.00    +0.013 C 
ATOM     18  C   UNL     1      31.977 -23.891 -14.393  0.00  0.00    +0.059 C 
ATOM     19  H   UNL     1      36.098 -23.081 -14.408  0.00  0.00    +0.170 HD
ENDBRANCH   2  10
BRANCH   1  20
ATOM     20  C   UNL     1      34.061 -19.302 -21.879  0.00  0.00    -0.075 C 
BRANCH  20  21
ATOM     21  C   UNL     1      35.389 -18.789 -22.444  0.00  0.00    +0.002 C 
BRANCH  21  22
ATOM     22  C   UNL     1      35.739 -17.360 -22.036  0.00  0.00    +0.108 C 
BRANCH  22  24
ATOM     23  O   UNL     1      35.004 -17.267 -24.962  0.00  0.00    -0.247 OA
ATOM     24  N   UNL     1      34.973 -16.378 -22.755  0.00  0.00    -0.280 N 
ATOM     25  N   UNL     1      33.901 -15.249 -24.411  0.00  0.00    -0.305 N 
ATOM     26  C   UNL     1      34.396 -15.223 -22.202  0.00  0.00    +0.079 A 
ATOM     27  C   UNL     1      34.673 -16.415 -24.148  0.00  0.00    +0.328 A 
ATOM     28  C   UNL     1      33.741 -14.536 -23.222  0.00  0.00    +0.076 A 
ATOM     29  C   UNL     1      34.407 -14.749 -20.906  0.00  0.00    +0.019 C 
ATOM     30  C   UNL     1      33.070 -13.354 -23.005  0.00  0.00    +0.019 C 
ATOM     31  C   UNL     1      33.732 -13.549 -20.660  0.00  0.00    +0.002 C 
ATOM     32  C   UNL     1      33.070 -12.859 -21.697  0.00  0.00    +0.002 C 
ATOM     33  H   UNL     1      33.539 -14.987 -25.289  0.00  0.00    +0.170 HD
ENDBRANCH  22  24
ENDBRANCH  21  22
ENDBRANCH  20  21
ENDBRANCH   1  20
TORSDOF 5
ENDMDL
MODEL 9
REMARK VINA RESULT:     -10.8      3.822     11.154
REMARK  Name = 3151
REMARK  5 active torsions:
REMARK  status: ('A' for Active; 'I' for Inactive)
REMARK    1  A    between atoms: N_1  and  C_20
REMARK    2  A    between atoms: C_2  and  N_10
REMARK    3  A    between atoms: C_20  and  C_21
REMARK    4  A    between atoms: C_21  and  C_22
REMARK    5  A    between atoms: C_22  and  N_24
REMARK                            x       y       z     vdW  Elec       q    Type
REMARK                         _______ _______ _______ _____ _____    ______ ____
ROOT
ATOM      1  N   UNL     1      32.598 -10.670 -22.991  0.00  0.00    +0.387 N 
ATOM      2  C   UNL     1      34.020 -13.222 -22.854  0.00  0.00    +0.086 C 
ATOM      3  C   UNL     1      34.226 -12.234 -24.003  0.00  0.00    -0.000 C 
ATOM      4  C   UNL     1      32.642 -13.020 -22.224  0.00  0.00    -0.000 C 
ATOM      5  C   UNL     1      33.949 -10.798 -23.555  0.00  0.00    -0.075 C 
ATOM      6  C   UNL     1      32.419 -11.558 -21.835  0.00  0.00    -0.075 C 
ATOM      7  H   UNL     1      31.929 -10.948 -23.708  0.00  0.00    -0.080 HD
ENDROOT
BRANCH   2  10
ATOM      8 CL   UNL     1      35.878 -19.552 -20.721  0.00  0.00    -0.082 Cl
ATOM      9  O   UNL     1      33.584 -14.439 -25.604  0.00  0.00    -0.247 OA
ATOM     10  N   UNL     1      34.190 -14.579 -23.309  0.00  0.00    -0.282 N 
ATOM     11  N   UNL     1      34.264 -16.458 -24.576  0.00  0.00    -0.305 N 
ATOM     12  C   UNL     1      34.615 -15.637 -22.494  0.00  0.00    +0.079 A 
ATOM     13  C   UNL     1      33.961 -15.067 -24.624  0.00  0.00    +0.328 A 
ATOM     14  C   UNL     1      34.658 -16.788 -23.280  0.00  0.00    +0.077 A 
ATOM     15  C   UNL     1      34.956 -15.663 -21.158  0.00  0.00    +0.020 C 
ATOM     16  C   UNL     1      35.040 -18.011 -22.776  0.00  0.00    +0.030 C 
ATOM     17  C   UNL     1      35.348 -16.895 -20.624  0.00  0.00    +0.013 C 
ATOM     18  C   UNL     1      35.389 -18.055 -21.424  0.00  0.00    +0.059 C 
ATOM     19  H   UNL     1      34.203 -17.083 -25.334  0.00  0.00    +0.170 HD
ENDBRANCH   2  10
BRANCH   1  20
ATOM     20  C   UNL     1      32.331  -9.281 -22.614  0.00  0.00    -0.075 C 
BRANCH  20  21
ATOM     21  C   UNL     1      33.417  -8.331 -23.127  0.00  0.00    +0.002 C 
BRANCH  21  22
ATOM     22  C   UNL     1      33.928  -7.335 -22.087  0.00  0.00    +0.108 C 
BRANCH  22  24
ATOM     23  O   UNL     1      32.056  -6.722 -19.800  0.00  0.00    -0.247 OA
ATOM     24  N   UNL     1      33.038  -6.220 -21.908  0.00  0.00    -0.280 N 
ATOM     25  N   UNL     1      31.497  -4.791 -21.044  0.00  0.00    -0.305 N 
ATOM     26  C   UNL     1      32.867  -5.156 -22.810  0.00  0.00    +0.079 A 
ATOM     27  C   UNL     1      32.183  -6.011 -20.787  0.00  0.00    +0.328 A 
ATOM     28  C   UNL     1      31.921  -4.285 -22.274  0.00  0.00    +0.076 A 
ATOM     29  C   UNL     1      33.465  -4.910 -24.028  0.00  0.00    +0.019 C 
ATOM     30  C   UNL     1      31.527  -3.134 -22.919  0.00  0.00    +0.019 C 
ATOM     31  C   UNL     1      33.082  -3.746 -24.703  0.00  0.00    +0.002 C 
ATOM     32  C   UNL     1      32.124  -2.867 -24.154  0.00  0.00    +0.002 C 
ATOM     33  H   UNL     1      30.830  -4.372 -20.452  0.00  0.00    +0.170 HD
ENDBRANCH  22  24
ENDBRANCH  21  22
ENDBRANCH  20  21
ENDBRANCH   1  20
TORSDOF 5
ENDMDL
