MODEL 1
REMARK VINA RESULT:     -12.2      0.000      0.000
REMARK  Name = 24794406
REMARK  5 active torsions:
REMARK  status: ('A' for Active; 'I' for Inactive)
REMARK    1  A    between atoms: C_1  and  S_24
REMARK    2  A    between atoms: C_2  and  N_8
REMARK    3  A    between atoms: C_9  and  C_11
REMARK    4  A    between atoms: C_12  and  N_18
REMARK    5  A    between atoms: S_24  and  N_28
REMARK                            x       y       z     vdW  Elec       q    Type
REMARK                         _______ _______ _______ _____ _____    ______ ____
ROOT
ATOM      1  C   UNL     1      33.894 -23.599 -14.457  0.00  0.00    +0.139 C 
ATOM      2  C   UNL     1      32.884 -23.243 -15.351  0.00  0.00    +0.070 C 
ATOM      3  C   UNL     1      33.585 -24.338 -13.315  0.00  0.00    +0.021 C 
ATOM      4  C   UNL     1      31.565 -23.624 -15.102  0.00  0.00    +0.016 C 
ATOM      5  C   UNL     1      32.266 -24.720 -13.067  0.00  0.00    +0.001 C 
ATOM      6  C   UNL     1      31.257 -24.363 -13.961  0.00  0.00    +0.001 C 
ENDROOT
BRANCH   2   8
ATOM      7  O   UNL     1      33.517 -24.156 -18.136  0.00  0.00    -0.270 OA
ATOM      8  N   UNL     1      33.170 -22.492 -16.517  0.00  0.00    -0.279 N 
ATOM      9  C   UNL     1      33.463 -22.960 -17.807  0.00  0.00    +0.250 C 
ATOM     10  H   UNL     1      33.163 -21.514 -16.409  0.00  0.00    +0.155 HD
BRANCH   9  11
ATOM     11  C   UNL     1      33.743 -21.939 -18.803  0.00  0.00    +0.054 C 
ATOM     12  C   UNL     1      34.279 -19.981 -20.717  0.00  0.00    +0.058 C 
ATOM     13  C   UNL     1      32.694 -21.233 -19.391  0.00  0.00    +0.006 C 
ATOM     14  C   UNL     1      35.060 -21.667 -19.173  0.00  0.00    +0.006 C 
ATOM     15  C   UNL     1      32.962 -20.253 -20.348  0.00  0.00    +0.015 C 
ATOM     16  C   UNL     1      35.328 -20.688 -20.130  0.00  0.00    +0.015 C 
BRANCH  12  18
ATOM     17  O   UNL     1      35.584 -17.452 -20.199  0.00  0.00    -0.269 OA
ATOM     18  N   UNL     1      34.558 -18.963 -21.711  0.00  0.00    -0.233 N 
ATOM     19  C   UNL     1      35.242 -17.778 -21.337  0.00  0.00    +0.257 C 
ATOM     20  C   UNL     1      34.137 -19.129 -23.033  0.00  0.00    +0.072 C 
ATOM     21  C   UNL     1      35.530 -16.800 -22.432  0.00  0.00    +0.059 C 
ATOM     22  C   UNL     1      34.378 -18.224 -23.988  0.00  0.00    +0.017 C 
ATOM     23  C   UNL     1      35.102 -17.029 -23.676  0.00  0.00    +0.006 C 
ENDBRANCH  12  18
ENDBRANCH   9  11
ENDBRANCH   2   8
BRANCH   1  24
ATOM     24  S   UNL     1      35.562 -23.140 -14.733  0.00  0.00    +0.076 S 
ATOM     25  O   UNL     1      35.673 -21.713 -14.466  0.00  0.00    -0.150 OA
ATOM     26  O   UNL     1      35.970 -23.650 -16.034  0.00  0.00    -0.150 OA
BRANCH  24  28
ATOM     27 CL   UNL     1      39.236 -28.891 -15.062  0.00  0.00    -0.081 Cl
ATOM     28  N   UNL     1      36.396 -23.988 -13.489  0.00  0.00    -0.199 N 
ATOM     29  N   UNL     1      36.550 -25.963 -14.787  0.00  0.00    -0.227 NA
ATOM     30  C   UNL     1      37.121 -25.178 -13.846  0.00  0.00    +0.147 C 
ATOM     31  C   UNL     1      38.331 -25.458 -13.232  0.00  0.00    +0.036 C 
ATOM     32  C   UNL     1      38.999 -26.619 -13.609  0.00  0.00    +0.016 C 
ATOM     33  C   UNL     1      37.228 -27.082 -15.128  0.00  0.00    +0.112 C 
ATOM     34  C   UNL     1      38.443 -27.451 -14.575  0.00  0.00    +0.077 C 
ATOM     35  H   UNL     1      36.378 -23.668 -12.558  0.00  0.00    +0.175 HD
ENDBRANCH  24  28
ENDBRANCH   1  24
TORSDOF 5
ENDMDL
MODEL 2
REMARK VINA RESULT:     -12.0      1.313      1.804
REMARK  Name = 24794406
REMARK  5 active torsions:
REMARK  status: ('A' for Active; 'I' for Inactive)
REMARK    1  A    between atoms: C_1  and  S_24
REMARK    2  A    between atoms: C_2  and  N_8
REMARK    3  A    between atoms: C_9  and  C_11
REMARK    4  A    between atoms: C_12  and  N_18
REMARK    5  A    between atoms: S_24  and  N_28
REMARK                            x       y       z     vdW  Elec       q    Type
REMARK                         _______ _______ _______ _____ _____    ______ ____
ROOT
ATOM      1  C   UNL     1      32.498 -23.953 -14.176  0.00  0.00    +0.139 C 
ATOM      2  C   UNL     1      31.712 -23.544 -15.252  0.00  0.00    +0.070 C 
ATOM      3  C   UNL     1      31.921 -24.655 -13.117  0.00  0.00    +0.021 C 
ATOM      4  C   UNL     1      30.348 -23.836 -15.271  0.00  0.00    +0.016 C 
ATOM      5  C   UNL     1      30.557 -24.948 -13.137  0.00  0.00    +0.001 C 
ATOM      6  C   UNL     1      29.771 -24.538 -14.214  0.00  0.00    +0.001 C 
ENDROOT
BRANCH   2   8
ATOM      7  O   UNL     1      33.403 -24.502 -17.536  0.00  0.00    -0.270 OA
ATOM      8  N   UNL     1      32.273 -22.829 -16.339  0.00  0.00    -0.279 N 
ATOM      9  C   UNL     1      33.062 -23.317 -17.391  0.00  0.00    +0.250 C 
ATOM     10  H   UNL     1      32.086 -21.863 -16.358  0.00  0.00    +0.155 HD
BRANCH   9  11
ATOM     11  C   UNL     1      33.519 -22.328 -18.353  0.00  0.00    +0.054 C 
ATOM     12  C   UNL     1      34.399 -20.428 -20.197  0.00  0.00    +0.058 C 
ATOM     13  C   UNL     1      34.863 -22.287 -18.725  0.00  0.00    +0.006 C 
ATOM     14  C   UNL     1      32.616 -21.419 -18.903  0.00  0.00    +0.006 C 
ATOM     15  C   UNL     1      35.303 -21.337 -19.647  0.00  0.00    +0.015 C 
ATOM     16  C   UNL     1      33.055 -20.469 -19.824  0.00  0.00    +0.015 C 
BRANCH  12  18
ATOM     17  O   UNL     1      36.753 -18.774 -19.902  0.00  0.00    -0.269 OA
ATOM     18  N   UNL     1      34.855 -19.441 -21.156  0.00  0.00    -0.233 N 
ATOM     19  C   UNL     1      36.052 -18.719 -20.913  0.00  0.00    +0.257 C 
ATOM     20  C   UNL     1      34.112 -19.177 -22.310  0.00  0.00    +0.072 C 
ATOM     21  C   UNL     1      36.475 -17.754 -21.975  0.00  0.00    +0.059 C 
ATOM     22  C   UNL     1      34.495 -18.284 -23.229  0.00  0.00    +0.017 C 
ATOM     23  C   UNL     1      35.717 -17.558 -23.056  0.00  0.00    +0.006 C 
ENDBRANCH  12  18
ENDBRANCH   9  11
ENDBRANCH   2   8
BRANCH   1  24
ATOM     24  S   UNL     1      34.215 -23.607 -14.114  0.00  0.00    +0.076 S 
ATOM     25  O   UNL     1      34.624 -23.666 -12.718  0.00  0.00    -0.150 OA
ATOM     26  O   UNL     1      34.466 -22.390 -14.872  0.00  0.00    -0.150 OA
BRANCH  24  28
ATOM     27 CL   UNL     1      40.611 -26.006 -14.004  0.00  0.00    -0.081 Cl
ATOM     28  N   UNL     1      34.900 -24.955 -14.935  0.00  0.00    -0.199 N 
ATOM     29  N   UNL     1      37.112 -24.189 -14.573  0.00  0.00    -0.227 NA
ATOM     30  C   UNL     1      36.290 -25.254 -14.709  0.00  0.00    +0.147 C 
ATOM     31  C   UNL     1      36.709 -26.572 -14.643  0.00  0.00    +0.036 C 
ATOM     32  C   UNL     1      38.061 -26.814 -14.421  0.00  0.00    +0.016 C 
ATOM     33  C   UNL     1      38.418 -24.464 -14.359  0.00  0.00    +0.112 C 
ATOM     34  C   UNL     1      38.938 -25.745 -14.275  0.00  0.00    +0.077 C 
ATOM     35  H   UNL     1      34.358 -25.507 -15.543  0.00  0.00    +0.175 HD
ENDBRANCH  24  28
ENDBRANCH   1  24
TORSDOF 5
ENDMDL
MODEL 3
REMARK VINA RESULT:      -9.6      3.552      5.554
REMARK  Name = 24794406
REMARK  5 active torsions:
REMARK  status: ('A' for Active; 'I' for Inactive)
REMARK    1  A    between atoms: C_1  and  S_24
REMARK    2  A    between atoms: C_2  and  N_8
REMARK    3  A    between atoms: C_9  and  C_11
REMARK    4  A    between atoms: C_12  and  N_18
REMARK    5  A    between atoms: S_24  and  N_28
REMARK                            x       y       z     vdW  Elec       q    Type
REMARK                         _______ _______ _______ _____ _____    ______ ____
ROOT
ATOM      1  C   UNL     1      34.671 -23.230 -15.922  0.00  0.00    +0.139 C 
ATOM      2  C   UNL     1      35.676 -22.330 -16.279  0.00  0.00    +0.070 C 
ATOM      3  C   UNL     1      34.824 -24.033 -14.792  0.00  0.00    +0.021 C 
ATOM      4  C   UNL     1      36.833 -22.234 -15.506  0.00  0.00    +0.016 C 
ATOM      5  C   UNL     1      35.981 -23.936 -14.018  0.00  0.00    +0.001 C 
ATOM      6  C   UNL     1      36.985 -23.036 -14.375  0.00  0.00    +0.001 C 
ENDROOT
BRANCH   2   8
ATOM      7  O   UNL     1      37.224 -22.319 -18.846  0.00  0.00    -0.270 OA
ATOM      8  N   UNL     1      35.547 -21.504 -17.422  0.00  0.00    -0.279 N 
ATOM      9  C   UNL     1      36.295 -21.531 -18.608  0.00  0.00    +0.250 C 
ATOM     10  H   UNL     1      34.840 -20.820 -17.378  0.00  0.00    +0.155 HD
BRANCH   9  11
ATOM     11  C   UNL     1      35.945 -20.529 -19.601  0.00  0.00    +0.054 C 
ATOM     12  C   UNL     1      35.275 -18.605 -21.508  0.00  0.00    +0.058 C 
ATOM     13  C   UNL     1      36.927 -19.678 -20.109  0.00  0.00    +0.006 C 
ATOM     14  C   UNL     1      34.629 -20.417 -20.047  0.00  0.00    +0.006 C 
ATOM     15  C   UNL     1      36.592 -18.716 -21.062  0.00  0.00    +0.015 C 
ATOM     16  C   UNL     1      34.293 -19.456 -21.000  0.00  0.00    +0.015 C 
BRANCH  12  18
ATOM     17  O   UNL     1      34.305 -19.163 -24.175  0.00  0.00    -0.269 OA
ATOM     18  N   UNL     1      34.927 -17.606 -22.499  0.00  0.00    -0.233 N 
ATOM     19  C   UNL     1      34.423 -18.008 -23.762  0.00  0.00    +0.257 C 
ATOM     20  C   UNL     1      35.106 -16.247 -22.228  0.00  0.00    +0.072 C 
ATOM     21  C   UNL     1      34.044 -16.913 -24.709  0.00  0.00    +0.059 C 
ATOM     22  C   UNL     1      34.791 -15.287 -23.104  0.00  0.00    +0.017 C 
ATOM     23  C   UNL     1      34.238 -15.634 -24.379  0.00  0.00    +0.006 C 
ENDBRANCH  12  18
ENDBRANCH   9  11
ENDBRANCH   2   8
BRANCH   1  24
ATOM     24  S   UNL     1      33.203 -23.381 -16.866  0.00  0.00    +0.076 S 
ATOM     25  O   UNL     1      33.515 -24.194 -18.034  0.00  0.00    -0.150 OA
ATOM     26  O   UNL     1      32.642 -22.052 -17.060  0.00  0.00    -0.150 OA
BRANCH  24  28
ATOM     27 CL   UNL     1      26.674 -22.357 -15.136  0.00  0.00    -0.081 Cl
ATOM     28  N   UNL     1      32.181 -24.298 -15.828  0.00  0.00    -0.199 N 
ATOM     29  N   UNL     1      30.624 -22.526 -15.616  0.00  0.00    -0.227 NA
ATOM     30  C   UNL     1      30.820 -23.863 -15.657  0.00  0.00    +0.147 C 
ATOM     31  C   UNL     1      29.806 -24.800 -15.546  0.00  0.00    +0.036 C 
ATOM     32  C   UNL     1      28.505 -24.335 -15.384  0.00  0.00    +0.016 C 
ATOM     33  C   UNL     1      29.347 -22.112 -15.457  0.00  0.00    +0.112 C 
ATOM     34  C   UNL     1      28.263 -22.966 -15.338  0.00  0.00    +0.077 C 
ATOM     35  H   UNL     1      32.518 -25.098 -15.364  0.00  0.00    +0.175 HD
ENDBRANCH  24  28
ENDBRANCH   1  24
TORSDOF 5
ENDMDL
MODEL 4
REMARK VINA RESULT:      -9.6      2.511      3.877
REMARK  Name = 24794406
REMARK  5 active torsions:
REMARK  status: ('A' for Active; 'I' for Inactive)
REMARK    1  A    between atoms: C_1  and  S_24
REMARK    2  A    between atoms: C_2  and  N_8
REMARK    3  A    between atoms: C_9  and  C_11
REMARK    4  A    between atoms: C_12  and  N_18
REMARK    5  A    between atoms: S_24  and  N_28
REMARK                            x       y       z     vdW  Elec       q    Type
REMARK                         _______ _______ _______ _____ _____    ______ ____
ROOT
ATOM      1  C   UNL     1      36.950 -25.457 -12.886  0.00  0.00    +0.139 C 
ATOM      2  C   UNL     1      36.253 -24.250 -12.915  0.00  0.00    +0.070 C 
ATOM      3  C   UNL     1      37.209 -26.083 -11.666  0.00  0.00    +0.021 C 
ATOM      4  C   UNL     1      35.815 -23.668 -11.725  0.00  0.00    +0.016 C 
ATOM      5  C   UNL     1      36.771 -25.502 -10.477  0.00  0.00    +0.001 C 
ATOM      6  C   UNL     1      36.073 -24.294 -10.507  0.00  0.00    +0.001 C 
ENDROOT
BRANCH   2   8
ATOM      7  O   UNL     1      33.885 -24.469 -14.742  0.00  0.00    -0.270 OA
ATOM      8  N   UNL     1      35.977 -23.593 -14.140  0.00  0.00    -0.279 N 
ATOM      9  C   UNL     1      34.853 -23.725 -14.968  0.00  0.00    +0.250 C 
ATOM     10  H   UNL     1      36.665 -22.962 -14.451  0.00  0.00    +0.155 HD
BRANCH   9  11
ATOM     11  C   UNL     1      34.866 -22.933 -16.186  0.00  0.00    +0.054 C 
ATOM     12  C   UNL     1      34.895 -21.411 -18.524  0.00  0.00    +0.058 C 
ATOM     13  C   UNL     1      36.057 -22.354 -16.628  0.00  0.00    +0.006 C 
ATOM     14  C   UNL     1      33.691 -22.749 -16.914  0.00  0.00    +0.006 C 
ATOM     15  C   UNL     1      36.071 -21.593 -17.797  0.00  0.00    +0.015 C 
ATOM     16  C   UNL     1      33.705 -21.988 -18.082  0.00  0.00    +0.015 C 
BRANCH  12  18
ATOM     17  O   UNL     1      32.602 -20.895 -20.210  0.00  0.00    -0.269 OA
ATOM     18  N   UNL     1      34.909 -20.620 -19.740  0.00  0.00    -0.233 N 
ATOM     19  C   UNL     1      33.706 -20.407 -20.460  0.00  0.00    +0.257 C 
ATOM     20  C   UNL     1      36.106 -20.084 -20.223  0.00  0.00    +0.072 C 
ATOM     21  C   UNL     1      33.800 -19.542 -21.676  0.00  0.00    +0.059 C 
ATOM     22  C   UNL     1      36.170 -19.341 -21.333  0.00  0.00    +0.017 C 
ATOM     23  C   UNL     1      34.979 -19.058 -22.075  0.00  0.00    +0.006 C 
ENDBRANCH  12  18
ENDBRANCH   9  11
ENDBRANCH   2   8
BRANCH   1  24
ATOM     24  S   UNL     1      37.517 -26.221 -14.357  0.00  0.00    +0.076 S 
ATOM     25  O   UNL     1      38.478 -25.319 -14.977  0.00  0.00    -0.150 OA
ATOM     26  O   UNL     1      36.359 -26.657 -15.125  0.00  0.00    -0.150 OA
BRANCH  24  28
ATOM     27 CL   UNL     1      42.456 -29.910 -17.303  0.00  0.00    -0.081 Cl
ATOM     28  N   UNL     1      38.370 -27.593 -13.764  0.00  0.00    -0.199 N 
ATOM     29  N   UNL     1      39.142 -28.183 -15.925  0.00  0.00    -0.227 NA
ATOM     30  C   UNL     1      39.393 -28.169 -14.596  0.00  0.00    +0.147 C 
ATOM     31  C   UNL     1      40.551 -28.666 -14.021  0.00  0.00    +0.036 C 
ATOM     32  C   UNL     1      41.515 -29.211 -14.863  0.00  0.00    +0.016 C 
ATOM     33  C   UNL     1      40.101 -28.720 -16.711  0.00  0.00    +0.112 C 
ATOM     34  C   UNL     1      41.292 -29.243 -16.235  0.00  0.00    +0.077 C 
ATOM     35  H   UNL     1      38.164 -27.975 -12.881  0.00  0.00    +0.175 HD
ENDBRANCH  24  28
ENDBRANCH   1  24
TORSDOF 5
ENDMDL
MODEL 5
REMARK VINA RESULT:      -9.5      3.116      9.131
REMARK  Name = 24794406
REMARK  5 active torsions:
REMARK  status: ('A' for Active; 'I' for Inactive)
REMARK    1  A    between atoms: C_1  and  S_24
REMARK    2  A    between atoms: C_2  and  N_8
REMARK    3  A    between atoms: C_9  and  C_11
REMARK    4  A    between atoms: C_12  and  N_18
REMARK    5  A    between atoms: S_24  and  N_28
REMARK                            x       y       z     vdW  Elec       q    Type
REMARK                         _______ _______ _______ _____ _____    ______ ____
ROOT
ATOM      1  C   UNL     1      34.804 -21.202 -19.245  0.00  0.00    +0.139 C 
ATOM      2  C   UNL     1      36.062 -21.277 -18.649  0.00  0.00    +0.070 C 
ATOM      3  C   UNL     1      34.548 -20.235 -20.217  0.00  0.00    +0.021 C 
ATOM      4  C   UNL     1      37.066 -20.383 -19.025  0.00  0.00    +0.016 C 
ATOM      5  C   UNL     1      35.552 -19.343 -20.594  0.00  0.00    +0.001 C 
ATOM      6  C   UNL     1      36.811 -19.417 -19.997  0.00  0.00    +0.001 C 
ENDROOT
BRANCH   2   8
ATOM      7  O   UNL     1      37.187 -20.956 -15.888  0.00  0.00    -0.270 OA
ATOM      8  N   UNL     1      36.348 -22.248 -17.659  0.00  0.00    -0.279 N 
ATOM      9  C   UNL     1      36.877 -22.056 -16.374  0.00  0.00    +0.250 C 
ATOM     10  H   UNL     1      36.151 -23.181 -17.904  0.00  0.00    +0.155 HD
BRANCH   9  11
ATOM     11  C   UNL     1      37.087 -23.261 -15.588  0.00  0.00    +0.054 C 
ATOM     12  C   UNL     1      37.493 -25.573 -14.081  0.00  0.00    +0.058 C 
ATOM     13  C   UNL     1      38.369 -23.590 -15.148  0.00  0.00    +0.006 C 
ATOM     14  C   UNL     1      36.009 -24.088 -15.275  0.00  0.00    +0.006 C 
ATOM     15  C   UNL     1      38.572 -24.747 -14.394  0.00  0.00    +0.015 C 
ATOM     16  C   UNL     1      36.212 -25.244 -14.522  0.00  0.00    +0.015 C 
BRANCH  12  18
ATOM     17  O   UNL     1      36.936 -25.846 -11.256  0.00  0.00    -0.269 OA
ATOM     18  N   UNL     1      37.704 -26.775 -13.297  0.00  0.00    -0.233 N 
ATOM     19  C   UNL     1      37.353 -26.794 -11.923  0.00  0.00    +0.257 C 
ATOM     20  C   UNL     1      38.274 -27.910 -13.879  0.00  0.00    +0.072 C 
ATOM     21  C   UNL     1      37.559 -28.087 -11.200  0.00  0.00    +0.059 C 
ATOM     22  C   UNL     1      38.480 -29.045 -13.203  0.00  0.00    +0.017 C 
ATOM     23  C   UNL     1      38.104 -29.134 -11.824  0.00  0.00    +0.006 C 
ENDBRANCH  12  18
ENDBRANCH   9  11
ENDBRANCH   2   8
BRANCH   1  24
ATOM     24  S   UNL     1      33.517 -22.305 -18.801  0.00  0.00    +0.076 S 
ATOM     25  O   UNL     1      33.951 -23.650 -19.154  0.00  0.00    -0.150 OA
ATOM     26  O   UNL     1      32.267 -21.799 -19.350  0.00  0.00    -0.150 OA
BRANCH  24  28
ATOM     27 CL   UNL     1      28.918 -24.638 -14.319  0.00  0.00    -0.081 Cl
ATOM     28  N   UNL     1      33.489 -22.181 -17.085  0.00  0.00    -0.199 N 
ATOM     29  N   UNL     1      31.186 -22.721 -16.974  0.00  0.00    -0.227 NA
ATOM     30  C   UNL     1      32.396 -22.793 -16.376  0.00  0.00    +0.147 C 
ATOM     31  C   UNL     1      32.625 -23.409 -15.157  0.00  0.00    +0.036 C 
ATOM     32  C   UNL     1      31.540 -23.990 -14.508  0.00  0.00    +0.016 C 
ATOM     33  C   UNL     1      30.156 -23.297 -16.314  0.00  0.00    +0.112 C 
ATOM     34  C   UNL     1      30.279 -23.937 -15.091  0.00  0.00    +0.077 C 
ATOM     35  H   UNL     1      34.200 -21.704 -16.600  0.00  0.00    +0.175 HD
ENDBRANCH  24  28
ENDBRANCH   1  24
TORSDOF 5
ENDMDL
MODEL 6
REMARK VINA RESULT:      -9.5      2.991      5.403
REMARK  Name = 24794406
REMARK  5 active torsions:
REMARK  status: ('A' for Active; 'I' for Inactive)
REMARK    1  A    between atoms: C_1  and  S_24
REMARK    2  A    between atoms: C_2  and  N_8
REMARK    3  A    between atoms: C_9  and  C_11
REMARK    4  A    between atoms: C_12  and  N_18
REMARK    5  A    between atoms: S_24  and  N_28
REMARK                            x       y       z     vdW  Elec       q    Type
REMARK                         _______ _______ _______ _____ _____    ______ ____
ROOT
ATOM      1  C   UNL     1      36.588 -25.363 -12.778  0.00  0.00    +0.139 C 
ATOM      2  C   UNL     1      37.323 -25.288 -13.961  0.00  0.00    +0.070 C 
ATOM      3  C   UNL     1      36.993 -26.227 -11.760  0.00  0.00    +0.021 C 
ATOM      4  C   UNL     1      38.460 -26.078 -14.127  0.00  0.00    +0.016 C 
ATOM      5  C   UNL     1      38.131 -27.016 -11.926  0.00  0.00    +0.001 C 
ATOM      6  C   UNL     1      38.865 -26.940 -13.110  0.00  0.00    +0.001 C 
ENDROOT
BRANCH   2   8
ATOM      7  O   UNL     1      37.960 -22.394 -14.419  0.00  0.00    -0.270 OA
ATOM      8  N   UNL     1      36.934 -24.420 -15.011  0.00  0.00    -0.279 N 
ATOM      9  C   UNL     1      37.255 -23.066 -15.188  0.00  0.00    +0.250 C 
ATOM     10  H   UNL     1      36.362 -24.818 -15.706  0.00  0.00    +0.155 HD
BRANCH   9  11
ATOM     11  C   UNL     1      36.679 -22.427 -16.361  0.00  0.00    +0.054 C 
ATOM     12  C   UNL     1      35.577 -21.197 -18.609  0.00  0.00    +0.058 C 
ATOM     13  C   UNL     1      37.438 -21.521 -17.103  0.00  0.00    +0.006 C 
ATOM     14  C   UNL     1      35.370 -22.716 -16.743  0.00  0.00    +0.006 C 
ATOM     15  C   UNL     1      36.886 -20.907 -18.227  0.00  0.00    +0.015 C 
ATOM     16  C   UNL     1      34.818 -22.102 -17.866  0.00  0.00    +0.015 C 
BRANCH  12  18
ATOM     17  O   UNL     1      32.774 -21.224 -19.323  0.00  0.00    -0.269 OA
ATOM     18  N   UNL     1      35.004 -20.559 -19.778  0.00  0.00    -0.233 N 
ATOM     19  C   UNL     1      33.603 -20.611 -19.997  0.00  0.00    +0.257 C 
ATOM     20  C   UNL     1      35.824 -19.912 -20.706  0.00  0.00    +0.072 C 
ATOM     21  C   UNL     1      33.089 -19.888 -21.202  0.00  0.00    +0.059 C 
ATOM     22  C   UNL     1      35.343 -19.300 -21.794  0.00  0.00    +0.017 C 
ATOM     23  C   UNL     1      33.933 -19.284 -22.042  0.00  0.00    +0.006 C 
ENDBRANCH  12  18
ENDBRANCH   9  11
ENDBRANCH   2   8
BRANCH   1  24
ATOM     24  S   UNL     1      35.154 -24.389 -12.530  0.00  0.00    +0.076 S 
ATOM     25  O   UNL     1      35.544 -22.992 -12.664  0.00  0.00    -0.150 OA
ATOM     26  O   UNL     1      34.506 -24.826 -11.302  0.00  0.00    -0.150 OA
BRANCH  24  28
ATOM     27 CL   UNL     1      28.933 -22.173 -14.284  0.00  0.00    -0.081 Cl
ATOM     28  N   UNL     1      34.176 -24.807 -13.883  0.00  0.00    -0.199 N 
ATOM     29  N   UNL     1      32.218 -23.932 -12.877  0.00  0.00    -0.227 NA
ATOM     30  C   UNL     1      32.897 -24.162 -14.023  0.00  0.00    +0.147 C 
ATOM     31  C   UNL     1      32.435 -23.815 -15.282  0.00  0.00    +0.036 C 
ATOM     32  C   UNL     1      31.194 -23.191 -15.370  0.00  0.00    +0.016 C 
ATOM     33  C   UNL     1      31.017 -23.324 -13.002  0.00  0.00    +0.112 C 
ATOM     34  C   UNL     1      30.466 -22.938 -14.213  0.00  0.00    +0.077 C 
ATOM     35  H   UNL     1      34.481 -25.470 -14.543  0.00  0.00    +0.175 HD
ENDBRANCH  24  28
ENDBRANCH   1  24
TORSDOF 5
ENDMDL
MODEL 7
REMARK VINA RESULT:      -9.4      3.301      5.316
REMARK  Name = 24794406
REMARK  5 active torsions:
REMARK  status: ('A' for Active; 'I' for Inactive)
REMARK    1  A    between atoms: C_1  and  S_24
REMARK    2  A    between atoms: C_2  and  N_8
REMARK    3  A    between atoms: C_9  and  C_11
REMARK    4  A    between atoms: C_12  and  N_18
REMARK    5  A    between atoms: S_24  and  N_28
REMARK                            x       y       z     vdW  Elec       q    Type
REMARK                         _______ _______ _______ _____ _____    ______ ____
ROOT
ATOM      1  C   UNL     1      35.032 -23.931 -12.956  0.00  0.00    +0.139 C 
ATOM      2  C   UNL     1      36.059 -23.101 -13.403  0.00  0.00    +0.070 C 
ATOM      3  C   UNL     1      35.089 -24.484 -11.676  0.00  0.00    +0.021 C 
ATOM      4  C   UNL     1      37.145 -22.825 -12.571  0.00  0.00    +0.016 C 
ATOM      5  C   UNL     1      36.174 -24.207 -10.845  0.00  0.00    +0.001 C 
ATOM      6  C   UNL     1      37.202 -23.377 -11.293  0.00  0.00    +0.001 C 
ENDROOT
BRANCH   2   8
ATOM      7  O   UNL     1      38.210 -22.881 -15.480  0.00  0.00    -0.270 OA
ATOM      8  N   UNL     1      36.026 -22.527 -14.697  0.00  0.00    -0.279 N 
ATOM      9  C   UNL     1      37.060 -22.443 -15.642  0.00  0.00    +0.250 C 
ATOM     10  H   UNL     1      35.166 -22.133 -14.970  0.00  0.00    +0.155 HD
BRANCH   9  11
ATOM     11  C   UNL     1      36.730 -21.765 -16.885  0.00  0.00    +0.054 C 
ATOM     12  C   UNL     1      36.095 -20.465 -19.270  0.00  0.00    +0.058 C 
ATOM     13  C   UNL     1      35.593 -22.139 -17.602  0.00  0.00    +0.006 C 
ATOM     14  C   UNL     1      37.548 -20.742 -17.361  0.00  0.00    +0.006 C 
ATOM     15  C   UNL     1      35.276 -21.489 -18.795  0.00  0.00    +0.015 C 
ATOM     16  C   UNL     1      37.232 -20.092 -18.553  0.00  0.00    +0.015 C 
BRANCH  12  18
ATOM     17  O   UNL     1      37.760 -18.512 -20.603  0.00  0.00    -0.269 OA
ATOM     18  N   UNL     1      35.765 -19.789 -20.510  0.00  0.00    -0.233 N 
ATOM     19  C   UNL     1      36.687 -18.877 -21.086  0.00  0.00    +0.257 C 
ATOM     20  C   UNL     1      34.534 -20.010 -21.132  0.00  0.00    +0.072 C 
ATOM     21  C   UNL     1      36.289 -18.259 -22.388  0.00  0.00    +0.059 C 
ATOM     22  C   UNL     1      34.186 -19.419 -22.281  0.00  0.00    +0.017 C 
ATOM     23  C   UNL     1      35.096 -18.522 -22.928  0.00  0.00    +0.006 C 
ENDBRANCH  12  18
ENDBRANCH   9  11
ENDBRANCH   2   8
BRANCH   1  24
ATOM     24  S   UNL     1      33.651 -24.302 -13.968  0.00  0.00    +0.076 S 
ATOM     25  O   UNL     1      32.995 -25.473 -13.403  0.00  0.00    -0.150 OA
ATOM     26  O   UNL     1      34.094 -24.341 -15.355  0.00  0.00    -0.150 OA
BRANCH  24  28
ATOM     27 CL   UNL     1      27.641 -22.775 -16.836  0.00  0.00    -0.081 Cl
ATOM     28  N   UNL     1      32.628 -22.940 -13.723  0.00  0.00    -0.199 N 
ATOM     29  N   UNL     1      31.421 -23.352 -15.719  0.00  0.00    -0.227 NA
ATOM     30  C   UNL     1      31.388 -22.882 -14.452  0.00  0.00    +0.147 C 
ATOM     31  C   UNL     1      30.255 -22.366 -13.844  0.00  0.00    +0.036 C 
ATOM     32  C   UNL     1      29.078 -22.331 -14.585  0.00  0.00    +0.016 C 
ATOM     33  C   UNL     1      30.258 -23.301 -16.408  0.00  0.00    +0.112 C 
ATOM     34  C   UNL     1      29.072 -22.806 -15.892  0.00  0.00    +0.077 C 
ATOM     35  H   UNL     1      32.883 -22.220 -13.103  0.00  0.00    +0.175 HD
ENDBRANCH  24  28
ENDBRANCH   1  24
TORSDOF 5
ENDMDL
MODEL 8
REMARK VINA RESULT:      -9.4     10.735     16.711
REMARK  Name = 24794406
REMARK  5 active torsions:
REMARK  status: ('A' for Active; 'I' for Inactive)
REMARK    1  A    between atoms: C_1  and  S_24
REMARK    2  A    between atoms: C_2  and  N_8
REMARK    3  A    between atoms: C_9  and  C_11
REMARK    4  A    between atoms: C_12  and  N_18
REMARK    5  A    between atoms: S_24  and  N_28
REMARK                            x       y       z     vdW  Elec       q    Type
REMARK                         _______ _______ _______ _____ _____    ______ ____
ROOT
ATOM      1  C   UNL     1      31.967  -6.740 -21.884  0.00  0.00    +0.139 C 
ATOM      2  C   UNL     1      32.409  -7.649 -20.923  0.00  0.00    +0.070 C 
ATOM      3  C   UNL     1      31.685  -5.423 -21.521  0.00  0.00    +0.021 C 
ATOM      4  C   UNL     1      32.569  -7.241 -19.599  0.00  0.00    +0.016 C 
ATOM      5  C   UNL     1      31.846  -5.015 -20.197  0.00  0.00    +0.001 C 
ATOM      6  C   UNL     1      32.289  -5.924 -19.236  0.00  0.00    +0.001 C 
ENDROOT
BRANCH   2   8
ATOM      7  O   UNL     1      30.607 -10.039 -21.099  0.00  0.00    -0.270 OA
ATOM      8  N   UNL     1      32.701  -8.992 -21.265  0.00  0.00    -0.279 N 
ATOM      9  C   UNL     1      31.825 -10.085 -21.335  0.00  0.00    +0.250 C 
ATOM     10  H   UNL     1      33.642  -9.184 -21.480  0.00  0.00    +0.155 HD
BRANCH   9  11
ATOM     11  C   UNL     1      32.428 -11.359 -21.690  0.00  0.00    +0.054 C 
ATOM     12  C   UNL     1      33.587 -13.805 -22.368  0.00  0.00    +0.058 C 
ATOM     13  C   UNL     1      32.284 -12.459 -20.843  0.00  0.00    +0.006 C 
ATOM     14  C   UNL     1      33.152 -11.484 -22.875  0.00  0.00    +0.006 C 
ATOM     15  C   UNL     1      32.864 -13.681 -21.182  0.00  0.00    +0.015 C 
ATOM     16  C   UNL     1      33.732 -12.706 -23.215  0.00  0.00    +0.015 C 
BRANCH  12  18
ATOM     17  O   UNL     1      33.441 -15.058 -24.971  0.00  0.00    -0.269 OA
ATOM     18  N   UNL     1      34.189 -15.076 -22.722  0.00  0.00    -0.233 N 
ATOM     19  C   UNL     1      34.079 -15.567 -24.048  0.00  0.00    +0.257 C 
ATOM     20  C   UNL     1      34.857 -15.836 -21.758  0.00  0.00    +0.072 C 
ATOM     21  C   UNL     1      34.767 -16.862 -24.339  0.00  0.00    +0.059 C 
ATOM     22  C   UNL     1      35.437 -17.009 -22.036  0.00  0.00    +0.017 C 
ATOM     23  C   UNL     1      35.394 -17.531 -23.369  0.00  0.00    +0.006 C 
ENDBRANCH  12  18
ENDBRANCH   9  11
ENDBRANCH   2   8
BRANCH   1  24
ATOM     24  S   UNL     1      31.753  -7.212 -23.558  0.00  0.00    +0.076 S 
ATOM     25  O   UNL     1      30.451  -7.857 -23.669  0.00  0.00    -0.150 OA
ATOM     26  O   UNL     1      32.939  -7.938 -23.987  0.00  0.00    -0.150 OA
BRANCH  24  28
ATOM     27 CL   UNL     1      36.578  -3.862 -27.047  0.00  0.00    -0.081 Cl
ATOM     28  N   UNL     1      31.674  -5.696 -24.369  0.00  0.00    -0.199 N 
ATOM     29  N   UNL     1      34.033  -5.497 -24.456  0.00  0.00    -0.227 NA
ATOM     30  C   UNL     1      32.850  -5.231 -25.055  0.00  0.00    +0.147 C 
ATOM     31  C   UNL     1      32.725  -4.555 -26.258  0.00  0.00    +0.036 C 
ATOM     32  C   UNL     1      33.888  -4.125 -26.887  0.00  0.00    +0.016 C 
ATOM     33  C   UNL     1      35.141  -5.064 -25.097  0.00  0.00    +0.112 C 
ATOM     34  C   UNL     1      35.124  -4.380 -26.301  0.00  0.00    +0.077 C 
ATOM     35  H   UNL     1      30.848  -5.162 -24.364  0.00  0.00    +0.175 HD
ENDBRANCH  24  28
ENDBRANCH   1  24
TORSDOF 5
ENDMDL
